MODEL 1
REMARK VINA RESULT:      -7.6      0.000      0.000
REMARK  Name = 
REMARK  6 active torsions:
REMARK  status: ('A' for Active; 'I' for Inactive)
REMARK    1  A    between atoms: P_2  and  O_3
REMARK    2  A    between atoms: P_2  and  O_4
REMARK    3  A    between atoms: P_2  and  C_5
REMARK    4  A    between atoms: C_5  and  C_6
REMARK    5  A    between atoms: C_13  and  O_14
REMARK    6  A    between atoms: C_15  and  O_16
REMARK                            x       y       z     vdW  Elec       q    Type
REMARK                         _______ _______ _______ _____ _____    ______ ____
ROOT
ATOM      1  C   UNL     1       4.542   5.417  17.757  0.00  0.00    +0.000 A 
ATOM      2  C   UNL     1       4.003   6.712  17.748  0.00  0.00    +0.000 A 
ATOM      3  C   UNL     1       2.647   6.905  17.971  0.00  0.00    +0.000 A 
ATOM      4 CL   UNL     1       2.001   8.498  18.019  0.00  0.00    +0.000 Cl
ATOM      5  C   UNL     1       1.814   5.817  18.211  0.00  0.00    +0.000 A 
ATOM      6  C   UNL     1       2.313   4.528  18.204  0.00  0.00    +0.000 A 
ATOM      7  N   UNL     1       1.479   3.513  18.503  0.00  0.00    +0.000 NA
ATOM      8  C   UNL     1       2.042   2.299  18.512  0.00  0.00    +0.000 A 
ATOM      9  C   UNL     1       3.369   2.066  18.196  0.00  0.00    +0.000 A 
ATOM     10  N   UNL     1       4.214   3.061  17.886  0.00  0.00    +0.000 NA
ATOM     11  C   UNL     1       3.703   4.310  17.925  0.00  0.00    +0.000 A 
ENDROOT
BRANCH   8  12
ATOM     12  O   UNL     1       1.226   1.293  18.925  0.00  0.00    +0.000 OA
ATOM     13  H   UNL     1       0.353   1.682  18.719  0.00  0.00    +0.000 HD
ENDBRANCH   8  12
BRANCH   9  14
ATOM     14  O   UNL     1       3.902   0.809  18.238  0.00  0.00    +0.000 OA
ATOM     15  H   UNL     1       4.333   0.748  19.110  0.00  0.00    +0.000 HD
ENDBRANCH   9  14
BRANCH   1  16
ATOM     16  C   UNL     1       6.048   5.240  17.737  0.00  0.00    +0.000 C 
BRANCH  16  18
ATOM     17  O   UNL     1       7.713   5.220  14.797  0.00  0.00    +0.000 OA
ATOM     18  P   UNL     1       6.951   5.230  16.145  0.00  0.00    +0.000 P 
BRANCH  18  19
ATOM     19  O   UNL     1       8.077   4.262  16.850  0.00  0.00    +0.000 OA
ATOM     20  H   UNL     1       8.433   4.743  17.624  0.00  0.00    +0.000 HD
ENDBRANCH  18  19
BRANCH  18  21
ATOM     21  O   UNL     1       7.645   6.657  16.575  0.00  0.00    +0.000 OA
ATOM     22  H   UNL     1       8.450   6.433  17.088  0.00  0.00    +0.000 HD
ENDBRANCH  18  21
ENDBRANCH  16  18
ENDBRANCH   1  16
TORSDOF 6
ENDMDL
MODEL 2
REMARK VINA RESULT:      -7.4      1.767      1.826
REMARK  Name = 
REMARK  6 active torsions:
REMARK  status: ('A' for Active; 'I' for Inactive)
REMARK    1  A    between atoms: P_2  and  O_3
REMARK    2  A    between atoms: P_2  and  O_4
REMARK    3  A    between atoms: P_2  and  C_5
REMARK    4  A    between atoms: C_5  and  C_6
REMARK    5  A    between atoms: C_13  and  O_14
REMARK    6  A    between atoms: C_15  and  O_16
REMARK                            x       y       z     vdW  Elec       q    Type
REMARK                         _______ _______ _______ _____ _____    ______ ____
ROOT
ATOM      1  C   UNL     1       4.674   5.630  17.776  0.00  0.00    +0.000 A 
ATOM      2  C   UNL     1       3.984   6.823  17.514  0.00  0.00    +0.000 A 
ATOM      3  C   UNL     1       2.841   7.140  18.236  0.00  0.00    +0.000 A 
ATOM      4 CL   UNL     1       2.033   8.632  17.954  0.00  0.00    +0.000 Cl
ATOM      5  C   UNL     1       2.376   6.281  19.226  0.00  0.00    +0.000 A 
ATOM      6  C   UNL     1       3.023   5.089  19.489  0.00  0.00    +0.000 A 
ATOM      7  N   UNL     1       2.569   4.321  20.500  0.00  0.00    +0.000 NA
ATOM      8  C   UNL     1       3.268   3.201  20.719  0.00  0.00    +0.000 A 
ATOM      9  C   UNL     1       4.352   2.808  19.952  0.00  0.00    +0.000 A 
ATOM     10  N   UNL     1       4.813   3.554  18.935  0.00  0.00    +0.000 NA
ATOM     11  C   UNL     1       4.175   4.724  18.718  0.00  0.00    +0.000 A 
ENDROOT
BRANCH   8  12
ATOM     12  O   UNL     1       2.879   2.487  21.808  0.00  0.00    +0.000 OA
ATOM     13  H   UNL     1       1.907   2.563  21.728  0.00  0.00    +0.000 HD
ENDBRANCH   8  12
BRANCH   9  14
ATOM     14  O   UNL     1       5.044   1.664  20.228  0.00  0.00    +0.000 OA
ATOM     15  H   UNL     1       5.863   1.734  19.705  0.00  0.00    +0.000 HD
ENDBRANCH   9  14
BRANCH   1  16
ATOM     16  C   UNL     1       6.034   5.406  17.143  0.00  0.00    +0.000 C 
BRANCH  16  18
ATOM     17  O   UNL     1       6.265   4.066  14.050  0.00  0.00    +0.000 OA
ATOM     18  P   UNL     1       6.160   4.680  15.468  0.00  0.00    +0.000 P 
BRANCH  18  19
ATOM     19  O   UNL     1       5.917   3.203  16.147  0.00  0.00    +0.000 OA
ATOM     20  H   UNL     1       6.075   3.293  17.109  0.00  0.00    +0.000 HD
ENDBRANCH  18  19
BRANCH  18  21
ATOM     21  O   UNL     1       7.796   4.686  15.632  0.00  0.00    +0.000 OA
ATOM     22  H   UNL     1       8.123   5.466  15.137  0.00  0.00    +0.000 HD
ENDBRANCH  18  21
ENDBRANCH  16  18
ENDBRANCH   1  16
TORSDOF 6
ENDMDL
MODEL 3
REMARK VINA RESULT:      -7.3      1.246      1.618
REMARK  Name = 
REMARK  6 active torsions:
REMARK  status: ('A' for Active; 'I' for Inactive)
REMARK    1  A    between atoms: P_2  and  O_3
REMARK    2  A    between atoms: P_2  and  O_4
REMARK    3  A    between atoms: P_2  and  C_5
REMARK    4  A    between atoms: C_5  and  C_6
REMARK    5  A    between atoms: C_13  and  O_14
REMARK    6  A    between atoms: C_15  and  O_16
REMARK                            x       y       z     vdW  Elec       q    Type
REMARK                         _______ _______ _______ _____ _____    ______ ____
ROOT
ATOM      1  C   UNL     1       4.648   5.512  17.337  0.00  0.00    +0.000 A 
ATOM      2  C   UNL     1       4.158   6.825  17.407  0.00  0.00    +0.000 A 
ATOM      3  C   UNL     1       2.857   7.062  17.829  0.00  0.00    +0.000 A 
ATOM      4 CL   UNL     1       2.281   8.676  17.971  0.00  0.00    +0.000 Cl
ATOM      5  C   UNL     1       2.033   6.002  18.192  0.00  0.00    +0.000 A 
ATOM      6  C   UNL     1       2.482   4.698  18.111  0.00  0.00    +0.000 A 
ATOM      7  N   UNL     1       1.667   3.710  18.532  0.00  0.00    +0.000 NA
ATOM      8  C   UNL     1       2.184   2.478  18.459  0.00  0.00    +0.000 A 
ATOM      9  C   UNL     1       3.440   2.201  17.948  0.00  0.00    +0.000 A 
ATOM     10  N   UNL     1       4.263   3.168  17.515  0.00  0.00    +0.000 NA
ATOM     11  C   UNL     1       3.806   4.434  17.629  0.00  0.00    +0.000 A 
ENDROOT
BRANCH   8  12
ATOM     12  O   UNL     1       1.405   1.498  18.989  0.00  0.00    +0.000 OA
ATOM     13  H   UNL     1       1.585   1.628  19.941  0.00  0.00    +0.000 HD
ENDBRANCH   8  12
BRANCH   9  14
ATOM     14  O   UNL     1       3.930   0.926  17.913  0.00  0.00    +0.000 OA
ATOM     15  H   UNL     1       3.387   0.430  18.551  0.00  0.00    +0.000 HD
ENDBRANCH   9  14
BRANCH   1  16
ATOM     16  C   UNL     1       6.127   5.285  17.093  0.00  0.00    +0.000 C 
BRANCH  16  18
ATOM     17  O   UNL     1       8.314   5.434  19.665  0.00  0.00    +0.000 OA
ATOM     18  P   UNL     1       7.311   5.365  18.486  0.00  0.00    +0.000 P 
BRANCH  18  19
ATOM     19  O   UNL     1       8.065   4.049  17.852  0.00  0.00    +0.000 OA
ATOM     20  H   UNL     1       8.324   4.273  16.936  0.00  0.00    +0.000 HD
ENDBRANCH  18  19
BRANCH  18  21
ATOM     21  O   UNL     1       6.230   4.529  19.401  0.00  0.00    +0.000 OA
ATOM     22  H   UNL     1       5.359   4.626  18.962  0.00  0.00    +0.000 HD
ENDBRANCH  18  21
ENDBRANCH  16  18
ENDBRANCH   1  16
TORSDOF 6
ENDMDL
MODEL 4
REMARK VINA RESULT:      -7.0      1.789      2.000
REMARK  Name = 
REMARK  6 active torsions:
REMARK  status: ('A' for Active; 'I' for Inactive)
REMARK    1  A    between atoms: P_2  and  O_3
REMARK    2  A    between atoms: P_2  and  O_4
REMARK    3  A    between atoms: P_2  and  C_5
REMARK    4  A    between atoms: C_5  and  C_6
REMARK    5  A    between atoms: C_13  and  O_14
REMARK    6  A    between atoms: C_15  and  O_16
REMARK                            x       y       z     vdW  Elec       q    Type
REMARK                         _______ _______ _______ _____ _____    ______ ____
ROOT
ATOM      1  C   UNL     1       4.244   5.722  17.938  0.00  0.00    +0.000 A 
ATOM      2  C   UNL     1       3.530   6.928  17.872  0.00  0.00    +0.000 A 
ATOM      3  C   UNL     1       2.502   7.179  18.771  0.00  0.00    +0.000 A 
ATOM      4 CL   UNL     1       1.670   8.683  18.726  0.00  0.00    +0.000 Cl
ATOM      5  C   UNL     1       2.178   6.241  19.745  0.00  0.00    +0.000 A 
ATOM      6  C   UNL     1       2.850   5.036  19.819  0.00  0.00    +0.000 A 
ATOM      7  N   UNL     1       2.540   4.186  20.819  0.00  0.00    +0.000 NA
ATOM      8  C   UNL     1       3.257   3.057  20.847  0.00  0.00    +0.000 A 
ATOM      9  C   UNL     1       4.219   2.734  19.905  0.00  0.00    +0.000 A 
ATOM     10  N   UNL     1       4.536   3.561  18.897  0.00  0.00    +0.000 NA
ATOM     11  C   UNL     1       3.879   4.741  18.866  0.00  0.00    +0.000 A 
ENDROOT
BRANCH   8  12
ATOM     12  O   UNL     1       3.022   2.256  21.920  0.00  0.00    +0.000 OA
ATOM     13  H   UNL     1       2.185   1.835  21.643  0.00  0.00    +0.000 HD
ENDBRANCH   8  12
BRANCH   9  14
ATOM     14  O   UNL     1       4.939   1.576  19.989  0.00  0.00    +0.000 OA
ATOM     15  H   UNL     1       5.680   1.696  19.369  0.00  0.00    +0.000 HD
ENDBRANCH   9  14
BRANCH   1  16
ATOM     16  C   UNL     1       5.500   5.558  17.103  0.00  0.00    +0.000 C 
BRANCH  16  18
ATOM     17  O   UNL     1       7.926   7.908  17.211  0.00  0.00    +0.000 OA
ATOM     18  P   UNL     1       6.814   6.830  17.162  0.00  0.00    +0.000 P 
BRANCH  18  19
ATOM     19  O   UNL     1       7.571   6.029  15.942  0.00  0.00    +0.000 OA
ATOM     20  H   UNL     1       6.878   5.694  15.337  0.00  0.00    +0.000 HD
ENDBRANCH  18  19
BRANCH  18  21
ATOM     21  O   UNL     1       7.516   5.991  18.390  0.00  0.00    +0.000 OA
ATOM     22  H   UNL     1       7.015   6.215  19.203  0.00  0.00    +0.000 HD
ENDBRANCH  18  21
ENDBRANCH  16  18
ENDBRANCH   1  16
TORSDOF 6
ENDMDL
MODEL 5
REMARK VINA RESULT:      -7.0      2.389      4.812
REMARK  Name = 
REMARK  6 active torsions:
REMARK  status: ('A' for Active; 'I' for Inactive)
REMARK    1  A    between atoms: P_2  and  O_3
REMARK    2  A    between atoms: P_2  and  O_4
REMARK    3  A    between atoms: P_2  and  C_5
REMARK    4  A    between atoms: C_5  and  C_6
REMARK    5  A    between atoms: C_13  and  O_14
REMARK    6  A    between atoms: C_15  and  O_16
REMARK                            x       y       z     vdW  Elec       q    Type
REMARK                         _______ _______ _______ _____ _____    ______ ____
ROOT
ATOM      1  C   UNL     1       3.981   5.666  19.089  0.00  0.00    +0.000 A 
ATOM      2  C   UNL     1       2.918   6.579  19.009  0.00  0.00    +0.000 A 
ATOM      3  C   UNL     1       2.882   7.520  17.990  0.00  0.00    +0.000 A 
ATOM      4 CL   UNL     1       1.547   8.596  17.861  0.00  0.00    +0.000 Cl
ATOM      5  C   UNL     1       3.895   7.562  17.038  0.00  0.00    +0.000 A 
ATOM      6  C   UNL     1       4.965   6.690  17.105  0.00  0.00    +0.000 A 
ATOM      7  N   UNL     1       5.889   6.730  16.124  0.00  0.00    +0.000 NA
ATOM      8  C   UNL     1       6.875   5.832  16.237  0.00  0.00    +0.000 A 
ATOM      9  C   UNL     1       6.991   4.948  17.295  0.00  0.00    +0.000 A 
ATOM     10  N   UNL     1       6.088   4.899  18.286  0.00  0.00    +0.000 NA
ATOM     11  C   UNL     1       5.042   5.746  18.180  0.00  0.00    +0.000 A 
ENDROOT
BRANCH   8  12
ATOM     12  O   UNL     1       7.740   5.798  15.189  0.00  0.00    +0.000 OA
ATOM     13  H   UNL     1       7.750   4.838  15.003  0.00  0.00    +0.000 HD
ENDBRANCH   8  12
BRANCH   9  14
ATOM     14  O   UNL     1       8.007   4.036  17.355  0.00  0.00    +0.000 OA
ATOM     15  H   UNL     1       8.636   4.404  18.001  0.00  0.00    +0.000 HD
ENDBRANCH   9  14
BRANCH   1  16
ATOM     16  C   UNL     1       3.893   4.509  20.065  0.00  0.00    +0.000 C 
BRANCH  16  18
ATOM     17  O   UNL     1       2.944   1.450  18.987  0.00  0.00    +0.000 OA
ATOM     18  P   UNL     1       3.379   2.852  19.481  0.00  0.00    +0.000 P 
BRANCH  18  19
ATOM     19  O   UNL     1       3.028   2.470  21.041  0.00  0.00    +0.000 OA
ATOM     20  H   UNL     1       3.138   3.283  21.574  0.00  0.00    +0.000 HD
ENDBRANCH  18  19
BRANCH  18  21
ATOM     21  O   UNL     1       4.957   2.389  19.533  0.00  0.00    +0.000 OA
ATOM     22  H   UNL     1       5.403   2.988  20.167  0.00  0.00    +0.000 HD
ENDBRANCH  18  21
ENDBRANCH  16  18
ENDBRANCH   1  16
TORSDOF 6
ENDMDL
MODEL 6
REMARK VINA RESULT:      -7.0      1.609      1.907
REMARK  Name = 
REMARK  6 active torsions:
REMARK  status: ('A' for Active; 'I' for Inactive)
REMARK    1  A    between atoms: P_2  and  O_3
REMARK    2  A    between atoms: P_2  and  O_4
REMARK    3  A    between atoms: P_2  and  C_5
REMARK    4  A    between atoms: C_5  and  C_6
REMARK    5  A    between atoms: C_13  and  O_14
REMARK    6  A    between atoms: C_15  and  O_16
REMARK                            x       y       z     vdW  Elec       q    Type
REMARK                         _______ _______ _______ _____ _____    ______ ____
ROOT
ATOM      1  C   UNL     1       3.999   5.830  17.433  0.00  0.00    +0.000 A 
ATOM      2  C   UNL     1       3.414   7.104  17.488  0.00  0.00    +0.000 A 
ATOM      3  C   UNL     1       2.589   7.447  18.550  0.00  0.00    +0.000 A 
ATOM      4 CL   UNL     1       1.923   9.030  18.645  0.00  0.00    +0.000 Cl
ATOM      5  C   UNL     1       2.343   6.534  19.570  0.00  0.00    +0.000 A 
ATOM      6  C   UNL     1       2.888   5.265  19.531  0.00  0.00    +0.000 A 
ATOM      7  N   UNL     1       2.670   4.439  20.573  0.00  0.00    +0.000 NA
ATOM      8  C   UNL     1       3.260   3.241  20.481  0.00  0.00    +0.000 A 
ATOM      9  C   UNL     1       4.005   2.834  19.388  0.00  0.00    +0.000 A 
ATOM     10  N   UNL     1       4.226   3.638  18.336  0.00  0.00    +0.000 NA
ATOM     11  C   UNL     1       3.700   4.879  18.415  0.00  0.00    +0.000 A 
ENDROOT
BRANCH   8  12
ATOM     12  O   UNL     1       3.132   2.455  21.582  0.00  0.00    +0.000 OA
ATOM     13  H   UNL     1       4.072   2.353  21.833  0.00  0.00    +0.000 HD
ENDBRANCH   8  12
BRANCH   9  14
ATOM     14  O   UNL     1       4.603   1.607  19.350  0.00  0.00    +0.000 OA
ATOM     15  H   UNL     1       5.211   1.647  18.590  0.00  0.00    +0.000 HD
ENDBRANCH   9  14
BRANCH   1  16
ATOM     16  C   UNL     1       5.067   5.549  16.394  0.00  0.00    +0.000 C 
BRANCH  16  18
ATOM     17  O   UNL     1       8.087   4.367  17.342  0.00  0.00    +0.000 OA
ATOM     18  P   UNL     1       6.703   4.908  16.907  0.00  0.00    +0.000 P 
BRANCH  18  19
ATOM     19  O   UNL     1       7.337   5.594  15.554  0.00  0.00    +0.000 OA
ATOM     20  H   UNL     1       6.695   5.458  14.828  0.00  0.00    +0.000 HD
ENDBRANCH  18  19
BRANCH  18  21
ATOM     21  O   UNL     1       6.312   3.469  16.212  0.00  0.00    +0.000 OA
ATOM     22  H   UNL     1       5.435   3.590  15.793  0.00  0.00    +0.000 HD
ENDBRANCH  18  21
ENDBRANCH  16  18
ENDBRANCH   1  16
TORSDOF 6
ENDMDL
MODEL 7
REMARK VINA RESULT:      -6.9      1.088      1.210
REMARK  Name = 
REMARK  6 active torsions:
REMARK  status: ('A' for Active; 'I' for Inactive)
REMARK    1  A    between atoms: P_2  and  O_3
REMARK    2  A    between atoms: P_2  and  O_4
REMARK    3  A    between atoms: P_2  and  C_5
REMARK    4  A    between atoms: C_5  and  C_6
REMARK    5  A    between atoms: C_13  and  O_14
REMARK    6  A    between atoms: C_15  and  O_16
REMARK                            x       y       z     vdW  Elec       q    Type
REMARK                         _______ _______ _______ _____ _____    ______ ____
ROOT
ATOM      1  C   UNL     1       4.560   5.695  17.093  0.00  0.00    +0.000 A 
ATOM      2  C   UNL     1       4.112   7.024  17.147  0.00  0.00    +0.000 A 
ATOM      3  C   UNL     1       2.945   7.338  17.830  0.00  0.00    +0.000 A 
ATOM      4 CL   UNL     1       2.432   8.976  17.945  0.00  0.00    +0.000 Cl
ATOM      5  C   UNL     1       2.218   6.341  18.471  0.00  0.00    +0.000 A 
ATOM      6  C   UNL     1       2.624   5.022  18.416  0.00  0.00    +0.000 A 
ATOM      7  N   UNL     1       1.919   4.103  19.105  0.00  0.00    +0.000 NA
ATOM      8  C   UNL     1       2.393   2.853  19.034  0.00  0.00    +0.000 A 
ATOM      9  C   UNL     1       3.496   2.492  18.279  0.00  0.00    +0.000 A 
ATOM     10  N   UNL     1       4.206   3.391  17.578  0.00  0.00    +0.000 NA
ATOM     11  C   UNL     1       3.798   4.674  17.671  0.00  0.00    +0.000 A 
ENDROOT
BRANCH   8  12
ATOM     12  O   UNL     1       1.749   1.951  19.820  0.00  0.00    +0.000 OA
ATOM     13  H   UNL     1       2.261   2.043  20.647  0.00  0.00    +0.000 HD
ENDBRANCH   8  12
BRANCH   9  14
ATOM     14  O   UNL     1       3.953   1.205  18.254  0.00  0.00    +0.000 OA
ATOM     15  H   UNL     1       4.557   1.168  17.491  0.00  0.00    +0.000 HD
ENDBRANCH   9  14
BRANCH   1  16
ATOM     16  C   UNL     1       5.941   5.401  16.540  0.00  0.00    +0.000 C 
BRANCH  16  18
ATOM     17  O   UNL     1       6.286   4.111  13.436  0.00  0.00    +0.000 OA
ATOM     18  P   UNL     1       6.128   4.702  14.859  0.00  0.00    +0.000 P 
BRANCH  18  19
ATOM     19  O   UNL     1       6.383   3.235  15.555  0.00  0.00    +0.000 OA
ATOM     20  H   UNL     1       5.544   2.735  15.500  0.00  0.00    +0.000 HD
ENDBRANCH  18  19
BRANCH  18  21
ATOM     21  O   UNL     1       7.701   5.185  14.877  0.00  0.00    +0.000 OA
ATOM     22  H   UNL     1       7.833   5.675  15.715  0.00  0.00    +0.000 HD
ENDBRANCH  18  21
ENDBRANCH  16  18
ENDBRANCH   1  16
TORSDOF 6
ENDMDL
MODEL 8
REMARK VINA RESULT:      -6.9      2.289      4.983
REMARK  Name = 
REMARK  6 active torsions:
REMARK  status: ('A' for Active; 'I' for Inactive)
REMARK    1  A    between atoms: P_2  and  O_3
REMARK    2  A    between atoms: P_2  and  O_4
REMARK    3  A    between atoms: P_2  and  C_5
REMARK    4  A    between atoms: C_5  and  C_6
REMARK    5  A    between atoms: C_13  and  O_14
REMARK    6  A    between atoms: C_15  and  O_16
REMARK                            x       y       z     vdW  Elec       q    Type
REMARK                         _______ _______ _______ _____ _____    ______ ____
ROOT
ATOM      1  C   UNL     1       2.753   5.112  17.866  0.00  0.00    +0.000 A 
ATOM      2  C   UNL     1       2.138   6.295  18.306  0.00  0.00    +0.000 A 
ATOM      3  C   UNL     1       2.732   7.524  18.053  0.00  0.00    +0.000 A 
ATOM      4 CL   UNL     1       1.946   8.974  18.540  0.00  0.00    +0.000 Cl
ATOM      5  C   UNL     1       3.935   7.592  17.359  0.00  0.00    +0.000 A 
ATOM      6  C   UNL     1       4.573   6.443  16.934  0.00  0.00    +0.000 A 
ATOM      7  N   UNL     1       5.705   6.564  16.212  0.00  0.00    +0.000 NA
ATOM      8  C   UNL     1       6.245   5.410  15.804  0.00  0.00    +0.000 A 
ATOM      9  C   UNL     1       5.731   4.165  16.126  0.00  0.00    +0.000 A 
ATOM     10  N   UNL     1       4.611   4.022  16.852  0.00  0.00    +0.000 NA
ATOM     11  C   UNL     1       3.998   5.164  17.231  0.00  0.00    +0.000 A 
ENDROOT
BRANCH   8  12
ATOM     12  O   UNL     1       7.319   5.539  14.982  0.00  0.00    +0.000 OA
ATOM     13  H   UNL     1       7.404   6.513  14.958  0.00  0.00    +0.000 HD
ENDBRANCH   8  12
BRANCH   9  14
ATOM     14  O   UNL     1       6.309   3.015  15.669  0.00  0.00    +0.000 OA
ATOM     15  H   UNL     1       5.630   2.328  15.790  0.00  0.00    +0.000 HD
ENDBRANCH   9  14
BRANCH   1  16
ATOM     16  C   UNL     1       1.988   3.806  17.950  0.00  0.00    +0.000 C 
BRANCH  16  18
ATOM     17  O   UNL     1       1.543   2.289  20.937  0.00  0.00    +0.000 OA
ATOM     18  P   UNL     1       1.748   2.983  19.567  0.00  0.00    +0.000 P 
BRANCH  18  19
ATOM     19  O   UNL     1       3.382   2.844  19.681  0.00  0.00    +0.000 OA
ATOM     20  H   UNL     1       3.753   3.750  19.685  0.00  0.00    +0.000 HD
ENDBRANCH  18  19
BRANCH  18  21
ATOM     21  O   UNL     1       1.501   1.568  18.766  0.00  0.00    +0.000 OA
ATOM     22  H   UNL     1       1.855   1.694  17.861  0.00  0.00    +0.000 HD
ENDBRANCH  18  21
ENDBRANCH  16  18
ENDBRANCH   1  16
TORSDOF 6
ENDMDL
MODEL 9
REMARK VINA RESULT:      -6.8      1.888      2.056
REMARK  Name = 
REMARK  6 active torsions:
REMARK  status: ('A' for Active; 'I' for Inactive)
REMARK    1  A    between atoms: P_2  and  O_3
REMARK    2  A    between atoms: P_2  and  O_4
REMARK    3  A    between atoms: P_2  and  C_5
REMARK    4  A    between atoms: C_5  and  C_6
REMARK    5  A    between atoms: C_13  and  O_14
REMARK    6  A    between atoms: C_15  and  O_16
REMARK                            x       y       z     vdW  Elec       q    Type
REMARK                         _______ _______ _______ _____ _____    ______ ____
ROOT
ATOM      1  C   UNL     1       4.794   5.601  17.894  0.00  0.00    +0.000 A 
ATOM      2  C   UNL     1       4.085   6.776  17.602  0.00  0.00    +0.000 A 
ATOM      3  C   UNL     1       2.901   7.061  18.269  0.00  0.00    +0.000 A 
ATOM      4 CL   UNL     1       2.068   8.531  17.952  0.00  0.00    +0.000 Cl
ATOM      5  C   UNL     1       2.414   6.187  19.235  0.00  0.00    +0.000 A 
ATOM      6  C   UNL     1       3.079   5.011  19.527  0.00  0.00    +0.000 A 
ATOM      7  N   UNL     1       2.599   4.228  20.513  0.00  0.00    +0.000 NA
ATOM      8  C   UNL     1       3.316   3.127  20.763  0.00  0.00    +0.000 A 
ATOM      9  C   UNL     1       4.444   2.766  20.047  0.00  0.00    +0.000 A 
ATOM     10  N   UNL     1       4.933   3.526  19.055  0.00  0.00    +0.000 NA
ATOM     11  C   UNL     1       4.275   4.679  18.810  0.00  0.00    +0.000 A 
ENDROOT
BRANCH   8  12
ATOM     12  O   UNL     1       2.895   2.400  21.832  0.00  0.00    +0.000 OA
ATOM     13  H   UNL     1       1.949   2.296  21.610  0.00  0.00    +0.000 HD
ENDBRANCH   8  12
BRANCH   9  14
ATOM     14  O   UNL     1       5.154   1.639  20.354  0.00  0.00    +0.000 OA
ATOM     15  H   UNL     1       4.619   0.903  20.005  0.00  0.00    +0.000 HD
ENDBRANCH   9  14
BRANCH   1  16
ATOM     16  C   UNL     1       6.187   5.415  17.326  0.00  0.00    +0.000 C 
BRANCH  16  18
ATOM     17  O   UNL     1       6.613   3.913  14.329  0.00  0.00    +0.000 OA
ATOM     18  P   UNL     1       6.417   4.601  15.702  0.00  0.00    +0.000 P 
BRANCH  18  19
ATOM     19  O   UNL     1       5.888   5.987  14.992  0.00  0.00    +0.000 OA
ATOM     20  H   UNL     1       6.624   6.336  14.449  0.00  0.00    +0.000 HD
ENDBRANCH  18  19
BRANCH  18  21
ATOM     21  O   UNL     1       4.933   3.914  15.882  0.00  0.00    +0.000 OA
ATOM     22  H   UNL     1       4.313   4.442  15.337  0.00  0.00    +0.000 HD
ENDBRANCH  18  21
ENDBRANCH  16  18
ENDBRANCH   1  16
TORSDOF 6
ENDMDL
