MODEL 1
REMARK VINA RESULT:      -7.3      0.000      0.000
REMARK  Name = 
REMARK  5 active torsions:
REMARK  status: ('A' for Active; 'I' for Inactive)
REMARK    1  A    between atoms: O_1  and  C_2
REMARK    2  A    between atoms: C_4  and  O_5
REMARK    3  A    between atoms: C_7  and  C_8
REMARK    4  A    between atoms: C_9  and  C_10
REMARK    5  A    between atoms: C_13  and  O_14
REMARK                            x       y       z     vdW  Elec       q    Type
REMARK                         _______ _______ _______ _____ _____    ______ ____
ROOT
ATOM      1  C   UNL     1       8.284   7.916  18.572  0.00  0.00    +0.000 C 
ATOM      2  C   UNL     1       8.357   9.152  18.048  0.00  0.00    +0.000 C 
ENDROOT
BRANCH   2   3
ATOM      3  C   UNL     1       9.133  10.260  18.631  0.00  0.00    +0.000 A 
ATOM      4  C   UNL     1       9.260  10.449  20.014  0.00  0.00    +0.000 A 
ATOM      5  C   UNL     1      10.039  11.491  20.530  0.00  0.00    +0.000 A 
ATOM      6  C   UNL     1      10.710  12.348  19.661  0.00  0.00    +0.000 A 
ATOM      7  C   UNL     1      10.606  12.165  18.281  0.00  0.00    +0.000 A 
ATOM      8 BR   UNL     1      11.515  13.298  17.061  0.00  0.00    +0.000 Br
ATOM      9  C   UNL     1       9.825  11.124  17.768  0.00  0.00    +0.000 A 
BRANCH   6  10
ATOM     10  O   UNL     1      11.476  13.361  20.165  0.00  0.00    +0.000 OA
ATOM     11  H   UNL     1      12.061  13.700  19.468  0.00  0.00    +0.000 HD
ENDBRANCH   6  10
ENDBRANCH   2   3
BRANCH   1  16
ATOM     12  C   UNL     1       6.454   5.679  16.117  0.00  0.00    +0.000 A 
ATOM     13  C   UNL     1       5.999   4.664  16.952  0.00  0.00    +0.000 A 
ATOM     14  C   UNL     1       6.303   4.732  18.307  0.00  0.00    +0.000 A 
ATOM     15  C   UNL     1       7.052   5.788  18.823  0.00  0.00    +0.000 A 
ATOM     16  C   UNL     1       7.523   6.803  17.979  0.00  0.00    +0.000 A 
ATOM     17  C   UNL     1       7.202   6.744  16.617  0.00  0.00    +0.000 A 
BRANCH  12  18
ATOM     18  O   UNL     1       6.181   5.674  14.779  0.00  0.00    +0.000 OA
ATOM     19  H   UNL     1       5.231   5.521  14.649  0.00  0.00    +0.000 HD
ENDBRANCH  12  18
BRANCH  14  20
ATOM     20  O   UNL     1       5.881   3.773  19.180  0.00  0.00    +0.000 OA
ATOM     21  H   UNL     1       6.520   3.703  19.909  0.00  0.00    +0.000 HD
ENDBRANCH  14  20
ENDBRANCH   1  16
TORSDOF 5
ENDMDL
MODEL 2
REMARK VINA RESULT:      -7.3      0.141      1.966
REMARK  Name = 
REMARK  5 active torsions:
REMARK  status: ('A' for Active; 'I' for Inactive)
REMARK    1  A    between atoms: O_1  and  C_2
REMARK    2  A    between atoms: C_4  and  O_5
REMARK    3  A    between atoms: C_7  and  C_8
REMARK    4  A    between atoms: C_9  and  C_10
REMARK    5  A    between atoms: C_13  and  O_14
REMARK                            x       y       z     vdW  Elec       q    Type
REMARK                         _______ _______ _______ _____ _____    ______ ____
ROOT
ATOM      1  C   UNL     1       8.427   7.912  18.500  0.00  0.00    +0.000 C 
ATOM      2  C   UNL     1       8.238   9.210  18.211  0.00  0.00    +0.000 C 
ENDROOT
BRANCH   2   3
ATOM      3  C   UNL     1       9.095  10.306  18.693  0.00  0.00    +0.000 A 
ATOM      4  C   UNL     1       9.343  10.529  20.055  0.00  0.00    +0.000 A 
ATOM      5  C   UNL     1      10.196  11.556  20.473  0.00  0.00    +0.000 A 
ATOM      6  C   UNL     1      10.821  12.365  19.526  0.00  0.00    +0.000 A 
ATOM      7  C   UNL     1      10.596  12.147  18.166  0.00  0.00    +0.000 A 
ATOM      8 BR   UNL     1      11.437  13.212  16.841  0.00  0.00    +0.000 Br
ATOM      9  C   UNL     1       9.741  11.120  17.751  0.00  0.00    +0.000 A 
BRANCH   6  10
ATOM     10  O   UNL     1      11.659  13.364  19.934  0.00  0.00    +0.000 OA
ATOM     11  H   UNL     1      12.224  13.037  20.652  0.00  0.00    +0.000 HD
ENDBRANCH   6  10
ENDBRANCH   2   3
BRANCH   1  16
ATOM     12  C   UNL     1       6.333   4.757  18.294  0.00  0.00    +0.000 A 
ATOM     13  C   UNL     1       6.024   4.716  16.938  0.00  0.00    +0.000 A 
ATOM     14  C   UNL     1       6.508   5.727  16.116  0.00  0.00    +0.000 A 
ATOM     15  C   UNL     1       7.282   6.765  16.633  0.00  0.00    +0.000 A 
ATOM     16  C   UNL     1       7.580   6.814  18.002  0.00  0.00    +0.000 A 
ATOM     17  C   UNL     1       7.108   5.786  18.827  0.00  0.00    +0.000 A 
BRANCH  12  18
ATOM     18  O   UNL     1       5.895   3.789  19.152  0.00  0.00    +0.000 OA
ATOM     19  H   UNL     1       6.275   2.936  18.888  0.00  0.00    +0.000 HD
ENDBRANCH  12  18
BRANCH  14  20
ATOM     20  O   UNL     1       6.249   5.742  14.777  0.00  0.00    +0.000 OA
ATOM     21  H   UNL     1       7.076   5.586  14.292  0.00  0.00    +0.000 HD
ENDBRANCH  14  20
ENDBRANCH   1  16
TORSDOF 5
ENDMDL
MODEL 3
REMARK VINA RESULT:      -7.2      2.912      7.665
REMARK  Name = 
REMARK  5 active torsions:
REMARK  status: ('A' for Active; 'I' for Inactive)
REMARK    1  A    between atoms: O_1  and  C_2
REMARK    2  A    between atoms: C_4  and  O_5
REMARK    3  A    between atoms: C_7  and  C_8
REMARK    4  A    between atoms: C_9  and  C_10
REMARK    5  A    between atoms: C_13  and  O_14
REMARK                            x       y       z     vdW  Elec       q    Type
REMARK                         _______ _______ _______ _____ _____    ______ ____
ROOT
ATOM      1  C   UNL     1       9.017   9.840  18.773  0.00  0.00    +0.000 C 
ATOM      2  C   UNL     1       8.431   9.093  17.823  0.00  0.00    +0.000 C 
ENDROOT
BRANCH   2   3
ATOM      3  C   UNL     1       7.893   7.739  18.039  0.00  0.00    +0.000 A 
ATOM      4  C   UNL     1       8.317   6.916  19.092  0.00  0.00    +0.000 A 
ATOM      5  C   UNL     1       7.754   5.651  19.290  0.00  0.00    +0.000 A 
ATOM      6  C   UNL     1       6.747   5.201  18.438  0.00  0.00    +0.000 A 
ATOM      7  C   UNL     1       6.303   6.014  17.393  0.00  0.00    +0.000 A 
ATOM      8 BR   UNL     1       4.924   5.450  16.219  0.00  0.00    +0.000 Br
ATOM      9  C   UNL     1       6.870   7.278  17.197  0.00  0.00    +0.000 A 
BRANCH   6  10
ATOM     10  O   UNL     1       6.192   3.969  18.634  0.00  0.00    +0.000 OA
ATOM     11  H   UNL     1       5.466   4.041  19.274  0.00  0.00    +0.000 HD
ENDBRANCH   6  10
ENDBRANCH   2   3
BRANCH   1  16
ATOM     12  C   UNL     1       9.420  13.611  18.795  0.00  0.00    +0.000 A 
ATOM     13  C   UNL     1      10.575  13.772  18.037  0.00  0.00    +0.000 A 
ATOM     14  C   UNL     1      11.202  12.638  17.533  0.00  0.00    +0.000 A 
ATOM     15  C   UNL     1      10.693  11.364  17.784  0.00  0.00    +0.000 A 
ATOM     16  C   UNL     1       9.537  11.202  18.560  0.00  0.00    +0.000 A 
ATOM     17  C   UNL     1       8.895  12.345  19.053  0.00  0.00    +0.000 A 
BRANCH  12  18
ATOM     18  O   UNL     1       8.753  14.685  19.311  0.00  0.00    +0.000 OA
ATOM     19  H   UNL     1       7.853  14.414  19.553  0.00  0.00    +0.000 HD
ENDBRANCH  12  18
BRANCH  14  20
ATOM     20  O   UNL     1      12.332  12.726  16.776  0.00  0.00    +0.000 OA
ATOM     21  H   UNL     1      12.599  11.834  16.497  0.00  0.00    +0.000 HD
ENDBRANCH  14  20
ENDBRANCH   1  16
TORSDOF 5
ENDMDL
MODEL 4
REMARK VINA RESULT:      -7.1      2.863      7.563
REMARK  Name = 
REMARK  5 active torsions:
REMARK  status: ('A' for Active; 'I' for Inactive)
REMARK    1  A    between atoms: O_1  and  C_2
REMARK    2  A    between atoms: C_4  and  O_5
REMARK    3  A    between atoms: C_7  and  C_8
REMARK    4  A    between atoms: C_9  and  C_10
REMARK    5  A    between atoms: C_13  and  O_14
REMARK                            x       y       z     vdW  Elec       q    Type
REMARK                         _______ _______ _______ _____ _____    ______ ____
ROOT
ATOM      1  C   UNL     1       9.081   9.767  18.736  0.00  0.00    +0.000 C 
ATOM      2  C   UNL     1       8.365   9.086  17.825  0.00  0.00    +0.000 C 
ENDROOT
BRANCH   2   3
ATOM      3  C   UNL     1       7.856   7.718  18.017  0.00  0.00    +0.000 A 
ATOM      4  C   UNL     1       8.277   6.895  19.070  0.00  0.00    +0.000 A 
ATOM      5  C   UNL     1       7.740   5.615  19.243  0.00  0.00    +0.000 A 
ATOM      6  C   UNL     1       6.762   5.150  18.366  0.00  0.00    +0.000 A 
ATOM      7  C   UNL     1       6.321   5.963  17.321  0.00  0.00    +0.000 A 
ATOM      8 BR   UNL     1       4.981   5.379  16.111  0.00  0.00    +0.000 Br
ATOM      9  C   UNL     1       6.862   7.242  17.149  0.00  0.00    +0.000 A 
BRANCH   6  10
ATOM     10  O   UNL     1       6.233   3.903  18.539  0.00  0.00    +0.000 OA
ATOM     11  H   UNL     1       6.952   3.265  18.676  0.00  0.00    +0.000 HD
ENDBRANCH   6  10
ENDBRANCH   2   3
BRANCH   1  16
ATOM     12  C   UNL     1      11.015  12.790  17.510  0.00  0.00    +0.000 A 
ATOM     13  C   UNL     1      10.504  13.796  18.323  0.00  0.00    +0.000 A 
ATOM     14  C   UNL     1       9.532  13.463  19.260  0.00  0.00    +0.000 A 
ATOM     15  C   UNL     1       9.070  12.153  19.382  0.00  0.00    +0.000 A 
ATOM     16  C   UNL     1       9.574  11.143  18.552  0.00  0.00    +0.000 A 
ATOM     17  C   UNL     1      10.566  11.474  17.620  0.00  0.00    +0.000 A 
BRANCH  12  18
ATOM     18  O   UNL     1      11.977  13.051  16.577  0.00  0.00    +0.000 OA
ATOM     19  H   UNL     1      12.829  13.174  17.026  0.00  0.00    +0.000 HD
ENDBRANCH  12  18
BRANCH  14  20
ATOM     20  O   UNL     1       8.996  14.400  20.094  0.00  0.00    +0.000 OA
ATOM     21  H   UNL     1       9.688  15.034  20.346  0.00  0.00    +0.000 HD
ENDBRANCH  14  20
ENDBRANCH   1  16
TORSDOF 5
ENDMDL
MODEL 5
REMARK VINA RESULT:      -7.1      1.931      2.346
REMARK  Name = 
REMARK  5 active torsions:
REMARK  status: ('A' for Active; 'I' for Inactive)
REMARK    1  A    between atoms: O_1  and  C_2
REMARK    2  A    between atoms: C_4  and  O_5
REMARK    3  A    between atoms: C_7  and  C_8
REMARK    4  A    between atoms: C_9  and  C_10
REMARK    5  A    between atoms: C_13  and  O_14
REMARK                            x       y       z     vdW  Elec       q    Type
REMARK                         _______ _______ _______ _____ _____    ______ ____
ROOT
ATOM      1  C   UNL     1       8.177   9.022  17.572  0.00  0.00    +0.000 C 
ATOM      2  C   UNL     1       8.884   9.785  18.422  0.00  0.00    +0.000 C 
ENDROOT
BRANCH   2   3
ATOM      3  C   UNL     1       9.340  11.156  18.133  0.00  0.00    +0.000 A 
ATOM      4  C   UNL     1      10.663  11.454  17.782  0.00  0.00    +0.000 A 
ATOM      5  C   UNL     1      11.049  12.763  17.475  0.00  0.00    +0.000 A 
ATOM      6  C   UNL     1      10.105  13.788  17.506  0.00  0.00    +0.000 A 
ATOM      7  C   UNL     1       8.780  13.505  17.840  0.00  0.00    +0.000 A 
ATOM      8 BR   UNL     1       7.458  14.865  17.879  0.00  0.00    +0.000 Br
ATOM      9  C   UNL     1       8.398  12.195  18.148  0.00  0.00    +0.000 A 
BRANCH   6  10
ATOM     10  O   UNL     1      10.481  15.065  17.200  0.00  0.00    +0.000 OA
ATOM     11  H   UNL     1       9.696  15.580  16.950  0.00  0.00    +0.000 HD
ENDBRANCH   6  10
ENDBRANCH   2   3
BRANCH   1  16
ATOM     12  C   UNL     1       6.327   5.715  17.426  0.00  0.00    +0.000 A 
ATOM     13  C   UNL     1       6.813   5.075  18.561  0.00  0.00    +0.000 A 
ATOM     14  C   UNL     1       7.741   5.741  19.354  0.00  0.00    +0.000 A 
ATOM     15  C   UNL     1       8.184   7.020  19.021  0.00  0.00    +0.000 A 
ATOM     16  C   UNL     1       7.706   7.659  17.868  0.00  0.00    +0.000 A 
ATOM     17  C   UNL     1       6.758   6.996  17.080  0.00  0.00    +0.000 A 
BRANCH  12  18
ATOM     18  O   UNL     1       5.408   5.118  16.612  0.00  0.00    +0.000 OA
ATOM     19  H   UNL     1       4.892   4.480  17.131  0.00  0.00    +0.000 HD
ENDBRANCH  12  18
BRANCH  14  20
ATOM     20  O   UNL     1       8.250   5.172  20.484  0.00  0.00    +0.000 OA
ATOM     21  H   UNL     1       7.523   4.984  21.100  0.00  0.00    +0.000 HD
ENDBRANCH  14  20
ENDBRANCH   1  16
TORSDOF 5
ENDMDL
MODEL 6
REMARK VINA RESULT:      -7.0      2.688      7.688
REMARK  Name = 
REMARK  5 active torsions:
REMARK  status: ('A' for Active; 'I' for Inactive)
REMARK    1  A    between atoms: O_1  and  C_2
REMARK    2  A    between atoms: C_4  and  O_5
REMARK    3  A    between atoms: C_7  and  C_8
REMARK    4  A    between atoms: C_9  and  C_10
REMARK    5  A    between atoms: C_13  and  O_14
REMARK                            x       y       z     vdW  Elec       q    Type
REMARK                         _______ _______ _______ _____ _____    ______ ____
ROOT
ATOM      1  C   UNL     1       8.214   8.866  18.182  0.00  0.00    +0.000 C 
ATOM      2  C   UNL     1       8.344   7.607  18.633  0.00  0.00    +0.000 C 
ENDROOT
BRANCH   2   3
ATOM      3  C   UNL     1       7.500   6.477  18.209  0.00  0.00    +0.000 A 
ATOM      4  C   UNL     1       6.756   5.708  19.115  0.00  0.00    +0.000 A 
ATOM      5  C   UNL     1       5.934   4.667  18.671  0.00  0.00    +0.000 A 
ATOM      6  C   UNL     1       5.839   4.394  17.308  0.00  0.00    +0.000 A 
ATOM      7  C   UNL     1       6.562   5.159  16.391  0.00  0.00    +0.000 A 
ATOM      8 BR   UNL     1       6.452   4.834  14.526  0.00  0.00    +0.000 Br
ATOM      9  C   UNL     1       7.385   6.198  16.839  0.00  0.00    +0.000 A 
BRANCH   6  10
ATOM     10  O   UNL     1       5.031   3.382  16.873  0.00  0.00    +0.000 OA
ATOM     11  H   UNL     1       4.727   3.577  15.972  0.00  0.00    +0.000 HD
ENDBRANCH   6  10
ENDBRANCH   2   3
BRANCH   1  16
ATOM     12  C   UNL     1       9.998  11.497  20.249  0.00  0.00    +0.000 A 
ATOM     13  C   UNL     1      10.681  12.207  19.266  0.00  0.00    +0.000 A 
ATOM     14  C   UNL     1      10.544  11.807  17.942  0.00  0.00    +0.000 A 
ATOM     15  C   UNL     1       9.746  10.715  17.600  0.00  0.00    +0.000 A 
ATOM     16  C   UNL     1       9.070   9.992  18.592  0.00  0.00    +0.000 A 
ATOM     17  C   UNL     1       9.194  10.405  19.924  0.00  0.00    +0.000 A 
BRANCH  12  18
ATOM     18  O   UNL     1      10.084  11.846  21.566  0.00  0.00    +0.000 OA
ATOM     19  H   UNL     1       9.305  11.507  22.036  0.00  0.00    +0.000 HD
ENDBRANCH  12  18
BRANCH  14  20
ATOM     20  O   UNL     1      11.179  12.464  16.930  0.00  0.00    +0.000 OA
ATOM     21  H   UNL     1      10.992  13.415  17.002  0.00  0.00    +0.000 HD
ENDBRANCH  14  20
ENDBRANCH   1  16
TORSDOF 5
ENDMDL
MODEL 7
REMARK VINA RESULT:      -6.9      1.928      2.918
REMARK  Name = 
REMARK  5 active torsions:
REMARK  status: ('A' for Active; 'I' for Inactive)
REMARK    1  A    between atoms: O_1  and  C_2
REMARK    2  A    between atoms: C_4  and  O_5
REMARK    3  A    between atoms: C_7  and  C_8
REMARK    4  A    between atoms: C_9  and  C_10
REMARK    5  A    between atoms: C_13  and  O_14
REMARK                            x       y       z     vdW  Elec       q    Type
REMARK                         _______ _______ _______ _____ _____    ______ ____
ROOT
ATOM      1  C   UNL     1       8.264   9.163  17.634  0.00  0.00    +0.000 C 
ATOM      2  C   UNL     1       8.969   9.949  18.465  0.00  0.00    +0.000 C 
ENDROOT
BRANCH   2   3
ATOM      3  C   UNL     1       9.437  11.306  18.134  0.00  0.00    +0.000 A 
ATOM      4  C   UNL     1      10.745  11.569  17.702  0.00  0.00    +0.000 A 
ATOM      5  C   UNL     1      11.142  12.866  17.357  0.00  0.00    +0.000 A 
ATOM      6  C   UNL     1      10.225  13.912  17.431  0.00  0.00    +0.000 A 
ATOM      7  C   UNL     1       8.915  13.664  17.845  0.00  0.00    +0.000 A 
ATOM      8 BR   UNL     1       7.629  15.055  17.945  0.00  0.00    +0.000 Br
ATOM      9  C   UNL     1       8.522  12.367  18.191  0.00  0.00    +0.000 A 
BRANCH   6  10
ATOM     10  O   UNL     1      10.611  15.177  17.089  0.00  0.00    +0.000 OA
ATOM     11  H   UNL     1      10.302  15.376  16.190  0.00  0.00    +0.000 HD
ENDBRANCH   6  10
ENDBRANCH   2   3
BRANCH   1  16
ATOM     12  C   UNL     1       7.776   5.807  19.333  0.00  0.00    +0.000 A 
ATOM     13  C   UNL     1       6.841   5.206  18.497  0.00  0.00    +0.000 A 
ATOM     14  C   UNL     1       6.387   5.915  17.390  0.00  0.00    +0.000 A 
ATOM     15  C   UNL     1       6.849   7.202  17.122  0.00  0.00    +0.000 A 
ATOM     16  C   UNL     1       7.779   7.814  17.973  0.00  0.00    +0.000 A 
ATOM     17  C   UNL     1       8.251   7.094  19.078  0.00  0.00    +0.000 A 
BRANCH  12  18
ATOM     18  O   UNL     1       8.267   5.161  20.431  0.00  0.00    +0.000 OA
ATOM     19  H   UNL     1       7.834   4.296  20.509  0.00  0.00    +0.000 HD
ENDBRANCH  12  18
BRANCH  14  20
ATOM     20  O   UNL     1       5.477   5.379  16.526  0.00  0.00    +0.000 OA
ATOM     21  H   UNL     1       5.436   5.930  15.726  0.00  0.00    +0.000 HD
ENDBRANCH  14  20
ENDBRANCH   1  16
TORSDOF 5
ENDMDL
MODEL 8
REMARK VINA RESULT:      -6.9      6.056      7.367
REMARK  Name = 
REMARK  5 active torsions:
REMARK  status: ('A' for Active; 'I' for Inactive)
REMARK    1  A    between atoms: O_1  and  C_2
REMARK    2  A    between atoms: C_4  and  O_5
REMARK    3  A    between atoms: C_7  and  C_8
REMARK    4  A    between atoms: C_9  and  C_10
REMARK    5  A    between atoms: C_13  and  O_14
REMARK                            x       y       z     vdW  Elec       q    Type
REMARK                         _______ _______ _______ _____ _____    ______ ____
ROOT
ATOM      1  C   UNL     1       3.530   7.362  17.570  0.00  0.00    +0.000 C 
ATOM      2  C   UNL     1       2.665   7.285  18.595  0.00  0.00    +0.000 C 
ENDROOT
BRANCH   2   3
ATOM      3  C   UNL     1       1.780   8.381  19.025  0.00  0.00    +0.000 A 
ATOM      4  C   UNL     1       1.272   9.336  18.133  0.00  0.00    +0.000 A 
ATOM      5  C   UNL     1       0.401  10.340  18.572  0.00  0.00    +0.000 A 
ATOM      6  C   UNL     1       0.021  10.389  19.911  0.00  0.00    +0.000 A 
ATOM      7  C   UNL     1       0.506   9.437  20.809  0.00  0.00    +0.000 A 
ATOM      8 BR   UNL     1       0.003   9.455  22.638  0.00  0.00    +0.000 Br
ATOM      9  C   UNL     1       1.378   8.436  20.368  0.00  0.00    +0.000 A 
BRANCH   6  10
ATOM     10  O   UNL     1      -0.834  11.365  20.338  0.00  0.00    +0.000 OA
ATOM     11  H   UNL     1      -0.740  12.146  19.770  0.00  0.00    +0.000 HD
ENDBRANCH   6  10
ENDBRANCH   2   3
BRANCH   1  16
ATOM     12  C   UNL     1       6.310   5.374  15.927  0.00  0.00    +0.000 A 
ATOM     13  C   UNL     1       5.964   4.072  16.275  0.00  0.00    +0.000 A 
ATOM     14  C   UNL     1       4.824   3.871  17.045  0.00  0.00    +0.000 A 
ATOM     15  C   UNL     1       4.044   4.946  17.468  0.00  0.00    +0.000 A 
ATOM     16  C   UNL     1       4.401   6.258  17.129  0.00  0.00    +0.000 A 
ATOM     17  C   UNL     1       5.539   6.460  16.339  0.00  0.00    +0.000 A 
BRANCH  12  18
ATOM     18  O   UNL     1       7.413   5.636  15.166  0.00  0.00    +0.000 OA
ATOM     19  H   UNL     1       7.577   6.593  15.166  0.00  0.00    +0.000 HD
ENDBRANCH  12  18
BRANCH  14  20
ATOM     20  O   UNL     1       4.425   2.620  17.413  0.00  0.00    +0.000 OA
ATOM     21  H   UNL     1       3.522   2.466  17.089  0.00  0.00    +0.000 HD
ENDBRANCH  14  20
ENDBRANCH   1  16
TORSDOF 5
ENDMDL
MODEL 9
REMARK VINA RESULT:      -6.9      6.058      7.490
REMARK  Name = 
REMARK  5 active torsions:
REMARK  status: ('A' for Active; 'I' for Inactive)
REMARK    1  A    between atoms: O_1  and  C_2
REMARK    2  A    between atoms: C_4  and  O_5
REMARK    3  A    between atoms: C_7  and  C_8
REMARK    4  A    between atoms: C_9  and  C_10
REMARK    5  A    between atoms: C_13  and  O_14
REMARK                            x       y       z     vdW  Elec       q    Type
REMARK                         _______ _______ _______ _____ _____    ______ ____
ROOT
ATOM      1  C   UNL     1       3.534   7.330  17.606  0.00  0.00    +0.000 C 
ATOM      2  C   UNL     1       2.617   7.271  18.586  0.00  0.00    +0.000 C 
ENDROOT
BRANCH   2   3
ATOM      3  C   UNL     1       1.802   8.412  19.036  0.00  0.00    +0.000 A 
ATOM      4  C   UNL     1       1.380   9.429  18.167  0.00  0.00    +0.000 A 
ATOM      5  C   UNL     1       0.572  10.476  18.623  0.00  0.00    +0.000 A 
ATOM      6  C   UNL     1       0.167  10.508  19.956  0.00  0.00    +0.000 A 
ATOM      7  C   UNL     1       0.566   9.496  20.830  0.00  0.00    +0.000 A 
ATOM      8 BR   UNL     1       0.027   9.489  22.649  0.00  0.00    +0.000 Br
ATOM      9  C   UNL     1       1.376   8.451  20.372  0.00  0.00    +0.000 A 
BRANCH   6  10
ATOM     10  O   UNL     1      -0.626  11.527  20.400  0.00  0.00    +0.000 OA
ATOM     11  H   UNL     1      -0.649  11.518  21.370  0.00  0.00    +0.000 HD
ENDBRANCH   6  10
ENDBRANCH   2   3
BRANCH   1  16
ATOM     12  C   UNL     1       4.834   3.815  17.026  0.00  0.00    +0.000 A 
ATOM     13  C   UNL     1       5.976   4.061  16.271  0.00  0.00    +0.000 A 
ATOM     14  C   UNL     1       6.298   5.379  15.965  0.00  0.00    +0.000 A 
ATOM     15  C   UNL     1       5.495   6.434  16.396  0.00  0.00    +0.000 A 
ATOM     16  C   UNL     1       4.336   6.184  17.144  0.00  0.00    +0.000 A 
ATOM     17  C   UNL     1       4.021   4.858  17.468  0.00  0.00    +0.000 A 
BRANCH  12  18
ATOM     18  O   UNL     1       4.468   2.544  17.367  0.00  0.00    +0.000 OA
ATOM     19  H   UNL     1       4.748   1.934  16.665  0.00  0.00    +0.000 HD
ENDBRANCH  12  18
BRANCH  14  20
ATOM     20  O   UNL     1       7.408   5.690  15.236  0.00  0.00    +0.000 OA
ATOM     21  H   UNL     1       7.375   6.630  14.992  0.00  0.00    +0.000 HD
ENDBRANCH  14  20
ENDBRANCH   1  16
TORSDOF 5
ENDMDL
