MODEL 1
REMARK VINA RESULT:      -7.8      0.000      0.000
REMARK  Name = 
REMARK  12 active torsions:
REMARK  status: ('A' for Active; 'I' for Inactive)
REMARK    1  A    between atoms: C_1  and  C_2
REMARK    2  A    between atoms: C_2  and  C_3
REMARK    3  A    between atoms: C_3  and  C_4
REMARK    4  A    between atoms: C_4  and  C_5
REMARK    5  A    between atoms: C_5  and  C_6
REMARK    6  A    between atoms: C_6  and  C_7
REMARK    7  A    between atoms: C_7  and  C_8
REMARK    8  A    between atoms: C_8  and  N_9
REMARK    9  A    between atoms: C_10  and  O_12
REMARK   10  A    between atoms: O_12  and  C_13
REMARK   11  A    between atoms: N_22  and  C_23
REMARK   12  A    between atoms: C_23  and  C_24
REMARK                            x       y       z     vdW  Elec       q    Type
REMARK                         _______ _______ _______ _____ _____    ______ ____
ROOT
ATOM      1  C   UNL     1       3.254   6.636  18.284  0.00  0.00    +0.000 A 
ATOM      2  C   UNL     1       3.156   7.744  17.452  0.00  0.00    +0.000 A 
ATOM      3  C   UNL     1       2.431   8.861  17.864  0.00  0.00    +0.000 A 
ATOM      4  C   UNL     1       1.754   8.897  19.093  0.00  0.00    +0.000 A 
ATOM      5  C   UNL     1       1.820   7.748  19.911  0.00  0.00    +0.000 A 
ATOM      6  C   UNL     1       2.567   6.623  19.499  0.00  0.00    +0.000 A 
ATOM      7  C   UNL     1       1.114   7.716  21.251  0.00  0.00    +0.000 C 
ATOM      8  C   UNL     1       0.151   8.877  21.458  0.00  0.00    +0.000 C 
ATOM      9  C   UNL     1       0.754  10.161  20.926  0.00  0.00    +0.000 C 
ATOM     10  N   UNL     1       1.035  10.020  19.496  0.00  0.00    +0.000 N 
ENDROOT
BRANCH   1  11
ATOM     11  O   UNL     1       3.962   5.485  17.870  0.00  0.00    +0.000 OA
BRANCH  11  13
ATOM     12  N   UNL     1       6.198   5.915  18.112  0.00  0.00    +0.000 N 
ATOM     13  C   UNL     1       5.188   5.664  17.234  0.00  0.00    +0.000 C 
ATOM     14  O   UNL     1       5.368   5.600  16.004  0.00  0.00    +0.000 OA
ATOM     15  H   UNL     1       6.068   5.691  19.092  0.00  0.00    +0.000 HD
BRANCH  12  16
ATOM     16  C   UNL     1       7.448   6.483  17.642  0.00  0.00    +0.000 C 
BRANCH  16  17
ATOM     17  C   UNL     1       7.367   8.002  17.505  0.00  0.00    +0.000 C 
BRANCH  17  18
ATOM     18  C   UNL     1       8.460   8.681  18.330  0.00  0.00    +0.000 C 
BRANCH  18  19
ATOM     19  C   UNL     1       8.347  10.199  18.237  0.00  0.00    +0.000 C 
BRANCH  19  20
ATOM     20  C   UNL     1       9.726  10.846  18.253  0.00  0.00    +0.000 C 
BRANCH  20  21
ATOM     21  C   UNL     1       9.763  11.994  19.255  0.00  0.00    +0.000 C 
BRANCH  21  23
ATOM     22  C   UNL     1      12.237  11.662  19.394  0.00  0.00    +0.000 C 
ATOM     23  C   UNL     1      10.959  11.859  20.189  0.00  0.00    +0.000 C 
ENDBRANCH  21  23
ENDBRANCH  20  21
ENDBRANCH  19  20
ENDBRANCH  18  19
ENDBRANCH  17  18
ENDBRANCH  16  17
ENDBRANCH  12  16
ENDBRANCH  11  13
ENDBRANCH   1  11
BRANCH  10  24
ATOM     24  C   UNL     1       0.481  10.940  18.490  0.00  0.00    +0.000 C 
BRANCH  24  25
ATOM     25  C   UNL     1      -1.033  10.917  18.398  0.00  0.00    +0.000 A 
ATOM     26  C   UNL     1      -1.656   9.923  17.621  0.00  0.00    +0.000 A 
ATOM     27  C   UNL     1      -3.029   9.922  17.420  0.00  0.00    +0.000 A 
ATOM     28  C   UNL     1      -3.809  10.890  18.040  0.00  0.00    +0.000 A 
ATOM     29 CL   UNL     1      -5.511  10.889  17.789  0.00  0.00    +0.000 Cl
ATOM     30  C   UNL     1      -3.229  11.860  18.853  0.00  0.00    +0.000 A 
ATOM     31  C   UNL     1      -1.843  11.875  19.034  0.00  0.00    +0.000 A 
ATOM     32 CL   UNL     1      -1.189  13.132  20.024  0.00  0.00    +0.000 Cl
ENDBRANCH  24  25
ENDBRANCH  10  24
TORSDOF 11
ENDMDL
MODEL 2
REMARK VINA RESULT:      -7.6      1.032      1.245
REMARK  Name = 
REMARK  12 active torsions:
REMARK  status: ('A' for Active; 'I' for Inactive)
REMARK    1  A    between atoms: C_1  and  C_2
REMARK    2  A    between atoms: C_2  and  C_3
REMARK    3  A    between atoms: C_3  and  C_4
REMARK    4  A    between atoms: C_4  and  C_5
REMARK    5  A    between atoms: C_5  and  C_6
REMARK    6  A    between atoms: C_6  and  C_7
REMARK    7  A    between atoms: C_7  and  C_8
REMARK    8  A    between atoms: C_8  and  N_9
REMARK    9  A    between atoms: C_10  and  O_12
REMARK   10  A    between atoms: O_12  and  C_13
REMARK   11  A    between atoms: N_22  and  C_23
REMARK   12  A    between atoms: C_23  and  C_24
REMARK                            x       y       z     vdW  Elec       q    Type
REMARK                         _______ _______ _______ _____ _____    ______ ____
ROOT
ATOM      1  C   UNL     1       2.488   6.636  19.212  0.00  0.00    +0.000 A 
ATOM      2  C   UNL     1       2.417   7.518  18.141  0.00  0.00    +0.000 A 
ATOM      3  C   UNL     1       1.874   8.789  18.321  0.00  0.00    +0.000 A 
ATOM      4  C   UNL     1       1.355   9.208  19.556  0.00  0.00    +0.000 A 
ATOM      5  C   UNL     1       1.389   8.289  20.626  0.00  0.00    +0.000 A 
ATOM      6  C   UNL     1       1.952   7.007  20.446  0.00  0.00    +0.000 A 
ATOM      7  C   UNL     1       0.848   8.673  21.988  0.00  0.00    +0.000 C 
ATOM      8  C   UNL     1       0.051   9.971  21.981  0.00  0.00    +0.000 C 
ATOM      9  C   UNL     1       0.726  10.997  21.093  0.00  0.00    +0.000 C 
ATOM     10  N   UNL     1       0.819  10.483  19.726  0.00  0.00    +0.000 N 
ENDROOT
BRANCH   1  11
ATOM     11  O   UNL     1       3.010   5.334  19.040  0.00  0.00    +0.000 OA
BRANCH  11  13
ATOM     12  N   UNL     1       5.285   5.532  18.882  0.00  0.00    +0.000 N 
ATOM     13  C   UNL     1       4.138   5.182  18.238  0.00  0.00    +0.000 C 
ATOM     14  O   UNL     1       4.127   4.767  17.065  0.00  0.00    +0.000 OA
ATOM     15  H   UNL     1       5.284   5.599  19.893  0.00  0.00    +0.000 HD
BRANCH  12  16
ATOM     16  C   UNL     1       6.496   5.793  18.125  0.00  0.00    +0.000 C 
BRANCH  16  17
ATOM     17  C   UNL     1       6.511   7.205  17.545  0.00  0.00    +0.000 C 
BRANCH  17  18
ATOM     18  C   UNL     1       7.924   7.788  17.568  0.00  0.00    +0.000 C 
BRANCH  18  19
ATOM     19  C   UNL     1       7.886   9.299  17.766  0.00  0.00    +0.000 C 
BRANCH  19  20
ATOM     20  C   UNL     1       8.918   9.736  18.797  0.00  0.00    +0.000 C 
BRANCH  20  21
ATOM     21  C   UNL     1       9.807  10.835  18.228  0.00  0.00    +0.000 C 
BRANCH  21  23
ATOM     22  C   UNL     1       9.133  12.581  19.885  0.00  0.00    +0.000 C 
ATOM     23  C   UNL     1       9.164  12.204  18.416  0.00  0.00    +0.000 C 
ENDBRANCH  21  23
ENDBRANCH  20  21
ENDBRANCH  19  20
ENDBRANCH  18  19
ENDBRANCH  17  18
ENDBRANCH  16  17
ENDBRANCH  12  16
ENDBRANCH  11  13
ENDBRANCH   1  11
BRANCH  10  24
ATOM     24  C   UNL     1       0.256  11.204  18.573  0.00  0.00    +0.000 C 
BRANCH  24  25
ATOM     25  C   UNL     1      -1.255  11.122  18.469  0.00  0.00    +0.000 A 
ATOM     26  C   UNL     1      -1.833  10.070  17.734  0.00  0.00    +0.000 A 
ATOM     27  C   UNL     1      -3.203  10.010  17.521  0.00  0.00    +0.000 A 
ATOM     28  C   UNL     1      -4.025  10.976  18.090  0.00  0.00    +0.000 A 
ATOM     29 CL   UNL     1      -5.722  10.901  17.825  0.00  0.00    +0.000 Cl
ATOM     30  C   UNL     1      -3.489  12.002  18.862  0.00  0.00    +0.000 A 
ATOM     31  C   UNL     1      -2.106  12.077  19.054  0.00  0.00    +0.000 A 
ATOM     32 CL   UNL     1      -1.508  13.401  19.990  0.00  0.00    +0.000 Cl
ENDBRANCH  24  25
ENDBRANCH  10  24
TORSDOF 11
ENDMDL
MODEL 3
REMARK VINA RESULT:      -7.6      1.938      3.156
REMARK  Name = 
REMARK  12 active torsions:
REMARK  status: ('A' for Active; 'I' for Inactive)
REMARK    1  A    between atoms: C_1  and  C_2
REMARK    2  A    between atoms: C_2  and  C_3
REMARK    3  A    between atoms: C_3  and  C_4
REMARK    4  A    between atoms: C_4  and  C_5
REMARK    5  A    between atoms: C_5  and  C_6
REMARK    6  A    between atoms: C_6  and  C_7
REMARK    7  A    between atoms: C_7  and  C_8
REMARK    8  A    between atoms: C_8  and  N_9
REMARK    9  A    between atoms: C_10  and  O_12
REMARK   10  A    between atoms: O_12  and  C_13
REMARK   11  A    between atoms: N_22  and  C_23
REMARK   12  A    between atoms: C_23  and  C_24
REMARK                            x       y       z     vdW  Elec       q    Type
REMARK                         _______ _______ _______ _____ _____    ______ ____
ROOT
ATOM      1  C   UNL     1       2.958   6.801  18.428  0.00  0.00    +0.000 A 
ATOM      2  C   UNL     1       2.808   7.887  17.575  0.00  0.00    +0.000 A 
ATOM      3  C   UNL     1       2.144   9.030  18.015  0.00  0.00    +0.000 A 
ATOM      4  C   UNL     1       1.577   9.115  19.297  0.00  0.00    +0.000 A 
ATOM      5  C   UNL     1       1.693   7.989  20.139  0.00  0.00    +0.000 A 
ATOM      6  C   UNL     1       2.380   6.837  19.697  0.00  0.00    +0.000 A 
ATOM      7  C   UNL     1       1.107   8.009  21.536  0.00  0.00    +0.000 C 
ATOM      8  C   UNL     1       0.188   9.196  21.792  0.00  0.00    +0.000 C 
ATOM      9  C   UNL     1       0.766  10.451  21.171  0.00  0.00    +0.000 C 
ATOM     10  N   UNL     1       0.918  10.265  19.727  0.00  0.00    +0.000 N 
ENDROOT
BRANCH   1  11
ATOM     11  O   UNL     1       3.605   5.624  17.988  0.00  0.00    +0.000 OA
BRANCH  11  13
ATOM     12  N   UNL     1       5.812   6.192  18.204  0.00  0.00    +0.000 N 
ATOM     13  C   UNL     1       4.838   5.306  18.551  0.00  0.00    +0.000 C 
ATOM     14  O   UNL     1       5.051   4.332  19.296  0.00  0.00    +0.000 OA
ATOM     15  H   UNL     1       5.548   7.097  17.833  0.00  0.00    +0.000 HD
BRANCH  12  16
ATOM     16  C   UNL     1       7.211   5.843  18.378  0.00  0.00    +0.000 C 
BRANCH  16  17
ATOM     17  C   UNL     1       8.097   7.081  18.489  0.00  0.00    +0.000 C 
BRANCH  17  18
ATOM     18  C   UNL     1       7.634   8.170  17.521  0.00  0.00    +0.000 C 
BRANCH  18  19
ATOM     19  C   UNL     1       8.350   9.487  17.801  0.00  0.00    +0.000 C 
BRANCH  19  20
ATOM     20  C   UNL     1       9.017   9.461  19.170  0.00  0.00    +0.000 C 
BRANCH  20  21
ATOM     21  C   UNL     1       9.722  10.783  19.444  0.00  0.00    +0.000 C 
BRANCH  21  23
ATOM     22  C   UNL     1      11.647  11.695  18.136  0.00  0.00    +0.000 C 
ATOM     23  C   UNL     1      10.150  11.449  18.141  0.00  0.00    +0.000 C 
ENDBRANCH  21  23
ENDBRANCH  20  21
ENDBRANCH  19  20
ENDBRANCH  18  19
ENDBRANCH  17  18
ENDBRANCH  16  17
ENDBRANCH  12  16
ENDBRANCH  11  13
ENDBRANCH   1  11
BRANCH  10  24
ATOM     24  C   UNL     1       0.296  11.167  18.746  0.00  0.00    +0.000 C 
BRANCH  24  25
ATOM     25  C   UNL     1       0.914  12.553  18.701  0.00  0.00    +0.000 A 
ATOM     26  C   UNL     1       2.218  12.702  18.196  0.00  0.00    +0.000 A 
ATOM     27  C   UNL     1       2.867  13.929  18.231  0.00  0.00    +0.000 A 
ATOM     28  C   UNL     1       2.195  15.041  18.725  0.00  0.00    +0.000 A 
ATOM     29 CL   UNL     1       3.000  16.560  18.769  0.00  0.00    +0.000 Cl
ATOM     30  C   UNL     1       0.887  14.936  19.189  0.00  0.00    +0.000 A 
ATOM     31  C   UNL     1       0.245  13.694  19.177  0.00  0.00    +0.000 A 
ATOM     32 CL   UNL     1      -1.364  13.631  19.806  0.00  0.00    +0.000 Cl
ENDBRANCH  24  25
ENDBRANCH  10  24
TORSDOF 11
ENDMDL
MODEL 4
REMARK VINA RESULT:      -7.5      3.592      5.393
REMARK  Name = 
REMARK  12 active torsions:
REMARK  status: ('A' for Active; 'I' for Inactive)
REMARK    1  A    between atoms: C_1  and  C_2
REMARK    2  A    between atoms: C_2  and  C_3
REMARK    3  A    between atoms: C_3  and  C_4
REMARK    4  A    between atoms: C_4  and  C_5
REMARK    5  A    between atoms: C_5  and  C_6
REMARK    6  A    between atoms: C_6  and  C_7
REMARK    7  A    between atoms: C_7  and  C_8
REMARK    8  A    between atoms: C_8  and  N_9
REMARK    9  A    between atoms: C_10  and  O_12
REMARK   10  A    between atoms: O_12  and  C_13
REMARK   11  A    between atoms: N_22  and  C_23
REMARK   12  A    between atoms: C_23  and  C_24
REMARK                            x       y       z     vdW  Elec       q    Type
REMARK                         _______ _______ _______ _____ _____    ______ ____
ROOT
ATOM      1  C   UNL     1       3.522   5.545  19.046  0.00  0.00    +0.000 A 
ATOM      2  C   UNL     1       3.575   6.461  18.003  0.00  0.00    +0.000 A 
ATOM      3  C   UNL     1       2.861   7.655  18.088  0.00  0.00    +0.000 A 
ATOM      4  C   UNL     1       2.046   7.957  19.190  0.00  0.00    +0.000 A 
ATOM      5  C   UNL     1       1.961   7.000  20.223  0.00  0.00    +0.000 A 
ATOM      6  C   UNL     1       2.696   5.798  20.143  0.00  0.00    +0.000 A 
ATOM      7  C   UNL     1       1.101   7.259  21.444  0.00  0.00    +0.000 C 
ATOM      8  C   UNL     1       0.176   8.459  21.292  0.00  0.00    +0.000 C 
ATOM      9  C   UNL     1       0.898   9.593  20.592  0.00  0.00    +0.000 C 
ATOM     10  N   UNL     1       1.338   9.155  19.266  0.00  0.00    +0.000 N 
ENDROOT
BRANCH   1  11
ATOM     11  O   UNL     1       4.218   4.318  18.963  0.00  0.00    +0.000 OA
BRANCH  11  13
ATOM     12  N   UNL     1       6.219   4.293  17.850  0.00  0.00    +0.000 N 
ATOM     13  C   UNL     1       4.886   4.024  17.777  0.00  0.00    +0.000 C 
ATOM     14  O   UNL     1       4.350   3.559  16.755  0.00  0.00    +0.000 OA
ATOM     15  H   UNL     1       6.652   4.406  18.759  0.00  0.00    +0.000 HD
BRANCH  12  16
ATOM     16  C   UNL     1       7.008   4.404  16.636  0.00  0.00    +0.000 C 
BRANCH  16  17
ATOM     17  C   UNL     1       6.258   5.152  15.537  0.00  0.00    +0.000 C 
BRANCH  17  18
ATOM     18  C   UNL     1       6.811   4.790  14.159  0.00  0.00    +0.000 C 
BRANCH  18  19
ATOM     19  C   UNL     1       5.846   3.879  13.407  0.00  0.00    +0.000 C 
BRANCH  19  20
ATOM     20  C   UNL     1       6.503   3.310  12.156  0.00  0.00    +0.000 C 
BRANCH  20  21
ATOM     21  C   UNL     1       5.704   2.124  11.628  0.00  0.00    +0.000 C 
BRANCH  21  23
ATOM     22  C   UNL     1       6.077  -0.321  11.267  0.00  0.00    +0.000 C 
ATOM     23  C   UNL     1       6.628   1.072  11.027  0.00  0.00    +0.000 C 
ENDBRANCH  21  23
ENDBRANCH  20  21
ENDBRANCH  19  20
ENDBRANCH  18  19
ENDBRANCH  17  18
ENDBRANCH  16  17
ENDBRANCH  12  16
ENDBRANCH  11  13
ENDBRANCH   1  11
BRANCH  10  24
ATOM     24  C   UNL     1       0.952   9.861  18.035  0.00  0.00    +0.000 C 
BRANCH  24  25
ATOM     25  C   UNL     1      -0.484  10.353  18.028  0.00  0.00    +0.000 A 
ATOM     26  C   UNL     1      -1.495   9.500  17.550  0.00  0.00    +0.000 A 
ATOM     27  C   UNL     1      -2.806   9.939  17.424  0.00  0.00    +0.000 A 
ATOM     28  C   UNL     1      -3.136  11.227  17.830  0.00  0.00    +0.000 A 
ATOM     29 CL   UNL     1      -4.760  11.770  17.673  0.00  0.00    +0.000 Cl
ATOM     30  C   UNL     1      -2.167  12.080  18.351  0.00  0.00    +0.000 A 
ATOM     31  C   UNL     1      -0.842  11.645  18.453  0.00  0.00    +0.000 A 
ATOM     32 CL   UNL     1       0.314  12.771  19.071  0.00  0.00    +0.000 Cl
ENDBRANCH  24  25
ENDBRANCH  10  24
TORSDOF 11
ENDMDL
MODEL 5
REMARK VINA RESULT:      -7.4      1.253      1.645
REMARK  Name = 
REMARK  12 active torsions:
REMARK  status: ('A' for Active; 'I' for Inactive)
REMARK    1  A    between atoms: C_1  and  C_2
REMARK    2  A    between atoms: C_2  and  C_3
REMARK    3  A    between atoms: C_3  and  C_4
REMARK    4  A    between atoms: C_4  and  C_5
REMARK    5  A    between atoms: C_5  and  C_6
REMARK    6  A    between atoms: C_6  and  C_7
REMARK    7  A    between atoms: C_7  and  C_8
REMARK    8  A    between atoms: C_8  and  N_9
REMARK    9  A    between atoms: C_10  and  O_12
REMARK   10  A    between atoms: O_12  and  C_13
REMARK   11  A    between atoms: N_22  and  C_23
REMARK   12  A    between atoms: C_23  and  C_24
REMARK                            x       y       z     vdW  Elec       q    Type
REMARK                         _______ _______ _______ _____ _____    ______ ____
ROOT
ATOM      1  C   UNL     1       2.291   7.049  18.867  0.00  0.00    +0.000 A 
ATOM      2  C   UNL     1       2.134   8.003  17.869  0.00  0.00    +0.000 A 
ATOM      3  C   UNL     1       1.591   9.249  18.176  0.00  0.00    +0.000 A 
ATOM      4  C   UNL     1       1.153   9.572  19.471  0.00  0.00    +0.000 A 
ATOM      5  C   UNL     1       1.273   8.580  20.468  0.00  0.00    +0.000 A 
ATOM      6  C   UNL     1       1.837   7.323  20.158  0.00  0.00    +0.000 A 
ATOM      7  C   UNL     1       0.822   8.858  21.887  0.00  0.00    +0.000 C 
ATOM      8  C   UNL     1       0.012  10.140  22.027  0.00  0.00    +0.000 C 
ATOM      9  C   UNL     1       0.611  11.236  21.172  0.00  0.00    +0.000 C 
ATOM     10  N   UNL     1       0.615  10.822  19.767  0.00  0.00    +0.000 N 
ENDROOT
BRANCH   1  11
ATOM     11  O   UNL     1       2.814   5.771  18.567  0.00  0.00    +0.000 OA
BRANCH  11  13
ATOM     12  N   UNL     1       4.800   5.356  17.506  0.00  0.00    +0.000 N 
ATOM     13  C   UNL     1       4.187   5.579  18.701  0.00  0.00    +0.000 C 
ATOM     14  O   UNL     1       4.809   5.611  19.778  0.00  0.00    +0.000 OA
ATOM     15  H   UNL     1       4.319   5.604  16.649  0.00  0.00    +0.000 HD
BRANCH  12  16
ATOM     16  C   UNL     1       6.131   4.779  17.466  0.00  0.00    +0.000 C 
BRANCH  16  17
ATOM     17  C   UNL     1       7.153   5.744  16.869  0.00  0.00    +0.000 C 
BRANCH  17  18
ATOM     18  C   UNL     1       7.562   6.803  17.892  0.00  0.00    +0.000 C 
BRANCH  18  19
ATOM     19  C   UNL     1       8.139   8.033  17.200  0.00  0.00    +0.000 C 
BRANCH  19  20
ATOM     20  C   UNL     1       7.890   9.287  18.029  0.00  0.00    +0.000 C 
BRANCH  20  21
ATOM     21  C   UNL     1       9.037   9.516  19.005  0.00  0.00    +0.000 C 
BRANCH  21  23
ATOM     22  C   UNL     1      10.202  11.416  17.874  0.00  0.00    +0.000 C 
ATOM     23  C   UNL     1       9.393  10.995  19.087  0.00  0.00    +0.000 C 
ENDBRANCH  21  23
ENDBRANCH  20  21
ENDBRANCH  19  20
ENDBRANCH  18  19
ENDBRANCH  17  18
ENDBRANCH  16  17
ENDBRANCH  12  16
ENDBRANCH  11  13
ENDBRANCH   1  11
BRANCH  10  24
ATOM     24  C   UNL     1      -0.035  11.613  18.711  0.00  0.00    +0.000 C 
BRANCH  24  25
ATOM     25  C   UNL     1      -1.535  11.404  18.615  0.00  0.00    +0.000 A 
ATOM     26  C   UNL     1      -2.029  10.359  17.812  0.00  0.00    +0.000 A 
ATOM     27  C   UNL     1      -3.392  10.192  17.608  0.00  0.00    +0.000 A 
ATOM     28  C   UNL     1      -4.286  11.039  18.251  0.00  0.00    +0.000 A 
ATOM     29 CL   UNL     1      -5.974  10.832  17.996  0.00  0.00    +0.000 Cl
ATOM     30  C   UNL     1      -3.831  12.053  19.089  0.00  0.00    +0.000 A 
ATOM     31  C   UNL     1      -2.457  12.236  19.273  0.00  0.00    +0.000 A 
ATOM     32 CL   UNL     1      -1.964  13.540  20.295  0.00  0.00    +0.000 Cl
ENDBRANCH  24  25
ENDBRANCH  10  24
TORSDOF 11
ENDMDL
MODEL 6
REMARK VINA RESULT:      -7.4      1.233      1.578
REMARK  Name = 
REMARK  12 active torsions:
REMARK  status: ('A' for Active; 'I' for Inactive)
REMARK    1  A    between atoms: C_1  and  C_2
REMARK    2  A    between atoms: C_2  and  C_3
REMARK    3  A    between atoms: C_3  and  C_4
REMARK    4  A    between atoms: C_4  and  C_5
REMARK    5  A    between atoms: C_5  and  C_6
REMARK    6  A    between atoms: C_6  and  C_7
REMARK    7  A    between atoms: C_7  and  C_8
REMARK    8  A    between atoms: C_8  and  N_9
REMARK    9  A    between atoms: C_10  and  O_12
REMARK   10  A    between atoms: O_12  and  C_13
REMARK   11  A    between atoms: N_22  and  C_23
REMARK   12  A    between atoms: C_23  and  C_24
REMARK                            x       y       z     vdW  Elec       q    Type
REMARK                         _______ _______ _______ _____ _____    ______ ____
ROOT
ATOM      1  C   UNL     1       3.423   5.234  17.854  0.00  0.00    +0.000 A 
ATOM      2  C   UNL     1       3.552   6.400  17.111  0.00  0.00    +0.000 A 
ATOM      3  C   UNL     1       3.035   7.598  17.601  0.00  0.00    +0.000 A 
ATOM      4  C   UNL     1       2.344   7.666  18.821  0.00  0.00    +0.000 A 
ATOM      5  C   UNL     1       2.176   6.467  19.546  0.00  0.00    +0.000 A 
ATOM      6  C   UNL     1       2.713   5.257  19.056  0.00  0.00    +0.000 A 
ATOM      7  C   UNL     1       1.442   6.465  20.871  0.00  0.00    +0.000 C 
ATOM      8  C   UNL     1       0.703   7.766  21.159  0.00  0.00    +0.000 C 
ATOM      9  C   UNL     1       1.546   8.952  20.736  0.00  0.00    +0.000 C 
ATOM     10  N   UNL     1       1.833   8.870  19.303  0.00  0.00    +0.000 N 
ENDROOT
BRANCH   1  11
ATOM     11  O   UNL     1       3.917   4.006  17.359  0.00  0.00    +0.000 OA
BRANCH  11  13
ATOM     12  N   UNL     1       6.154   4.271  17.770  0.00  0.00    +0.000 N 
ATOM     13  C   UNL     1       5.207   3.984  16.834  0.00  0.00    +0.000 C 
ATOM     14  O   UNL     1       5.491   3.726  15.651  0.00  0.00    +0.000 OA
ATOM     15  H   UNL     1       5.915   4.205  18.752  0.00  0.00    +0.000 HD
BRANCH  12  16
ATOM     16  C   UNL     1       7.493   4.655  17.359  0.00  0.00    +0.000 C 
BRANCH  16  17
ATOM     17  C   UNL     1       7.553   6.111  16.907  0.00  0.00    +0.000 C 
BRANCH  17  18
ATOM     18  C   UNL     1       7.460   7.057  18.103  0.00  0.00    +0.000 C 
BRANCH  18  19
ATOM     19  C   UNL     1       7.806   8.485  17.697  0.00  0.00    +0.000 C 
BRANCH  19  20
ATOM     20  C   UNL     1       8.760   9.118  18.702  0.00  0.00    +0.000 C 
BRANCH  20  21
ATOM     21  C   UNL     1       9.135  10.529  18.264  0.00  0.00    +0.000 C 
BRANCH  21  23
ATOM     22  C   UNL     1      11.114  11.991  18.701  0.00  0.00    +0.000 C 
ATOM     23  C   UNL     1       9.968  11.224  19.334  0.00  0.00    +0.000 C 
ENDBRANCH  21  23
ENDBRANCH  20  21
ENDBRANCH  19  20
ENDBRANCH  18  19
ENDBRANCH  17  18
ENDBRANCH  16  17
ENDBRANCH  12  16
ENDBRANCH  11  13
ENDBRANCH   1  11
BRANCH  10  24
ATOM     24  C   UNL     1       1.485   9.949  18.366  0.00  0.00    +0.000 C 
BRANCH  24  25
ATOM     25  C   UNL     1       0.048  10.423  18.475  0.00  0.00    +0.000 A 
ATOM     26  C   UNL     1      -0.952   9.742  17.755  0.00  0.00    +0.000 A 
ATOM     27  C   UNL     1      -2.262  10.199  17.737  0.00  0.00    +0.000 A 
ATOM     28  C   UNL     1      -2.605  11.318  18.487  0.00  0.00    +0.000 A 
ATOM     29 CL   UNL     1      -4.228  11.884  18.463  0.00  0.00    +0.000 Cl
ATOM     30  C   UNL     1      -1.649  11.986  19.247  0.00  0.00    +0.000 A 
ATOM     31  C   UNL     1      -0.324  11.540  19.243  0.00  0.00    +0.000 A 
ATOM     32 CL   UNL     1       0.816  12.443  20.178  0.00  0.00    +0.000 Cl
ENDBRANCH  24  25
ENDBRANCH  10  24
TORSDOF 11
ENDMDL
MODEL 7
REMARK VINA RESULT:      -7.4      3.222      4.667
REMARK  Name = 
REMARK  12 active torsions:
REMARK  status: ('A' for Active; 'I' for Inactive)
REMARK    1  A    between atoms: C_1  and  C_2
REMARK    2  A    between atoms: C_2  and  C_3
REMARK    3  A    between atoms: C_3  and  C_4
REMARK    4  A    between atoms: C_4  and  C_5
REMARK    5  A    between atoms: C_5  and  C_6
REMARK    6  A    between atoms: C_6  and  C_7
REMARK    7  A    between atoms: C_7  and  C_8
REMARK    8  A    between atoms: C_8  and  N_9
REMARK    9  A    between atoms: C_10  and  O_12
REMARK   10  A    between atoms: O_12  and  C_13
REMARK   11  A    between atoms: N_22  and  C_23
REMARK   12  A    between atoms: C_23  and  C_24
REMARK                            x       y       z     vdW  Elec       q    Type
REMARK                         _______ _______ _______ _____ _____    ______ ____
ROOT
ATOM      1  C   UNL     1       2.364   6.922  18.893  0.00  0.00    +0.000 A 
ATOM      2  C   UNL     1       2.241   7.881  17.896  0.00  0.00    +0.000 A 
ATOM      3  C   UNL     1       1.700   9.130  18.195  0.00  0.00    +0.000 A 
ATOM      4  C   UNL     1       1.235   9.451  19.480  0.00  0.00    +0.000 A 
ATOM      5  C   UNL     1       1.321   8.454  20.475  0.00  0.00    +0.000 A 
ATOM      6  C   UNL     1       1.881   7.194  20.174  0.00  0.00    +0.000 A 
ATOM      7  C   UNL     1       0.838   8.730  21.884  0.00  0.00    +0.000 C 
ATOM      8  C   UNL     1       0.036  10.018  22.011  0.00  0.00    +0.000 C 
ATOM      9  C   UNL     1       0.665  11.113  21.175  0.00  0.00    +0.000 C 
ATOM     10  N   UNL     1       0.700  10.705  19.769  0.00  0.00    +0.000 N 
ENDROOT
BRANCH   1  11
ATOM     11  O   UNL     1       2.883   5.640  18.599  0.00  0.00    +0.000 OA
BRANCH  11  13
ATOM     12  N   UNL     1       4.835   4.780  17.767  0.00  0.00    +0.000 N 
ATOM     13  C   UNL     1       4.242   5.421  18.812  0.00  0.00    +0.000 C 
ATOM     14  O   UNL     1       4.869   5.768  19.829  0.00  0.00    +0.000 OA
ATOM     15  H   UNL     1       4.368   4.761  16.869  0.00  0.00    +0.000 HD
BRANCH  12  16
ATOM     16  C   UNL     1       6.128   4.143  17.942  0.00  0.00    +0.000 C 
BRANCH  16  17
ATOM     17  C   UNL     1       7.274   5.054  17.508  0.00  0.00    +0.000 C 
BRANCH  17  18
ATOM     18  C   UNL     1       7.066   5.546  16.077  0.00  0.00    +0.000 C 
BRANCH  18  19
ATOM     19  C   UNL     1       7.203   4.398  15.081  0.00  0.00    +0.000 C 
BRANCH  19  20
ATOM     20  C   UNL     1       6.443   4.702  13.797  0.00  0.00    +0.000 C 
BRANCH  20  21
ATOM     21  C   UNL     1       5.455   3.585  13.486  0.00  0.00    +0.000 C 
BRANCH  21  23
ATOM     22  C   UNL     1       4.210   3.366  11.330  0.00  0.00    +0.000 C 
ATOM     23  C   UNL     1       5.546   3.172  12.022  0.00  0.00    +0.000 C 
ENDBRANCH  21  23
ENDBRANCH  20  21
ENDBRANCH  19  20
ENDBRANCH  18  19
ENDBRANCH  17  18
ENDBRANCH  16  17
ENDBRANCH  12  16
ENDBRANCH  11  13
ENDBRANCH   1  11
BRANCH  10  24
ATOM     24  C   UNL     1       0.083  11.506  18.700  0.00  0.00    +0.000 C 
BRANCH  24  25
ATOM     25  C   UNL     1      -1.418  11.324  18.578  0.00  0.00    +0.000 A 
ATOM     26  C   UNL     1      -1.917  10.301  17.750  0.00  0.00    +0.000 A 
ATOM     27  C   UNL     1      -3.279  10.160  17.522  0.00  0.00    +0.000 A 
ATOM     28  C   UNL     1      -4.169  11.011  18.166  0.00  0.00    +0.000 A 
ATOM     29 CL   UNL     1      -5.856  10.836  17.882  0.00  0.00    +0.000 Cl
ATOM     30  C   UNL     1      -3.711  12.003  19.028  0.00  0.00    +0.000 A 
ATOM     31  C   UNL     1      -2.337  12.160  19.236  0.00  0.00    +0.000 A 
ATOM     32 CL   UNL     1      -1.839  13.438  20.288  0.00  0.00    +0.000 Cl
ENDBRANCH  24  25
ENDBRANCH  10  24
TORSDOF 11
ENDMDL
MODEL 8
REMARK VINA RESULT:      -7.4      4.273      5.464
REMARK  Name = 
REMARK  12 active torsions:
REMARK  status: ('A' for Active; 'I' for Inactive)
REMARK    1  A    between atoms: C_1  and  C_2
REMARK    2  A    between atoms: C_2  and  C_3
REMARK    3  A    between atoms: C_3  and  C_4
REMARK    4  A    between atoms: C_4  and  C_5
REMARK    5  A    between atoms: C_5  and  C_6
REMARK    6  A    between atoms: C_6  and  C_7
REMARK    7  A    between atoms: C_7  and  C_8
REMARK    8  A    between atoms: C_8  and  N_9
REMARK    9  A    between atoms: C_10  and  O_12
REMARK   10  A    between atoms: O_12  and  C_13
REMARK   11  A    between atoms: N_22  and  C_23
REMARK   12  A    between atoms: C_23  and  C_24
REMARK                            x       y       z     vdW  Elec       q    Type
REMARK                         _______ _______ _______ _____ _____    ______ ____
ROOT
ATOM      1  C   UNL     1       1.856   8.095  19.962  0.00  0.00    +0.000 A 
ATOM      2  C   UNL     1       1.710   8.938  18.867  0.00  0.00    +0.000 A 
ATOM      3  C   UNL     1       0.963  10.108  18.984  0.00  0.00    +0.000 A 
ATOM      4  C   UNL     1       0.310  10.458  20.177  0.00  0.00    +0.000 A 
ATOM      5  C   UNL     1       0.425   9.572  21.269  0.00  0.00    +0.000 A 
ATOM      6  C   UNL     1       1.194   8.394  21.153  0.00  0.00    +0.000 A 
ATOM      7  C   UNL     1      -0.253   9.885  22.588  0.00  0.00    +0.000 C 
ATOM      8  C   UNL     1      -1.244  11.039  22.503  0.00  0.00    +0.000 C 
ATOM      9  C   UNL     1      -0.688  12.145  21.631  0.00  0.00    +0.000 C 
ATOM     10  N   UNL     1      -0.432  11.632  20.284  0.00  0.00    +0.000 N 
ENDROOT
BRANCH   1  11
ATOM     11  O   UNL     1       2.587   6.891  19.852  0.00  0.00    +0.000 OA
BRANCH  11  13
ATOM     12  N   UNL     1       1.335   5.078  20.474  0.00  0.00    +0.000 N 
ATOM     13  C   UNL     1       1.907   5.749  19.436  0.00  0.00    +0.000 C 
ATOM     14  O   UNL     1       1.811   5.367  18.256  0.00  0.00    +0.000 OA
ATOM     15  H   UNL     1       1.205   5.553  21.359  0.00  0.00    +0.000 HD
BRANCH  12  16
ATOM     16  C   UNL     1       0.908   3.700  20.304  0.00  0.00    +0.000 C 
BRANCH  16  17
ATOM     17  C   UNL     1       1.562   2.772  21.324  0.00  0.00    +0.000 C 
BRANCH  17  18
ATOM     18  C   UNL     1       3.024   2.512  20.964  0.00  0.00    +0.000 C 
BRANCH  18  19
ATOM     19  C   UNL     1       3.176   2.225  19.474  0.00  0.00    +0.000 C 
BRANCH  19  20
ATOM     20  C   UNL     1       4.328   3.026  18.883  0.00  0.00    +0.000 C 
BRANCH  20  21
ATOM     21  C   UNL     1       4.188   3.121  17.369  0.00  0.00    +0.000 C 
BRANCH  21  23
ATOM     22  C   UNL     1       5.791   3.947  15.637  0.00  0.00    +0.000 C 
ATOM     23  C   UNL     1       4.937   4.335  16.830  0.00  0.00    +0.000 C 
ENDBRANCH  21  23
ENDBRANCH  20  21
ENDBRANCH  19  20
ENDBRANCH  18  19
ENDBRANCH  17  18
ENDBRANCH  16  17
ENDBRANCH  12  16
ENDBRANCH  11  13
ENDBRANCH   1  11
BRANCH  10  24
ATOM     24  C   UNL     1      -1.031  12.237  19.083  0.00  0.00    +0.000 C 
BRANCH  24  25
ATOM     25  C   UNL     1      -2.486  11.866  18.865  0.00  0.00    +0.000 A 
ATOM     26  C   UNL     1      -3.479  12.523  19.616  0.00  0.00    +0.000 A 
ATOM     27  C   UNL     1      -4.812  12.147  19.530  0.00  0.00    +0.000 A 
ATOM     28  C   UNL     1      -5.181  11.141  18.646  0.00  0.00    +0.000 A 
ATOM     29 CL   UNL     1      -6.833  10.675  18.541  0.00  0.00    +0.000 Cl
ATOM     30  C   UNL     1      -4.230  10.503  17.855  0.00  0.00    +0.000 A 
ATOM     31  C   UNL     1      -2.884  10.865  17.961  0.00  0.00    +0.000 A 
ATOM     32 CL   UNL     1      -1.754  10.003  16.978  0.00  0.00    +0.000 Cl
ENDBRANCH  24  25
ENDBRANCH  10  24
TORSDOF 11
ENDMDL
MODEL 9
REMARK VINA RESULT:      -7.4      3.695      5.887
REMARK  Name = 
REMARK  12 active torsions:
REMARK  status: ('A' for Active; 'I' for Inactive)
REMARK    1  A    between atoms: C_1  and  C_2
REMARK    2  A    between atoms: C_2  and  C_3
REMARK    3  A    between atoms: C_3  and  C_4
REMARK    4  A    between atoms: C_4  and  C_5
REMARK    5  A    between atoms: C_5  and  C_6
REMARK    6  A    between atoms: C_6  and  C_7
REMARK    7  A    between atoms: C_7  and  C_8
REMARK    8  A    between atoms: C_8  and  N_9
REMARK    9  A    between atoms: C_10  and  O_12
REMARK   10  A    between atoms: O_12  and  C_13
REMARK   11  A    between atoms: N_22  and  C_23
REMARK   12  A    between atoms: C_23  and  C_24
REMARK                            x       y       z     vdW  Elec       q    Type
REMARK                         _______ _______ _______ _____ _____    ______ ____
ROOT
ATOM      1  C   UNL     1       2.731   6.842  18.893  0.00  0.00    +0.000 A 
ATOM      2  C   UNL     1       2.683   7.867  17.956  0.00  0.00    +0.000 A 
ATOM      3  C   UNL     1       2.069   9.076  18.278  0.00  0.00    +0.000 A 
ATOM      4  C   UNL     1       1.454   9.289  19.522  0.00  0.00    +0.000 A 
ATOM      5  C   UNL     1       1.466   8.226  20.450  0.00  0.00    +0.000 A 
ATOM      6  C   UNL     1       2.101   7.007  20.127  0.00  0.00    +0.000 A 
ATOM      7  C   UNL     1       0.822   8.385  21.812  0.00  0.00    +0.000 C 
ATOM      8  C   UNL     1      -0.035   9.638  21.935  0.00  0.00    +0.000 C 
ATOM      9  C   UNL     1       0.643  10.808  21.253  0.00  0.00    +0.000 C 
ATOM     10  N   UNL     1       0.846  10.503  19.835  0.00  0.00    +0.000 N 
ENDROOT
BRANCH   1  11
ATOM     11  O   UNL     1       3.325   5.600  18.572  0.00  0.00    +0.000 OA
BRANCH  11  13
ATOM     12  N   UNL     1       5.081   5.714  17.107  0.00  0.00    +0.000 N 
ATOM     13  C   UNL     1       4.707   5.560  18.407  0.00  0.00    +0.000 C 
ATOM     14  O   UNL     1       5.531   5.409  19.328  0.00  0.00    +0.000 OA
ATOM     15  H   UNL     1       4.418   6.099  16.444  0.00  0.00    +0.000 HD
BRANCH  12  16
ATOM     16  C   UNL     1       6.419   5.340  16.683  0.00  0.00    +0.000 C 
BRANCH  16  17
ATOM     17  C   UNL     1       6.439   3.975  16.001  0.00  0.00    +0.000 C 
BRANCH  17  18
ATOM     18  C   UNL     1       5.855   4.062  14.592  0.00  0.00    +0.000 C 
BRANCH  18  19
ATOM     19  C   UNL     1       6.876   4.633  13.613  0.00  0.00    +0.000 C 
BRANCH  19  20
ATOM     20  C   UNL     1       6.833   3.884  12.288  0.00  0.00    +0.000 C 
BRANCH  20  21
ATOM     21  C   UNL     1       5.466   3.243  12.082  0.00  0.00    +0.000 C 
BRANCH  21  23
ATOM     22  C   UNL     1       7.027   1.611  11.013  0.00  0.00    +0.000 C 
ATOM     23  C   UNL     1       5.605   1.849  11.485  0.00  0.00    +0.000 C 
ENDBRANCH  21  23
ENDBRANCH  20  21
ENDBRANCH  19  20
ENDBRANCH  18  19
ENDBRANCH  17  18
ENDBRANCH  16  17
ENDBRANCH  12  16
ENDBRANCH  11  13
ENDBRANCH   1  11
BRANCH  10  24
ATOM     24  C   UNL     1       0.322  11.362  18.762  0.00  0.00    +0.000 C 
BRANCH  24  25
ATOM     25  C   UNL     1       0.995  12.719  18.671  0.00  0.00    +0.000 A 
ATOM     26  C   UNL     1       2.281  12.807  18.106  0.00  0.00    +0.000 A 
ATOM     27  C   UNL     1       2.981  14.006  18.097  0.00  0.00    +0.000 A 
ATOM     28  C   UNL     1       2.380  15.151  18.605  0.00  0.00    +0.000 A 
ATOM     29 CL   UNL     1       3.249  16.635  18.593  0.00  0.00    +0.000 Cl
ATOM     30  C   UNL     1       1.090  15.107  19.127  0.00  0.00    +0.000 A 
ATOM     31  C   UNL     1       0.396  13.894  19.160  0.00  0.00    +0.000 A 
ATOM     32 CL   UNL     1      -1.184  13.906  19.861  0.00  0.00    +0.000 Cl
ENDBRANCH  24  25
ENDBRANCH  10  24
TORSDOF 11
ENDMDL
