MODEL 1
REMARK VINA RESULT:      -7.7      0.000      0.000
REMARK  Name = 
REMARK  3 active torsions:
REMARK  status: ('A' for Active; 'I' for Inactive)
REMARK    1  A    between atoms: C_1  and  C_2
REMARK    2  A    between atoms: C_7  and  C_8
REMARK    3  A    between atoms: N_13  and  C_14
REMARK                            x       y       z     vdW  Elec       q    Type
REMARK                         _______ _______ _______ _____ _____    ______ ____
ROOT
ATOM      1  C   UNL     1       2.977   8.886  17.595  0.00  0.00    +0.000 C 
ATOM      2  C   UNL     1       2.476   7.793  18.492  0.00  0.00    +0.000 A 
ATOM      3  C   UNL     1       1.862   8.046  19.709  0.00  0.00    +0.000 A 
ATOM      4  C   UNL     1       1.531   6.978  20.557  0.00  0.00    +0.000 A 
ATOM      5  C   UNL     1       1.904   5.667  20.281  0.00  0.00    +0.000 A 
ATOM      6  N   UNL     1       1.594   4.695  21.165  0.00  0.00    +0.000 NA
ATOM      7  C   UNL     1       2.036   3.433  20.942  0.00  0.00    +0.000 A 
ATOM      8  C   UNL     1       1.592   2.383  21.907  0.00  0.00    +0.000 C 
ATOM      9  C   UNL     1       2.871   3.144  19.882  0.00  0.00    +0.000 A 
ATOM     10  C   UNL     1       3.197   4.138  18.963  0.00  0.00    +0.000 A 
ATOM     11  C   UNL     1       2.630   5.422  19.100  0.00  0.00    +0.000 A 
ATOM     12  C   UNL     1       2.758   6.469  18.164  0.00  0.00    +0.000 A 
ATOM     13  N   UNL     1       4.124   3.661  17.995  0.00  0.00    +0.000 N 
ATOM     14  C   UNL     1       4.349   2.237  18.276  0.00  0.00    +0.000 C 
ATOM     15  C   UNL     1       3.540   1.861  19.532  0.00  0.00    +0.000 C 
ENDROOT
BRANCH  13  16
ATOM     16  C   UNL     1       4.877   4.325  17.025  0.00  0.00    +0.000 A 
ATOM     17  C   UNL     1       4.573   4.211  15.657  0.00  0.00    +0.000 A 
ATOM     18  C   UNL     1       5.524   4.514  14.679  0.00  0.00    +0.000 A 
ATOM     19  C   UNL     1       6.749   5.033  15.067  0.00  0.00    +0.000 A 
ATOM     20  F   UNL     1       7.705   5.226  14.151  0.00  0.00    +0.000 F 
ATOM     21  C   UNL     1       7.005   5.324  16.400  0.00  0.00    +0.000 A 
ATOM     22  C   UNL     1       6.064   4.982  17.377  0.00  0.00    +0.000 A 
ENDBRANCH  13  16
TORSDOF 1
ENDMDL
MODEL 2
REMARK VINA RESULT:      -7.4      2.871      6.031
REMARK  Name = 
REMARK  3 active torsions:
REMARK  status: ('A' for Active; 'I' for Inactive)
REMARK    1  A    between atoms: C_1  and  C_2
REMARK    2  A    between atoms: C_7  and  C_8
REMARK    3  A    between atoms: N_13  and  C_14
REMARK                            x       y       z     vdW  Elec       q    Type
REMARK                         _______ _______ _______ _____ _____    ______ ____
ROOT
ATOM      1  C   UNL     1       0.335   3.205  20.064  0.00  0.00    +0.000 C 
ATOM      2  C   UNL     1       1.486   3.102  19.107  0.00  0.00    +0.000 A 
ATOM      3  C   UNL     1       2.243   1.949  18.969  0.00  0.00    +0.000 A 
ATOM      4  C   UNL     1       3.383   1.959  18.151  0.00  0.00    +0.000 A 
ATOM      5  C   UNL     1       3.862   3.122  17.557  0.00  0.00    +0.000 A 
ATOM      6  N   UNL     1       4.992   3.068  16.820  0.00  0.00    +0.000 NA
ATOM      7  C   UNL     1       5.508   4.216  16.318  0.00  0.00    +0.000 A 
ATOM      8  C   UNL     1       6.711   4.086  15.441  0.00  0.00    +0.000 C 
ATOM      9  C   UNL     1       4.955   5.443  16.621  0.00  0.00    +0.000 A 
ATOM     10  C   UNL     1       3.790   5.512  17.379  0.00  0.00    +0.000 A 
ATOM     11  C   UNL     1       3.158   4.319  17.789  0.00  0.00    +0.000 A 
ATOM     12  C   UNL     1       1.904   4.244  18.430  0.00  0.00    +0.000 A 
ATOM     13  N   UNL     1       3.426   6.861  17.644  0.00  0.00    +0.000 N 
ATOM     14  C   UNL     1       4.392   7.716  16.942  0.00  0.00    +0.000 C 
ATOM     15  C   UNL     1       5.432   6.806  16.259  0.00  0.00    +0.000 C 
ENDROOT
BRANCH  13  16
ATOM     16  C   UNL     1       2.478   7.415  18.508  0.00  0.00    +0.000 A 
ATOM     17  C   UNL     1       1.748   8.562  18.154  0.00  0.00    +0.000 A 
ATOM     18  C   UNL     1       1.123   9.347  19.126  0.00  0.00    +0.000 A 
ATOM     19  C   UNL     1       1.139   8.927  20.446  0.00  0.00    +0.000 A 
ATOM     20  F   UNL     1       0.639   9.721  21.400  0.00  0.00    +0.000 F 
ATOM     21  C   UNL     1       1.699   7.705  20.794  0.00  0.00    +0.000 A 
ATOM     22  C   UNL     1       2.357   6.943  19.822  0.00  0.00    +0.000 A 
ENDBRANCH  13  16
TORSDOF 1
ENDMDL
MODEL 3
REMARK VINA RESULT:      -7.2      1.200      3.911
REMARK  Name = 
REMARK  3 active torsions:
REMARK  status: ('A' for Active; 'I' for Inactive)
REMARK    1  A    between atoms: C_1  and  C_2
REMARK    2  A    between atoms: C_7  and  C_8
REMARK    3  A    between atoms: N_13  and  C_14
REMARK                            x       y       z     vdW  Elec       q    Type
REMARK                         _______ _______ _______ _____ _____    ______ ____
ROOT
ATOM      1  C   UNL     1       4.636   1.440  19.857  0.00  0.00    +0.000 C 
ATOM      2  C   UNL     1       3.883   2.669  20.276  0.00  0.00    +0.000 A 
ATOM      3  C   UNL     1       2.808   2.626  21.149  0.00  0.00    +0.000 A 
ATOM      4  C   UNL     1       2.068   3.792  21.400  0.00  0.00    +0.000 A 
ATOM      5  C   UNL     1       2.295   4.979  20.711  0.00  0.00    +0.000 A 
ATOM      6  N   UNL     1       1.514   6.050  20.969  0.00  0.00    +0.000 NA
ATOM      7  C   UNL     1       1.675   7.177  20.234  0.00  0.00    +0.000 A 
ATOM      8  C   UNL     1       0.842   8.356  20.620  0.00  0.00    +0.000 C 
ATOM      9  C   UNL     1       2.553   7.220  19.171  0.00  0.00    +0.000 A 
ATOM     10  C   UNL     1       3.364   6.123  18.896  0.00  0.00    +0.000 A 
ATOM     11  C   UNL     1       3.313   4.993  19.739  0.00  0.00    +0.000 A 
ATOM     12  C   UNL     1       4.179   3.883  19.661  0.00  0.00    +0.000 A 
ATOM     13  N   UNL     1       4.139   6.336  17.722  0.00  0.00    +0.000 N 
ATOM     14  C   UNL     1       3.853   7.699  17.256  0.00  0.00    +0.000 C 
ATOM     15  C   UNL     1       2.793   8.314  18.191  0.00  0.00    +0.000 C 
ENDROOT
BRANCH  13  16
ATOM     16  C   UNL     1       4.923   5.470  16.957  0.00  0.00    +0.000 A 
ATOM     17  C   UNL     1       6.271   5.757  16.678  0.00  0.00    +0.000 A 
ATOM     18  C   UNL     1       6.933   5.143  15.612  0.00  0.00    +0.000 A 
ATOM     19  C   UNL     1       6.278   4.162  14.886  0.00  0.00    +0.000 A 
ATOM     20  F   UNL     1       6.861   3.644  13.798  0.00  0.00    +0.000 F 
ATOM     21  C   UNL     1       5.010   3.734  15.256  0.00  0.00    +0.000 A 
ATOM     22  C   UNL     1       4.339   4.379  16.300  0.00  0.00    +0.000 A 
ENDBRANCH  13  16
TORSDOF 1
ENDMDL
MODEL 4
REMARK VINA RESULT:      -6.9      2.757      5.287
REMARK  Name = 
REMARK  3 active torsions:
REMARK  status: ('A' for Active; 'I' for Inactive)
REMARK    1  A    between atoms: C_1  and  C_2
REMARK    2  A    between atoms: C_7  and  C_8
REMARK    3  A    between atoms: N_13  and  C_14
REMARK                            x       y       z     vdW  Elec       q    Type
REMARK                         _______ _______ _______ _____ _____    ______ ____
ROOT
ATOM      1  C   UNL     1       1.177   7.268  20.928  0.00  0.00    +0.000 C 
ATOM      2  C   UNL     1       2.138   7.323  19.778  0.00  0.00    +0.000 A 
ATOM      3  C   UNL     1       2.197   8.396  18.902  0.00  0.00    +0.000 A 
ATOM      4  C   UNL     1       3.028   8.329  17.774  0.00  0.00    +0.000 A 
ATOM      5  C   UNL     1       3.717   7.172  17.425  0.00  0.00    +0.000 A 
ATOM      6  N   UNL     1       4.462   7.164  16.299  0.00  0.00    +0.000 NA
ATOM      7  C   UNL     1       5.059   6.010  15.911  0.00  0.00    +0.000 A 
ATOM      8  C   UNL     1       5.939   6.080  14.706  0.00  0.00    +0.000 C 
ATOM      9  C   UNL     1       4.843   4.828  16.591  0.00  0.00    +0.000 A 
ATOM     10  C   UNL     1       4.078   4.825  17.753  0.00  0.00    +0.000 A 
ATOM     11  C   UNL     1       3.568   6.042  18.252  0.00  0.00    +0.000 A 
ATOM     12  C   UNL     1       2.907   6.199  19.487  0.00  0.00    +0.000 A 
ATOM     13  N   UNL     1       3.913   3.505  18.258  0.00  0.00    +0.000 N 
ATOM     14  C   UNL     1       4.692   2.610  17.392  0.00  0.00    +0.000 C 
ATOM     15  C   UNL     1       5.317   3.455  16.265  0.00  0.00    +0.000 C 
ENDROOT
BRANCH  13  16
ATOM     16  C   UNL     1       3.082   2.990  19.255  0.00  0.00    +0.000 A 
ATOM     17  C   UNL     1       1.682   3.014  19.126  0.00  0.00    +0.000 A 
ATOM     18  C   UNL     1       0.853   2.892  20.244  0.00  0.00    +0.000 A 
ATOM     19  C   UNL     1       1.422   2.639  21.481  0.00  0.00    +0.000 A 
ATOM     20  F   UNL     1       0.650   2.626  22.575  0.00  0.00    +0.000 F 
ATOM     21  C   UNL     1       2.790   2.431  21.604  0.00  0.00    +0.000 A 
ATOM     22  C   UNL     1       3.618   2.593  20.488  0.00  0.00    +0.000 A 
ENDBRANCH  13  16
TORSDOF 1
ENDMDL
MODEL 5
REMARK VINA RESULT:      -6.7      2.856      6.061
REMARK  Name = 
REMARK  3 active torsions:
REMARK  status: ('A' for Active; 'I' for Inactive)
REMARK    1  A    between atoms: C_1  and  C_2
REMARK    2  A    between atoms: C_7  and  C_8
REMARK    3  A    between atoms: N_13  and  C_14
REMARK                            x       y       z     vdW  Elec       q    Type
REMARK                         _______ _______ _______ _____ _____    ______ ____
ROOT
ATOM      1  C   UNL     1       0.712   3.266  20.638  0.00  0.00    +0.000 C 
ATOM      2  C   UNL     1       1.660   3.123  19.484  0.00  0.00    +0.000 A 
ATOM      3  C   UNL     1       2.303   1.931  19.187  0.00  0.00    +0.000 A 
ATOM      4  C   UNL     1       3.273   1.897  18.173  0.00  0.00    +0.000 A 
ATOM      5  C   UNL     1       3.710   3.047  17.524  0.00  0.00    +0.000 A 
ATOM      6  N   UNL     1       4.681   2.947  16.591  0.00  0.00    +0.000 NA
ATOM      7  C   UNL     1       5.170   4.077  16.024  0.00  0.00    +0.000 A 
ATOM      8  C   UNL     1       6.182   3.902  14.938  0.00  0.00    +0.000 C 
ATOM      9  C   UNL     1       4.763   5.326  16.448  0.00  0.00    +0.000 A 
ATOM     10  C   UNL     1       3.762   5.441  17.408  0.00  0.00    +0.000 A 
ATOM     11  C   UNL     1       3.140   4.277  17.905  0.00  0.00    +0.000 A 
ATOM     12  C   UNL     1       2.021   4.258  18.763  0.00  0.00    +0.000 A 
ATOM     13  N   UNL     1       3.541   6.801  17.761  0.00  0.00    +0.000 N 
ATOM     14  C   UNL     1       4.416   7.617  16.910  0.00  0.00    +0.000 C 
ATOM     15  C   UNL     1       5.252   6.668  16.030  0.00  0.00    +0.000 C 
ENDROOT
BRANCH  13  16
ATOM     16  C   UNL     1       2.805   7.384  18.795  0.00  0.00    +0.000 A 
ATOM     17  C   UNL     1       2.633   6.732  20.029  0.00  0.00    +0.000 A 
ATOM     18  C   UNL     1       1.596   7.090  20.895  0.00  0.00    +0.000 A 
ATOM     19  C   UNL     1       0.792   8.171  20.575  0.00  0.00    +0.000 A 
ATOM     20  F   UNL     1      -0.269   8.457  21.339  0.00  0.00    +0.000 F 
ATOM     21  C   UNL     1       1.056   8.942  19.450  0.00  0.00    +0.000 A 
ATOM     22  C   UNL     1       2.070   8.556  18.568  0.00  0.00    +0.000 A 
ENDBRANCH  13  16
TORSDOF 1
ENDMDL
MODEL 6
REMARK VINA RESULT:      -6.7      2.984      5.906
REMARK  Name = 
REMARK  3 active torsions:
REMARK  status: ('A' for Active; 'I' for Inactive)
REMARK    1  A    between atoms: C_1  and  C_2
REMARK    2  A    between atoms: C_7  and  C_8
REMARK    3  A    between atoms: N_13  and  C_14
REMARK                            x       y       z     vdW  Elec       q    Type
REMARK                         _______ _______ _______ _____ _____    ______ ____
ROOT
ATOM      1  C   UNL     1       0.581   3.685  20.641  0.00  0.00    +0.000 C 
ATOM      2  C   UNL     1       1.925   3.556  19.987  0.00  0.00    +0.000 A 
ATOM      3  C   UNL     1       2.820   2.547  20.308  0.00  0.00    +0.000 A 
ATOM      4  C   UNL     1       4.109   2.557  19.753  0.00  0.00    +0.000 A 
ATOM      5  C   UNL     1       4.576   3.613  18.978  0.00  0.00    +0.000 A 
ATOM      6  N   UNL     1       5.844   3.579  18.514  0.00  0.00    +0.000 NA
ATOM      7  C   UNL     1       6.328   4.648  17.836  0.00  0.00    +0.000 A 
ATOM      8  C   UNL     1       7.707   4.521  17.275  0.00  0.00    +0.000 C 
ATOM      9  C   UNL     1       5.584   5.802  17.692  0.00  0.00    +0.000 A 
ATOM     10  C   UNL     1       4.276   5.848  18.164  0.00  0.00    +0.000 A 
ATOM     11  C   UNL     1       3.706   4.696  18.745  0.00  0.00    +0.000 A 
ATOM     12  C   UNL     1       2.355   4.563  19.127  0.00  0.00    +0.000 A 
ATOM     13  N   UNL     1       3.710   7.141  17.988  0.00  0.00    +0.000 N 
ATOM     14  C   UNL     1       4.708   7.958  17.285  0.00  0.00    +0.000 C 
ATOM     15  C   UNL     1       5.973   7.102  17.082  0.00  0.00    +0.000 C 
ENDROOT
BRANCH  13  16
ATOM     16  C   UNL     1       2.533   7.714  18.474  0.00  0.00    +0.000 A 
ATOM     17  C   UNL     1       1.761   8.583  17.683  0.00  0.00    +0.000 A 
ATOM     18  C   UNL     1       0.842   9.461  18.264  0.00  0.00    +0.000 A 
ATOM     19  C   UNL     1       0.618   9.398  19.629  0.00  0.00    +0.000 A 
ATOM     20  F   UNL     1      -0.177  10.304  20.212  0.00  0.00    +0.000 F 
ATOM     21  C   UNL     1       1.236   8.426  20.404  0.00  0.00    +0.000 A 
ATOM     22  C   UNL     1       2.183   7.576  19.824  0.00  0.00    +0.000 A 
ENDBRANCH  13  16
TORSDOF 1
ENDMDL
MODEL 7
REMARK VINA RESULT:      -6.6      1.337      3.877
REMARK  Name = 
REMARK  3 active torsions:
REMARK  status: ('A' for Active; 'I' for Inactive)
REMARK    1  A    between atoms: C_1  and  C_2
REMARK    2  A    between atoms: C_7  and  C_8
REMARK    3  A    between atoms: N_13  and  C_14
REMARK                            x       y       z     vdW  Elec       q    Type
REMARK                         _______ _______ _______ _____ _____    ______ ____
ROOT
ATOM      1  C   UNL     1       4.513   1.827  19.517  0.00  0.00    +0.000 C 
ATOM      2  C   UNL     1       3.728   2.968  20.095  0.00  0.00    +0.000 A 
ATOM      3  C   UNL     1       2.714   2.785  21.022  0.00  0.00    +0.000 A 
ATOM      4  C   UNL     1       1.935   3.880  21.426  0.00  0.00    +0.000 A 
ATOM      5  C   UNL     1       2.057   5.136  20.842  0.00  0.00    +0.000 A 
ATOM      6  N   UNL     1       1.242   6.133  21.247  0.00  0.00    +0.000 NA
ATOM      7  C   UNL     1       1.299   7.331  20.615  0.00  0.00    +0.000 A 
ATOM      8  C   UNL     1       0.435   8.422  21.160  0.00  0.00    +0.000 C 
ATOM      9  C   UNL     1       2.104   7.520  19.510  0.00  0.00    +0.000 A 
ATOM     10  C   UNL     1       2.950   6.500  19.084  0.00  0.00    +0.000 A 
ATOM     11  C   UNL     1       3.009   5.297  19.817  0.00  0.00    +0.000 A 
ATOM     12  C   UNL     1       3.923   4.248  19.582  0.00  0.00    +0.000 A 
ATOM     13  N   UNL     1       3.636   6.864  17.892  0.00  0.00    +0.000 N 
ATOM     14  C   UNL     1       3.253   8.246  17.577  0.00  0.00    +0.000 C 
ATOM     15  C   UNL     1       2.226   8.712  18.627  0.00  0.00    +0.000 C 
ENDROOT
BRANCH  13  16
ATOM     16  C   UNL     1       4.412   6.117  17.003  0.00  0.00    +0.000 A 
ATOM     17  C   UNL     1       4.012   4.837  16.580  0.00  0.00    +0.000 A 
ATOM     18  C   UNL     1       4.935   3.935  16.043  0.00  0.00    +0.000 A 
ATOM     19  C   UNL     1       6.239   4.350  15.830  0.00  0.00    +0.000 A 
ATOM     20  F   UNL     1       7.155   3.467  15.417  0.00  0.00    +0.000 F 
ATOM     21  C   UNL     1       6.613   5.666  16.071  0.00  0.00    +0.000 A 
ATOM     22  C   UNL     1       5.695   6.552  16.645  0.00  0.00    +0.000 A 
ENDBRANCH  13  16
TORSDOF 1
ENDMDL
MODEL 8
REMARK VINA RESULT:      -6.5      9.839     11.990
REMARK  Name = 
REMARK  3 active torsions:
REMARK  status: ('A' for Active; 'I' for Inactive)
REMARK    1  A    between atoms: C_1  and  C_2
REMARK    2  A    between atoms: C_7  and  C_8
REMARK    3  A    between atoms: N_13  and  C_14
REMARK                            x       y       z     vdW  Elec       q    Type
REMARK                         _______ _______ _______ _____ _____    ______ ____
ROOT
ATOM      1  C   UNL     1      -7.239  12.300  22.107  0.00  0.00    +0.000 C 
ATOM      2  C   UNL     1      -6.693  12.020  20.738  0.00  0.00    +0.000 A 
ATOM      3  C   UNL     1      -7.339  11.199  19.828  0.00  0.00    +0.000 A 
ATOM      4  C   UNL     1      -6.713  10.877  18.614  0.00  0.00    +0.000 A 
ATOM      5  C   UNL     1      -5.405  11.253  18.329  0.00  0.00    +0.000 A 
ATOM      6  N   UNL     1      -4.849  10.868  17.161  0.00  0.00    +0.000 NA
ATOM      7  C   UNL     1      -3.546  11.156  16.924  0.00  0.00    +0.000 A 
ATOM      8  C   UNL     1      -3.007  10.781  15.581  0.00  0.00    +0.000 C 
ATOM      9  C   UNL     1      -2.756  11.750  17.887  0.00  0.00    +0.000 A 
ATOM     10  C   UNL     1      -3.318  12.152  19.095  0.00  0.00    +0.000 A 
ATOM     11  C   UNL     1      -4.704  11.991  19.302  0.00  0.00    +0.000 A 
ATOM     12  C   UNL     1      -5.422  12.485  20.411  0.00  0.00    +0.000 A 
ATOM     13  N   UNL     1      -2.330  12.671  19.976  0.00  0.00    +0.000 N 
ATOM     14  C   UNL     1      -1.054  12.665  19.249  0.00  0.00    +0.000 C 
ATOM     15  C   UNL     1      -1.298  12.048  17.857  0.00  0.00    +0.000 C 
ENDROOT
BRANCH  13  16
ATOM     16  C   UNL     1      -2.376  12.999  21.333  0.00  0.00    +0.000 A 
ATOM     17  C   UNL     1      -2.366  12.006  22.327  0.00  0.00    +0.000 A 
ATOM     18  C   UNL     1      -2.815  12.277  23.622  0.00  0.00    +0.000 A 
ATOM     19  C   UNL     1      -3.177  13.573  23.953  0.00  0.00    +0.000 A 
ATOM     20  F   UNL     1      -3.710  13.825  25.155  0.00  0.00    +0.000 F 
ATOM     21  C   UNL     1      -3.024  14.607  23.039  0.00  0.00    +0.000 A 
ATOM     22  C   UNL     1      -2.611  14.322  21.734  0.00  0.00    +0.000 A 
ENDBRANCH  13  16
TORSDOF 1
ENDMDL
MODEL 9
REMARK VINA RESULT:      -6.4      8.980     11.033
REMARK  Name = 
REMARK  3 active torsions:
REMARK  status: ('A' for Active; 'I' for Inactive)
REMARK    1  A    between atoms: C_1  and  C_2
REMARK    2  A    between atoms: C_7  and  C_8
REMARK    3  A    between atoms: N_13  and  C_14
REMARK                            x       y       z     vdW  Elec       q    Type
REMARK                         _______ _______ _______ _____ _____    ______ ____
ROOT
ATOM      1  C   UNL     1      -0.334  12.654  20.331  0.00  0.00    +0.000 C 
ATOM      2  C   UNL     1      -1.664  12.823  21.004  0.00  0.00    +0.000 A 
ATOM      3  C   UNL     1      -1.797  12.945  22.379  0.00  0.00    +0.000 A 
ATOM      4  C   UNL     1      -3.077  12.972  22.954  0.00  0.00    +0.000 A 
ATOM      5  C   UNL     1      -4.232  12.759  22.209  0.00  0.00    +0.000 A 
ATOM      6  N   UNL     1      -5.427  12.752  22.836  0.00  0.00    +0.000 NA
ATOM      7  C   UNL     1      -6.543  12.455  22.127  0.00  0.00    +0.000 A 
ATOM      8  C   UNL     1      -7.846  12.544  22.853  0.00  0.00    +0.000 C 
ATOM      9  C   UNL     1      -6.470  12.070  20.803  0.00  0.00    +0.000 A 
ATOM     10  C   UNL     1      -5.243  12.075  20.146  0.00  0.00    +0.000 A 
ATOM     11  C   UNL     1      -4.092  12.520  20.829  0.00  0.00    +0.000 A 
ATOM     12  C   UNL     1      -2.824  12.713  20.242  0.00  0.00    +0.000 A 
ATOM     13  N   UNL     1      -5.367  11.577  18.820  0.00  0.00    +0.000 N 
ATOM     14  C   UNL     1      -6.792  11.302  18.592  0.00  0.00    +0.000 C 
ATOM     15  C   UNL     1      -7.555  11.609  19.895  0.00  0.00    +0.000 C 
ENDROOT
BRANCH  13  16
ATOM     16  C   UNL     1      -4.409  11.211  17.872  0.00  0.00    +0.000 A 
ATOM     17  C   UNL     1      -4.432  11.737  16.568  0.00  0.00    +0.000 A 
ATOM     18  C   UNL     1      -3.764  11.096  15.521  0.00  0.00    +0.000 A 
ATOM     19  C   UNL     1      -2.984   9.985  15.797  0.00  0.00    +0.000 A 
ATOM     20  F   UNL     1      -2.427   9.300  14.791  0.00  0.00    +0.000 F 
ATOM     21  C   UNL     1      -2.801   9.555  17.105  0.00  0.00    +0.000 A 
ATOM     22  C   UNL     1      -3.503  10.176  18.143  0.00  0.00    +0.000 A 
ENDBRANCH  13  16
TORSDOF 1
ENDMDL
