MODEL 1
REMARK VINA RESULT:      -9.8      0.000      0.000
REMARK  Name = 
REMARK  5 active torsions:
REMARK  status: ('A' for Active; 'I' for Inactive)
REMARK    1  A    between atoms: N_4  and  C_5
REMARK    2  A    between atoms: C_5  and  C_6
REMARK    3  A    between atoms: C_6  and  C_7
REMARK    4  A    between atoms: C_7  and  C_8
REMARK    5  A    between atoms: C_10  and  C_11
REMARK                            x       y       z     vdW  Elec       q    Type
REMARK                         _______ _______ _______ _____ _____    ______ ____
ROOT
ATOM      1  C   UNL     1       5.489   5.113  16.946  0.00  0.00    +0.000 C 
ATOM      2  N   UNL     1       4.606   6.185  17.411  0.00  0.00    +0.000 NA
ATOM      3  C   UNL     1       3.511   5.916  18.038  0.00  0.00    +0.000 C 
ATOM      4  C   UNL     1       3.014   4.536  18.337  0.00  0.00    +0.000 A 
ATOM      5  C   UNL     1       1.634   4.284  18.232  0.00  0.00    +0.000 A 
ATOM      6  C   UNL     1       1.103   3.054  18.628  0.00  0.00    +0.000 A 
ATOM      7  C   UNL     1       1.942   2.068  19.133  0.00  0.00    +0.000 A 
ATOM      8  C   UNL     1       3.311   2.305  19.235  0.00  0.00    +0.000 A 
ATOM      9  C   UNL     1       3.862   3.523  18.811  0.00  0.00    +0.000 A 
ATOM     10  N   UNL     1       5.251   3.639  18.927  0.00  0.00    +0.000 N 
ATOM     11  C   UNL     1       6.091   4.411  18.171  0.00  0.00    +0.000 C 
ATOM     12  O   UNL     1       7.290   4.420  18.461  0.00  0.00    +0.000 OA
ATOM     13  H   UNL     1       5.748   3.014  19.552  0.00  0.00    +0.000 HD
ENDROOT
BRANCH   3  14
ATOM     14  C   UNL     1       2.721   7.102  18.516  0.00  0.00    +0.000 A 
ATOM     15  C   UNL     1       2.300   7.146  19.852  0.00  0.00    +0.000 A 
ATOM     16  C   UNL     1       1.509   8.202  20.308  0.00  0.00    +0.000 A 
ATOM     17  C   UNL     1       1.133   9.219  19.432  0.00  0.00    +0.000 A 
ATOM     18  C   UNL     1       1.544   9.181  18.100  0.00  0.00    +0.000 A 
ATOM     19  C   UNL     1       2.330   8.122  17.639  0.00  0.00    +0.000 A 
ENDBRANCH   3  14
BRANCH   1  20
ATOM     20  C   UNL     1       6.562   5.782  16.073  0.00  0.00    +0.000 C 
BRANCH  20  21
ATOM     21  C   UNL     1       7.026   4.917  14.899  0.00  0.00    +0.000 C 
BRANCH  21  22
ATOM     22  C   UNL     1       5.834   4.286  14.185  0.00  0.00    +0.000 C 
BRANCH  22  26
ATOM     23  N   UNL     1       4.641   3.392  11.721  0.00  0.00    +0.000 NA
ATOM     24  C   UNL     1       5.724   2.874  12.173  0.00  0.00    +0.000 C 
ATOM     25  N   UNL     1       6.418   1.933  11.501  0.00  0.00    +0.000 N 
ATOM     26  N   UNL     1       6.292   3.191  13.350  0.00  0.00    +0.000 N 
ATOM     27  H   UNL     1       4.435   3.008  10.800  0.00  0.00    +0.000 HD
ATOM     28  H   UNL     1       5.896   1.459  10.777  0.00  0.00    +0.000 HD
ATOM     29  H   UNL     1       6.903   1.274  12.098  0.00  0.00    +0.000 HD
ATOM     30  H   UNL     1       7.243   2.893  13.520  0.00  0.00    +0.000 HD
ENDBRANCH  22  26
ENDBRANCH  21  22
ENDBRANCH  20  21
ENDBRANCH   1  20
TORSDOF 5
ENDMDL
MODEL 2
REMARK VINA RESULT:      -9.5      0.374      1.211
REMARK  Name = 
REMARK  5 active torsions:
REMARK  status: ('A' for Active; 'I' for Inactive)
REMARK    1  A    between atoms: N_4  and  C_5
REMARK    2  A    between atoms: C_5  and  C_6
REMARK    3  A    between atoms: C_6  and  C_7
REMARK    4  A    between atoms: C_7  and  C_8
REMARK    5  A    between atoms: C_10  and  C_11
REMARK                            x       y       z     vdW  Elec       q    Type
REMARK                         _______ _______ _______ _____ _____    ______ ____
ROOT
ATOM      1  C   UNL     1       5.416   5.178  16.889  0.00  0.00    +0.000 C 
ATOM      2  N   UNL     1       4.509   6.209  17.399  0.00  0.00    +0.000 NA
ATOM      3  C   UNL     1       3.432   5.890  18.034  0.00  0.00    +0.000 C 
ATOM      4  C   UNL     1       2.981   4.488  18.298  0.00  0.00    +0.000 A 
ATOM      5  C   UNL     1       1.607   4.198  18.206  0.00  0.00    +0.000 A 
ATOM      6  C   UNL     1       1.118   2.942  18.572  0.00  0.00    +0.000 A 
ATOM      7  C   UNL     1       1.993   1.966  19.035  0.00  0.00    +0.000 A 
ATOM      8  C   UNL     1       3.356   2.241  19.125  0.00  0.00    +0.000 A 
ATOM      9  C   UNL     1       3.864   3.487  18.729  0.00  0.00    +0.000 A 
ATOM     10  N   UNL     1       5.251   3.640  18.829  0.00  0.00    +0.000 N 
ATOM     11  C   UNL     1       6.057   4.459  18.084  0.00  0.00    +0.000 C 
ATOM     12  O   UNL     1       7.259   4.495  18.356  0.00  0.00    +0.000 OA
ATOM     13  H   UNL     1       5.776   3.013  19.428  0.00  0.00    +0.000 HD
ENDROOT
BRANCH   3  14
ATOM     14  C   UNL     1       2.615   7.038  18.558  0.00  0.00    +0.000 A 
ATOM     15  C   UNL     1       2.303   8.099  17.697  0.00  0.00    +0.000 A 
ATOM     16  C   UNL     1       1.602   9.209  18.171  0.00  0.00    +0.000 A 
ATOM     17  C   UNL     1       1.211   9.266  19.508  0.00  0.00    +0.000 A 
ATOM     18  C   UNL     1       1.521   8.216  20.372  0.00  0.00    +0.000 A 
ATOM     19  C   UNL     1       2.228   7.107  19.902  0.00  0.00    +0.000 A 
ENDBRANCH   3  14
BRANCH   1  20
ATOM     20  C   UNL     1       6.455   5.904  16.021  0.00  0.00    +0.000 C 
BRANCH  20  21
ATOM     21  C   UNL     1       7.070   5.022  14.932  0.00  0.00    +0.000 C 
BRANCH  21  22
ATOM     22  C   UNL     1       6.219   3.777  14.698  0.00  0.00    +0.000 C 
BRANCH  22  26
ATOM     23  N   UNL     1       6.429   2.460  12.145  0.00  0.00    +0.000 NA
ATOM     24  C   UNL     1       5.477   3.280  12.406  0.00  0.00    +0.000 C 
ATOM     25  N   UNL     1       4.472   3.528  11.541  0.00  0.00    +0.000 N 
ATOM     26  N   UNL     1       5.362   3.983  13.546  0.00  0.00    +0.000 N 
ATOM     27  H   UNL     1       6.275   2.033  11.233  0.00  0.00    +0.000 HD
ATOM     28  H   UNL     1       4.663   3.263  10.584  0.00  0.00    +0.000 HD
ATOM     29  H   UNL     1       4.104   4.469  11.597  0.00  0.00    +0.000 HD
ATOM     30  H   UNL     1       4.478   4.432  13.746  0.00  0.00    +0.000 HD
ENDBRANCH  22  26
ENDBRANCH  21  22
ENDBRANCH  20  21
ENDBRANCH   1  20
TORSDOF 5
ENDMDL
MODEL 3
REMARK VINA RESULT:      -9.3      0.862      1.293
REMARK  Name = 
REMARK  5 active torsions:
REMARK  status: ('A' for Active; 'I' for Inactive)
REMARK    1  A    between atoms: N_4  and  C_5
REMARK    2  A    between atoms: C_5  and  C_6
REMARK    3  A    between atoms: C_6  and  C_7
REMARK    4  A    between atoms: C_7  and  C_8
REMARK    5  A    between atoms: C_10  and  C_11
REMARK                            x       y       z     vdW  Elec       q    Type
REMARK                         _______ _______ _______ _____ _____    ______ ____
ROOT
ATOM      1  C   UNL     1       4.768   4.758  17.135  0.00  0.00    +0.000 C 
ATOM      2  N   UNL     1       3.983   5.943  17.488  0.00  0.00    +0.000 NA
ATOM      3  C   UNL     1       3.072   5.888  18.400  0.00  0.00    +0.000 C 
ATOM      4  C   UNL     1       2.702   4.655  19.163  0.00  0.00    +0.000 A 
ATOM      5  C   UNL     1       1.344   4.429  19.453  0.00  0.00    +0.000 A 
ATOM      6  C   UNL     1       0.958   3.368  20.275  0.00  0.00    +0.000 A 
ATOM      7  C   UNL     1       1.922   2.525  20.817  0.00  0.00    +0.000 A 
ATOM      8  C   UNL     1       3.269   2.737  20.532  0.00  0.00    +0.000 A 
ATOM      9  C   UNL     1       3.668   3.779  19.682  0.00  0.00    +0.000 A 
ATOM     10  N   UNL     1       5.042   3.876  19.438  0.00  0.00    +0.000 N 
ATOM     11  C   UNL     1       5.659   4.390  18.329  0.00  0.00    +0.000 C 
ATOM     12  O   UNL     1       6.892   4.438  18.320  0.00  0.00    +0.000 OA
ATOM     13  H   UNL     1       5.690   3.426  20.074  0.00  0.00    +0.000 HD
ENDROOT
BRANCH   3  14
ATOM     14  C   UNL     1       2.377   7.184  18.712  0.00  0.00    +0.000 A 
ATOM     15  C   UNL     1       2.208   8.128  17.691  0.00  0.00    +0.000 A 
ATOM     16  C   UNL     1       1.625   9.367  17.964  0.00  0.00    +0.000 A 
ATOM     17  C   UNL     1       1.210   9.669  19.260  0.00  0.00    +0.000 A 
ATOM     18  C   UNL     1       1.377   8.737  20.283  0.00  0.00    +0.000 A 
ATOM     19  C   UNL     1       1.967   7.499  20.014  0.00  0.00    +0.000 A 
ENDBRANCH   3  14
BRANCH   1  20
ATOM     20  C   UNL     1       5.587   5.134  15.891  0.00  0.00    +0.000 C 
BRANCH  20  21
ATOM     21  C   UNL     1       6.140   3.926  15.131  0.00  0.00    +0.000 C 
BRANCH  21  22
ATOM     22  C   UNL     1       6.292   4.243  13.646  0.00  0.00    +0.000 C 
BRANCH  22  26
ATOM     23  N   UNL     1       4.503   3.234  11.627  0.00  0.00    +0.000 NA
ATOM     24  C   UNL     1       5.599   2.634  11.919  0.00  0.00    +0.000 C 
ATOM     25  N   UNL     1       6.028   1.539  11.259  0.00  0.00    +0.000 N 
ATOM     26  N   UNL     1       6.440   3.008  12.899  0.00  0.00    +0.000 N 
ATOM     27  H   UNL     1       4.063   2.777  10.831  0.00  0.00    +0.000 HD
ATOM     28  H   UNL     1       5.314   1.057  10.730  0.00  0.00    +0.000 HD
ATOM     29  H   UNL     1       6.560   0.896  11.831  0.00  0.00    +0.000 HD
ATOM     30  H   UNL     1       7.370   2.609  12.912  0.00  0.00    +0.000 HD
ENDBRANCH  22  26
ENDBRANCH  21  22
ENDBRANCH  20  21
ENDBRANCH   1  20
TORSDOF 5
ENDMDL
MODEL 4
REMARK VINA RESULT:      -9.0      2.823      4.607
REMARK  Name = 
REMARK  5 active torsions:
REMARK  status: ('A' for Active; 'I' for Inactive)
REMARK    1  A    between atoms: N_4  and  C_5
REMARK    2  A    between atoms: C_5  and  C_6
REMARK    3  A    between atoms: C_6  and  C_7
REMARK    4  A    between atoms: C_7  and  C_8
REMARK    5  A    between atoms: C_10  and  C_11
REMARK                            x       y       z     vdW  Elec       q    Type
REMARK                         _______ _______ _______ _____ _____    ______ ____
ROOT
ATOM      1  C   UNL     1       5.807   5.514  17.428  0.00  0.00    +0.000 C 
ATOM      2  N   UNL     1       4.788   6.495  17.809  0.00  0.00    +0.000 NA
ATOM      3  C   UNL     1       3.624   6.118  18.216  0.00  0.00    +0.000 C 
ATOM      4  C   UNL     1       3.177   4.693  18.324  0.00  0.00    +0.000 A 
ATOM      5  C   UNL     1       1.855   4.377  17.964  0.00  0.00    +0.000 A 
ATOM      6  C   UNL     1       1.347   3.093  18.173  0.00  0.00    +0.000 A 
ATOM      7  C   UNL     1       2.153   2.114  18.743  0.00  0.00    +0.000 A 
ATOM      8  C   UNL     1       3.467   2.415  19.097  0.00  0.00    +0.000 A 
ATOM      9  C   UNL     1       3.998   3.691  18.863  0.00  0.00    +0.000 A 
ATOM     10  N   UNL     1       5.337   3.871  19.227  0.00  0.00    +0.000 N 
ATOM     11  C   UNL     1       6.239   4.747  18.685  0.00  0.00    +0.000 C 
ATOM     12  O   UNL     1       7.369   4.796  19.177  0.00  0.00    +0.000 OA
ATOM     13  H   UNL     1       5.763   3.225  19.882  0.00  0.00    +0.000 HD
ENDROOT
BRANCH   3  14
ATOM     14  C   UNL     1       2.687   7.217  18.634  0.00  0.00    +0.000 A 
ATOM     15  C   UNL     1       2.362   8.220  17.711  0.00  0.00    +0.000 A 
ATOM     16  C   UNL     1       1.547   9.289  18.089  0.00  0.00    +0.000 A 
ATOM     17  C   UNL     1       1.054   9.362  19.390  0.00  0.00    +0.000 A 
ATOM     18  C   UNL     1       1.376   8.370  20.316  0.00  0.00    +0.000 A 
ATOM     19  C   UNL     1       2.197   7.303  19.943  0.00  0.00    +0.000 A 
ENDBRANCH   3  14
BRANCH   1  20
ATOM     20  C   UNL     1       6.964   6.309  16.804  0.00  0.00    +0.000 C 
BRANCH  20  21
ATOM     21  C   UNL     1       6.915   7.808  17.110  0.00  0.00    +0.000 C 
BRANCH  21  22
ATOM     22  C   UNL     1       8.092   8.221  17.990  0.00  0.00    +0.000 C 
BRANCH  22  26
ATOM     23  N   UNL     1       9.436   9.966  19.845  0.00  0.00    +0.000 NA
ATOM     24  C   UNL     1       9.059  10.372  18.687  0.00  0.00    +0.000 C 
ATOM     25  N   UNL     1       9.327  11.612  18.228  0.00  0.00    +0.000 N 
ATOM     26  N   UNL     1       8.364   9.634  17.805  0.00  0.00    +0.000 N 
ATOM     27  H   UNL     1       9.971  10.698  20.309  0.00  0.00    +0.000 HD
ATOM     28  H   UNL     1       9.577  12.282  18.941  0.00  0.00    +0.000 HD
ATOM     29  H   UNL     1       8.619  11.981  17.606  0.00  0.00    +0.000 HD
ATOM     30  H   UNL     1       8.301   9.960  16.850  0.00  0.00    +0.000 HD
ENDBRANCH  22  26
ENDBRANCH  21  22
ENDBRANCH  20  21
ENDBRANCH   1  20
TORSDOF 5
ENDMDL
MODEL 5
REMARK VINA RESULT:      -8.9      2.851      7.036
REMARK  Name = 
REMARK  5 active torsions:
REMARK  status: ('A' for Active; 'I' for Inactive)
REMARK    1  A    between atoms: N_4  and  C_5
REMARK    2  A    between atoms: C_5  and  C_6
REMARK    3  A    between atoms: C_6  and  C_7
REMARK    4  A    between atoms: C_7  and  C_8
REMARK    5  A    between atoms: C_10  and  C_11
REMARK                            x       y       z     vdW  Elec       q    Type
REMARK                         _______ _______ _______ _____ _____    ______ ____
ROOT
ATOM      1  C   UNL     1       3.787   4.043  17.722  0.00  0.00    +0.000 C 
ATOM      2  N   UNL     1       4.358   4.024  16.374  0.00  0.00    +0.000 NA
ATOM      3  C   UNL     1       5.461   4.640  16.112  0.00  0.00    +0.000 C 
ATOM      4  C   UNL     1       6.250   5.436  17.104  0.00  0.00    +0.000 A 
ATOM      5  C   UNL     1       6.852   6.633  16.674  0.00  0.00    +0.000 A 
ATOM      6  C   UNL     1       7.708   7.343  17.519  0.00  0.00    +0.000 A 
ATOM      7  C   UNL     1       7.972   6.865  18.798  0.00  0.00    +0.000 A 
ATOM      8  C   UNL     1       7.376   5.684  19.235  0.00  0.00    +0.000 A 
ATOM      9  C   UNL     1       6.490   4.979  18.408  0.00  0.00    +0.000 A 
ATOM     10  N   UNL     1       5.924   3.826  18.963  0.00  0.00    +0.000 N 
ATOM     11  C   UNL     1       4.717   3.257  18.657  0.00  0.00    +0.000 C 
ATOM     12  O   UNL     1       4.411   2.204  19.220  0.00  0.00    +0.000 OA
ATOM     13  H   UNL     1       6.370   3.393  19.764  0.00  0.00    +0.000 HD
ENDROOT
BRANCH   3  14
ATOM     14  C   UNL     1       5.975   4.497  14.706  0.00  0.00    +0.000 A 
ATOM     15  C   UNL     1       5.280   3.675  13.809  0.00  0.00    +0.000 A 
ATOM     16  C   UNL     1       5.768   3.470  12.517  0.00  0.00    +0.000 A 
ATOM     17  C   UNL     1       6.953   4.084  12.116  0.00  0.00    +0.000 A 
ATOM     18  C   UNL     1       7.652   4.902  13.004  0.00  0.00    +0.000 A 
ATOM     19  C   UNL     1       7.170   5.103  14.299  0.00  0.00    +0.000 A 
ENDBRANCH   3  14
BRANCH   1  20
ATOM     20  C   UNL     1       2.395   3.402  17.614  0.00  0.00    +0.000 C 
BRANCH  20  21
ATOM     21  C   UNL     1       1.306   4.165  18.373  0.00  0.00    +0.000 C 
BRANCH  21  22
ATOM     22  C   UNL     1       1.752   4.470  19.800  0.00  0.00    +0.000 C 
BRANCH  22  26
ATOM     23  N   UNL     1       2.945   2.683  21.718  0.00  0.00    +0.000 NA
ATOM     24  C   UNL     1       1.674   2.842  21.642  0.00  0.00    +0.000 C 
ATOM     25  N   UNL     1       0.813   2.247  22.494  0.00  0.00    +0.000 N 
ATOM     26  N   UNL     1       1.049   3.600  20.725  0.00  0.00    +0.000 N 
ATOM     27  H   UNL     1       3.170   2.089  22.514  0.00  0.00    +0.000 HD
ATOM     28  H   UNL     1       1.195   1.458  22.998  0.00  0.00    +0.000 HD
ATOM     29  H   UNL     1      -0.084   2.023  22.083  0.00  0.00    +0.000 HD
ATOM     30  H   UNL     1       0.077   3.832  20.875  0.00  0.00    +0.000 HD
ENDBRANCH  22  26
ENDBRANCH  21  22
ENDBRANCH  20  21
ENDBRANCH   1  20
TORSDOF 5
ENDMDL
MODEL 6
REMARK VINA RESULT:      -8.8      2.504      3.380
REMARK  Name = 
REMARK  5 active torsions:
REMARK  status: ('A' for Active; 'I' for Inactive)
REMARK    1  A    between atoms: N_4  and  C_5
REMARK    2  A    between atoms: C_5  and  C_6
REMARK    3  A    between atoms: C_6  and  C_7
REMARK    4  A    between atoms: C_7  and  C_8
REMARK    5  A    between atoms: C_10  and  C_11
REMARK                            x       y       z     vdW  Elec       q    Type
REMARK                         _______ _______ _______ _____ _____    ______ ____
ROOT
ATOM      1  C   UNL     1       4.438   4.292  17.319  0.00  0.00    +0.000 C 
ATOM      2  N   UNL     1       3.723   5.536  17.620  0.00  0.00    +0.000 NA
ATOM      3  C   UNL     1       2.891   5.601  18.603  0.00  0.00    +0.000 C 
ATOM      4  C   UNL     1       2.546   4.459  19.507  0.00  0.00    +0.000 A 
ATOM      5  C   UNL     1       1.210   4.315  19.924  0.00  0.00    +0.000 A 
ATOM      6  C   UNL     1       0.860   3.350  20.871  0.00  0.00    +0.000 A 
ATOM      7  C   UNL     1       1.838   2.523  21.412  0.00  0.00    +0.000 A 
ATOM      8  C   UNL     1       3.163   2.653  21.000  0.00  0.00    +0.000 A 
ATOM      9  C   UNL     1       3.523   3.596  20.027  0.00  0.00    +0.000 A 
ATOM     10  N   UNL     1       4.874   3.615  19.665  0.00  0.00    +0.000 N 
ATOM     11  C   UNL     1       5.413   4.000  18.467  0.00  0.00    +0.000 C 
ATOM     12  O   UNL     1       6.641   3.997  18.355  0.00  0.00    +0.000 OA
ATOM     13  H   UNL     1       5.558   3.200  20.287  0.00  0.00    +0.000 HD
ENDROOT
BRANCH   3  14
ATOM     14  C   UNL     1       2.267   6.947  18.846  0.00  0.00    +0.000 A 
ATOM     15  C   UNL     1       2.112   7.828  17.768  0.00  0.00    +0.000 A 
ATOM     16  C   UNL     1       1.596   9.109  17.973  0.00  0.00    +0.000 A 
ATOM     17  C   UNL     1       1.233   9.516  19.255  0.00  0.00    +0.000 A 
ATOM     18  C   UNL     1       1.387   8.646  20.334  0.00  0.00    +0.000 A 
ATOM     19  C   UNL     1       1.910   7.366  20.133  0.00  0.00    +0.000 A 
ENDBRANCH   3  14
BRANCH   1  20
ATOM     20  C   UNL     1       5.162   4.520  15.983  0.00  0.00    +0.000 C 
BRANCH  20  21
ATOM     21  C   UNL     1       5.385   5.996  15.649  0.00  0.00    +0.000 C 
BRANCH  21  22
ATOM     22  C   UNL     1       6.874   6.303  15.512  0.00  0.00    +0.000 C 
BRANCH  22  26
ATOM     23  N   UNL     1       7.472   8.419  17.372  0.00  0.00    +0.000 NA
ATOM     24  C   UNL     1       7.705   7.188  17.651  0.00  0.00    +0.000 C 
ATOM     25  N   UNL     1       8.173   6.789  18.852  0.00  0.00    +0.000 N 
ATOM     26  N   UNL     1       7.520   6.161  16.803  0.00  0.00    +0.000 N 
ATOM     27  H   UNL     1       7.662   8.998  18.188  0.00  0.00    +0.000 HD
ATOM     28  H   UNL     1       8.597   7.522  19.404  0.00  0.00    +0.000 HD
ATOM     29  H   UNL     1       8.764   5.969  18.811  0.00  0.00    +0.000 HD
ATOM     30  H   UNL     1       7.525   5.222  17.178  0.00  0.00    +0.000 HD
ENDBRANCH  22  26
ENDBRANCH  21  22
ENDBRANCH  20  21
ENDBRANCH   1  20
TORSDOF 5
ENDMDL
MODEL 7
REMARK VINA RESULT:      -8.8      2.966      6.915
REMARK  Name = 
REMARK  5 active torsions:
REMARK  status: ('A' for Active; 'I' for Inactive)
REMARK    1  A    between atoms: N_4  and  C_5
REMARK    2  A    between atoms: C_5  and  C_6
REMARK    3  A    between atoms: C_6  and  C_7
REMARK    4  A    between atoms: C_7  and  C_8
REMARK    5  A    between atoms: C_10  and  C_11
REMARK                            x       y       z     vdW  Elec       q    Type
REMARK                         _______ _______ _______ _____ _____    ______ ____
ROOT
ATOM      1  C   UNL     1       3.816   3.959  17.547  0.00  0.00    +0.000 C 
ATOM      2  N   UNL     1       4.443   3.920  16.224  0.00  0.00    +0.000 NA
ATOM      3  C   UNL     1       5.550   4.542  15.996  0.00  0.00    +0.000 C 
ATOM      4  C   UNL     1       6.290   5.366  17.003  0.00  0.00    +0.000 A 
ATOM      5  C   UNL     1       6.897   6.561  16.576  0.00  0.00    +0.000 A 
ATOM      6  C   UNL     1       7.710   7.296  17.441  0.00  0.00    +0.000 A 
ATOM      7  C   UNL     1       7.926   6.846  18.738  0.00  0.00    +0.000 A 
ATOM      8  C   UNL     1       7.324   5.667  19.174  0.00  0.00    +0.000 A 
ATOM      9  C   UNL     1       6.480   4.937  18.326  0.00  0.00    +0.000 A 
ATOM     10  N   UNL     1       5.902   3.789  18.879  0.00  0.00    +0.000 N 
ATOM     11  C   UNL     1       4.714   3.202  18.535  0.00  0.00    +0.000 C 
ATOM     12  O   UNL     1       4.396   2.156  19.106  0.00  0.00    +0.000 OA
ATOM     13  H   UNL     1       6.318   3.376  19.706  0.00  0.00    +0.000 HD
ENDROOT
BRANCH   3  14
ATOM     14  C   UNL     1       6.123   4.377  14.616  0.00  0.00    +0.000 A 
ATOM     15  C   UNL     1       7.272   5.099  14.267  0.00  0.00    +0.000 A 
ATOM     16  C   UNL     1       7.790   5.018  12.973  0.00  0.00    +0.000 A 
ATOM     17  C   UNL     1       7.162   4.217  12.021  0.00  0.00    +0.000 A 
ATOM     18  C   UNL     1       6.016   3.498  12.359  0.00  0.00    +0.000 A 
ATOM     19  C   UNL     1       5.492   3.583  13.651  0.00  0.00    +0.000 A 
ENDBRANCH   3  14
BRANCH   1  20
ATOM     20  C   UNL     1       2.436   3.302  17.394  0.00  0.00    +0.000 C 
BRANCH  20  21
ATOM     21  C   UNL     1       1.306   4.082  18.069  0.00  0.00    +0.000 C 
BRANCH  21  22
ATOM     22  C   UNL     1       0.532   3.189  19.035  0.00  0.00    +0.000 C 
BRANCH  22  26
ATOM     23  N   UNL     1       1.842   4.573  21.195  0.00  0.00    +0.000 NA
ATOM     24  C   UNL     1       1.968   3.307  21.029  0.00  0.00    +0.000 C 
ATOM     25  N   UNL     1       2.656   2.525  21.887  0.00  0.00    +0.000 N 
ATOM     26  N   UNL     1       1.447   2.613  20.003  0.00  0.00    +0.000 N 
ATOM     27  H   UNL     1       2.300   4.854  22.060  0.00  0.00    +0.000 HD
ATOM     28  H   UNL     1       3.296   3.022  22.491  0.00  0.00    +0.000 HD
ATOM     29  H   UNL     1       3.104   1.730  21.449  0.00  0.00    +0.000 HD
ATOM     30  H   UNL     1       1.417   1.604  20.071  0.00  0.00    +0.000 HD
ENDBRANCH  22  26
ENDBRANCH  21  22
ENDBRANCH  20  21
ENDBRANCH   1  20
TORSDOF 5
ENDMDL
MODEL 8
REMARK VINA RESULT:      -8.6      1.826      4.337
REMARK  Name = 
REMARK  5 active torsions:
REMARK  status: ('A' for Active; 'I' for Inactive)
REMARK    1  A    between atoms: N_4  and  C_5
REMARK    2  A    between atoms: C_5  and  C_6
REMARK    3  A    between atoms: C_6  and  C_7
REMARK    4  A    between atoms: C_7  and  C_8
REMARK    5  A    between atoms: C_10  and  C_11
REMARK                            x       y       z     vdW  Elec       q    Type
REMARK                         _______ _______ _______ _____ _____    ______ ____
ROOT
ATOM      1  C   UNL     1       5.201   6.677  18.093  0.00  0.00    +0.000 C 
ATOM      2  N   UNL     1       4.377   5.651  18.736  0.00  0.00    +0.000 NA
ATOM      3  C   UNL     1       3.202   5.932  19.189  0.00  0.00    +0.000 C 
ATOM      4  C   UNL     1       2.570   7.288  19.140  0.00  0.00    +0.000 A 
ATOM      5  C   UNL     1       1.810   7.713  20.245  0.00  0.00    +0.000 A 
ATOM      6  C   UNL     1       1.090   8.908  20.196  0.00  0.00    +0.000 A 
ATOM      7  C   UNL     1       1.119   9.688  19.046  0.00  0.00    +0.000 A 
ATOM      8  C   UNL     1       1.873   9.280  17.948  0.00  0.00    +0.000 A 
ATOM      9  C   UNL     1       2.626   8.098  17.996  0.00  0.00    +0.000 A 
ATOM     10  N   UNL     1       3.372   7.803  16.849  0.00  0.00    +0.000 N 
ATOM     11  C   UNL     1       4.533   7.081  16.771  0.00  0.00    +0.000 C 
ATOM     12  O   UNL     1       5.020   6.883  15.655  0.00  0.00    +0.000 OA
ATOM     13  H   UNL     1       3.127   8.247  15.972  0.00  0.00    +0.000 HD
ENDROOT
BRANCH   3  14
ATOM     14  C   UNL     1       2.432   4.781  19.774  0.00  0.00    +0.000 A 
ATOM     15  C   UNL     1       2.665   4.414  21.106  0.00  0.00    +0.000 A 
ATOM     16  C   UNL     1       2.014   3.309  21.658  0.00  0.00    +0.000 A 
ATOM     17  C   UNL     1       1.129   2.564  20.881  0.00  0.00    +0.000 A 
ATOM     18  C   UNL     1       0.893   2.921  19.553  0.00  0.00    +0.000 A 
ATOM     19  C   UNL     1       1.549   4.022  18.997  0.00  0.00    +0.000 A 
ENDBRANCH   3  14
BRANCH   1  20
ATOM     20  C   UNL     1       6.586   6.050  17.877  0.00  0.00    +0.000 C 
BRANCH  20  21
ATOM     21  C   UNL     1       6.572   4.520  17.858  0.00  0.00    +0.000 C 
BRANCH  21  22
ATOM     22  C   UNL     1       6.406   3.996  16.434  0.00  0.00    +0.000 C 
BRANCH  22  26
ATOM     23  N   UNL     1       6.484   3.787  13.562  0.00  0.00    +0.000 NA
ATOM     24  C   UNL     1       7.182   4.658  14.195  0.00  0.00    +0.000 C 
ATOM     25  N   UNL     1       7.940   5.580  13.567  0.00  0.00    +0.000 N 
ATOM     26  N   UNL     1       7.250   4.760  15.534  0.00  0.00    +0.000 N 
ATOM     27  H   UNL     1       6.576   3.935  12.559  0.00  0.00    +0.000 HD
ATOM     28  H   UNL     1       8.153   5.365  12.603  0.00  0.00    +0.000 HD
ATOM     29  H   UNL     1       8.772   5.845  14.078  0.00  0.00    +0.000 HD
ATOM     30  H   UNL     1       7.649   5.600  15.932  0.00  0.00    +0.000 HD
ENDBRANCH  22  26
ENDBRANCH  21  22
ENDBRANCH  20  21
ENDBRANCH   1  20
TORSDOF 5
ENDMDL
MODEL 9
REMARK VINA RESULT:      -8.5      2.502      6.900
REMARK  Name = 
REMARK  5 active torsions:
REMARK  status: ('A' for Active; 'I' for Inactive)
REMARK    1  A    between atoms: N_4  and  C_5
REMARK    2  A    between atoms: C_5  and  C_6
REMARK    3  A    between atoms: C_6  and  C_7
REMARK    4  A    between atoms: C_7  and  C_8
REMARK    5  A    between atoms: C_10  and  C_11
REMARK                            x       y       z     vdW  Elec       q    Type
REMARK                         _______ _______ _______ _____ _____    ______ ____
ROOT
ATOM      1  C   UNL     1       3.759   3.893  17.556  0.00  0.00    +0.000 C 
ATOM      2  N   UNL     1       4.360   3.907  16.219  0.00  0.00    +0.000 NA
ATOM      3  C   UNL     1       5.454   4.551  15.991  0.00  0.00    +0.000 C 
ATOM      4  C   UNL     1       6.203   5.350  17.011  0.00  0.00    +0.000 A 
ATOM      5  C   UNL     1       6.787   6.566  16.612  0.00  0.00    +0.000 A 
ATOM      6  C   UNL     1       7.608   7.283  17.485  0.00  0.00    +0.000 A 
ATOM      7  C   UNL     1       7.856   6.792  18.762  0.00  0.00    +0.000 A 
ATOM      8  C   UNL     1       7.277   5.591  19.170  0.00  0.00    +0.000 A 
ATOM      9  C   UNL     1       6.425   4.879  18.314  0.00  0.00    +0.000 A 
ATOM     10  N   UNL     1       5.874   3.705  18.839  0.00  0.00    +0.000 N 
ATOM     11  C   UNL     1       4.687   3.115  18.499  0.00  0.00    +0.000 C 
ATOM     12  O   UNL     1       4.393   2.047  19.040  0.00  0.00    +0.000 OA
ATOM     13  H   UNL     1       6.312   3.271  19.644  0.00  0.00    +0.000 HD
ENDROOT
BRANCH   3  14
ATOM     14  C   UNL     1       6.001   4.440  14.595  0.00  0.00    +0.000 A 
ATOM     15  C   UNL     1       5.324   3.645  13.661  0.00  0.00    +0.000 A 
ATOM     16  C   UNL     1       5.843   3.470  12.376  0.00  0.00    +0.000 A 
ATOM     17  C   UNL     1       7.040   4.087  12.019  0.00  0.00    +0.000 A 
ATOM     18  C   UNL     1       7.722   4.877  12.944  0.00  0.00    +0.000 A 
ATOM     19  C   UNL     1       7.209   5.049  14.232  0.00  0.00    +0.000 A 
ENDBRANCH   3  14
BRANCH   1  20
ATOM     20  C   UNL     1       2.385   3.224  17.407  0.00  0.00    +0.000 C 
BRANCH  20  21
ATOM     21  C   UNL     1       1.266   3.943  18.164  0.00  0.00    +0.000 C 
BRANCH  21  22
ATOM     22  C   UNL     1       1.433   3.772  19.672  0.00  0.00    +0.000 C 
BRANCH  22  26
ATOM     23  N   UNL     1       3.389   5.828  20.170  0.00  0.00    +0.000 NA
ATOM     24  C   UNL     1       2.151   5.986  20.469  0.00  0.00    +0.000 C 
ATOM     25  N   UNL     1       1.663   7.142  20.966  0.00  0.00    +0.000 N 
ATOM     26  N   UNL     1       1.202   5.043  20.333  0.00  0.00    +0.000 N 
ATOM     27  H   UNL     1       3.895   6.695  20.335  0.00  0.00    +0.000 HD
ATOM     28  H   UNL     1       2.361   7.761  21.355  0.00  0.00    +0.000 HD
ATOM     29  H   UNL     1       0.883   7.020  21.599  0.00  0.00    +0.000 HD
ATOM     30  H   UNL     1       0.233   5.325  20.390  0.00  0.00    +0.000 HD
ENDBRANCH  22  26
ENDBRANCH  21  22
ENDBRANCH  20  21
ENDBRANCH   1  20
TORSDOF 5
ENDMDL
