MODEL 1
REMARK VINA RESULT:      -8.7      0.000      0.000
REMARK  Name = 
REMARK  5 active torsions:
REMARK  status: ('A' for Active; 'I' for Inactive)
REMARK    1  A    between atoms: C_1  and  O_2
REMARK    2  A    between atoms: O_2  and  C_3
REMARK    3  A    between atoms: C_5  and  C_6
REMARK    4  A    between atoms: C_17  and  O_18
REMARK    5  A    between atoms: C_25  and  N_26
REMARK                            x       y       z     vdW  Elec       q    Type
REMARK                         _______ _______ _______ _____ _____    ______ ____
ROOT
ATOM      1  C   UNL     1       3.051   7.142  18.402  0.00  0.00    +0.000 A 
ATOM      2  C   UNL     1       2.660   6.666  19.671  0.00  0.00    +0.000 A 
ATOM      3  C   UNL     1       1.747   7.361  20.456  0.00  0.00    +0.000 A 
ATOM      4  C   UNL     1       1.176   8.530  19.964  0.00  0.00    +0.000 A 
ATOM      5  C   UNL     1       1.398   8.956  18.640  0.00  0.00    +0.000 A 
ATOM      6  C   UNL     1       2.392   8.284  17.903  0.00  0.00    +0.000 A 
ATOM      7  N   UNL     1       0.729  10.048  18.023  0.00  0.00    +0.000 N 
ATOM      8  C   UNL     1      -0.386  10.780  18.511  0.00  0.00    +0.000 A 
ATOM      9  C   UNL     1      -1.495  11.010  17.691  0.00  0.00    +0.000 A 
ATOM     10  C   UNL     1      -2.640  11.640  18.201  0.00  0.00    +0.000 A 
ATOM     11  C   UNL     1      -2.677  12.095  19.523  0.00  0.00    +0.000 A 
ATOM     12  C   UNL     1      -1.588  11.867  20.350  0.00  0.00    +0.000 A 
ATOM     13  C   UNL     1      -0.480  11.179  19.860  0.00  0.00    +0.000 A 
ATOM     14  N   UNL     1       0.509  10.698  20.756  0.00  0.00    +0.000 N 
ATOM     15  C   UNL     1       0.356   9.323  20.907  0.00  0.00    +0.000 C 
ATOM     16  O   UNL     1      -0.403   8.773  21.696  0.00  0.00    +0.000 OA
ATOM     17  H   UNL     1       0.742   9.994  17.008  0.00  0.00    +0.000 HD
ATOM     18  H   UNL     1       1.408  10.865  20.311  0.00  0.00    +0.000 HD
ENDROOT
BRANCH   1  21
ATOM     19  C   UNL     1       6.438   6.430  16.845  0.00  0.00    +0.000 A 
ATOM     20  C   UNL     1       5.361   7.086  17.446  0.00  0.00    +0.000 A 
ATOM     21  C   UNL     1       4.121   6.451  17.651  0.00  0.00    +0.000 A 
ATOM     22  C   UNL     1       3.968   5.163  17.121  0.00  0.00    +0.000 A 
ATOM     23  C   UNL     1       5.017   4.528  16.444  0.00  0.00    +0.000 A 
ATOM     24  C   UNL     1       6.274   5.129  16.349  0.00  0.00    +0.000 A 
BRANCH  24  25
ATOM     25  N   UNL     1       7.284   4.514  15.589  0.00  0.00    +0.000 N 
ATOM     26  H   UNL     1       7.876   5.163  15.086  0.00  0.00    +0.000 HD
ATOM     27  H   UNL     1       6.898   3.777  15.000  0.00  0.00    +0.000 HD
ENDBRANCH  24  25
BRANCH  19  29
ATOM     28  C   UNL     1       7.923   8.118  17.568  0.00  0.00    +0.000 C 
ATOM     29  O   UNL     1       7.688   6.994  16.720  0.00  0.00    +0.000 OA
ENDBRANCH  19  29
ENDBRANCH   1  21
BRANCH  12  30
ATOM     30  O   UNL     1      -1.586  12.290  21.647  0.00  0.00    +0.000 OA
ATOM     31  H   UNL     1      -1.858  11.560  22.221  0.00  0.00    +0.000 HD
ENDBRANCH  12  30
TORSDOF 4
ENDMDL
MODEL 2
REMARK VINA RESULT:      -8.7      2.802      8.383
REMARK  Name = 
REMARK  5 active torsions:
REMARK  status: ('A' for Active; 'I' for Inactive)
REMARK    1  A    between atoms: C_1  and  O_2
REMARK    2  A    between atoms: O_2  and  C_3
REMARK    3  A    between atoms: C_5  and  C_6
REMARK    4  A    between atoms: C_17  and  O_18
REMARK    5  A    between atoms: C_25  and  N_26
REMARK                            x       y       z     vdW  Elec       q    Type
REMARK                         _______ _______ _______ _____ _____    ______ ____
ROOT
ATOM      1  C   UNL     1       1.173   9.593  19.063  0.00  0.00    +0.000 A 
ATOM      2  C   UNL     1       1.844   9.400  17.837  0.00  0.00    +0.000 A 
ATOM      3  C   UNL     1       2.605   8.261  17.599  0.00  0.00    +0.000 A 
ATOM      4  C   UNL     1       2.676   7.272  18.575  0.00  0.00    +0.000 A 
ATOM      5  C   UNL     1       1.890   7.335  19.743  0.00  0.00    +0.000 A 
ATOM      6  C   UNL     1       1.201   8.536  19.995  0.00  0.00    +0.000 A 
ATOM      7  N   UNL     1       1.795   6.292  20.704  0.00  0.00    +0.000 N 
ATOM      8  C   UNL     1       2.283   4.962  20.605  0.00  0.00    +0.000 A 
ATOM      9  C   UNL     1       1.452   3.879  20.907  0.00  0.00    +0.000 A 
ATOM     10  C   UNL     1       1.896   2.563  20.708  0.00  0.00    +0.000 A 
ATOM     11  C   UNL     1       3.194   2.307  20.255  0.00  0.00    +0.000 A 
ATOM     12  C   UNL     1       4.026   3.371  19.945  0.00  0.00    +0.000 A 
ATOM     13  C   UNL     1       3.559   4.677  20.076  0.00  0.00    +0.000 A 
ATOM     14  N   UNL     1       4.287   5.752  19.506  0.00  0.00    +0.000 N 
ATOM     15  C   UNL     1       3.641   6.174  18.347  0.00  0.00    +0.000 C 
ATOM     16  O   UNL     1       3.788   5.689  17.232  0.00  0.00    +0.000 OA
ATOM     17  H   UNL     1       0.951   6.352  21.267  0.00  0.00    +0.000 HD
ATOM     18  H   UNL     1       4.252   6.514  20.178  0.00  0.00    +0.000 HD
ENDROOT
BRANCH   1  21
ATOM     19  C   UNL     1      -1.616  12.137  19.457  0.00  0.00    +0.000 A 
ATOM     20  C   UNL     1      -0.902  10.989  19.106  0.00  0.00    +0.000 A 
ATOM     21  C   UNL     1       0.482  10.873  19.334  0.00  0.00    +0.000 A 
ATOM     22  C   UNL     1       1.147  12.005  19.824  0.00  0.00    +0.000 A 
ATOM     23  C   UNL     1       0.452  13.189  20.101  0.00  0.00    +0.000 A 
ATOM     24  C   UNL     1      -0.937  13.249  19.975  0.00  0.00    +0.000 A 
BRANCH  24  25
ATOM     25  N   UNL     1      -1.602  14.472  20.172  0.00  0.00    +0.000 N 
ATOM     26  H   UNL     1      -1.760  14.999  19.322  0.00  0.00    +0.000 HD
ATOM     27  H   UNL     1      -1.152  15.016  20.908  0.00  0.00    +0.000 HD
ENDBRANCH  24  25
BRANCH  19  29
ATOM     28  C   UNL     1      -3.545  11.480  18.264  0.00  0.00    +0.000 C 
ATOM     29  O   UNL     1      -2.984  12.241  19.333  0.00  0.00    +0.000 OA
ENDBRANCH  19  29
ENDBRANCH   1  21
BRANCH  12  30
ATOM     30  O   UNL     1       5.298   3.164  19.495  0.00  0.00    +0.000 OA
ATOM     31  H   UNL     1       5.917   3.265  20.232  0.00  0.00    +0.000 HD
ENDBRANCH  12  30
TORSDOF 4
ENDMDL
MODEL 3
REMARK VINA RESULT:      -8.7      2.823      8.350
REMARK  Name = 
REMARK  5 active torsions:
REMARK  status: ('A' for Active; 'I' for Inactive)
REMARK    1  A    between atoms: C_1  and  O_2
REMARK    2  A    between atoms: O_2  and  C_3
REMARK    3  A    between atoms: C_5  and  C_6
REMARK    4  A    between atoms: C_17  and  O_18
REMARK    5  A    between atoms: C_25  and  N_26
REMARK                            x       y       z     vdW  Elec       q    Type
REMARK                         _______ _______ _______ _____ _____    ______ ____
ROOT
ATOM      1  C   UNL     1       1.317   9.557  19.164  0.00  0.00    +0.000 A 
ATOM      2  C   UNL     1       1.952   9.374  17.918  0.00  0.00    +0.000 A 
ATOM      3  C   UNL     1       2.665   8.216  17.631  0.00  0.00    +0.000 A 
ATOM      4  C   UNL     1       2.723   7.199  18.578  0.00  0.00    +0.000 A 
ATOM      5  C   UNL     1       1.967   7.256  19.766  0.00  0.00    +0.000 A 
ATOM      6  C   UNL     1       1.328   8.474  20.066  0.00  0.00    +0.000 A 
ATOM      7  N   UNL     1       1.855   6.190  20.700  0.00  0.00    +0.000 N 
ATOM      8  C   UNL     1       2.293   4.847  20.553  0.00  0.00    +0.000 A 
ATOM      9  C   UNL     1       1.430   3.786  20.844  0.00  0.00    +0.000 A 
ATOM     10  C   UNL     1       1.821   2.461  20.600  0.00  0.00    +0.000 A 
ATOM     11  C   UNL     1       3.098   2.172  20.109  0.00  0.00    +0.000 A 
ATOM     12  C   UNL     1       3.961   3.214  19.808  0.00  0.00    +0.000 A 
ATOM     13  C   UNL     1       3.545   4.532  19.986  0.00  0.00    +0.000 A 
ATOM     14  N   UNL     1       4.298   5.596  19.428  0.00  0.00    +0.000 N 
ATOM     15  C   UNL     1       3.642   6.073  18.297  0.00  0.00    +0.000 C 
ATOM     16  O   UNL     1       3.746   5.615  17.166  0.00  0.00    +0.000 OA
ATOM     17  H   UNL     1       1.027   6.265  21.284  0.00  0.00    +0.000 HD
ATOM     18  H   UNL     1       4.307   6.339  20.122  0.00  0.00    +0.000 HD
ENDROOT
BRANCH   1  21
ATOM     19  C   UNL     1      -0.968  12.108  20.802  0.00  0.00    +0.000 A 
ATOM     20  C   UNL     1      -0.410  10.899  20.377  0.00  0.00    +0.000 A 
ATOM     21  C   UNL     1       0.679  10.852  19.487  0.00  0.00    +0.000 A 
ATOM     22  C   UNL     1       1.115  12.068  18.944  0.00  0.00    +0.000 A 
ATOM     23  C   UNL     1       0.507  13.279  19.300  0.00  0.00    +0.000 A 
ATOM     24  C   UNL     1      -0.497  13.317  20.270  0.00  0.00    +0.000 A 
BRANCH  24  25
ATOM     25  N   UNL     1      -1.153  14.530  20.546  0.00  0.00    +0.000 N 
ATOM     26  H   UNL     1      -0.619  15.354  20.298  0.00  0.00    +0.000 HD
ATOM     27  H   UNL     1      -1.501  14.545  21.503  0.00  0.00    +0.000 HD
ENDBRANCH  24  25
BRANCH  19  29
ATOM     28  C   UNL     1      -1.658  11.575  22.996  0.00  0.00    +0.000 C 
ATOM     29  O   UNL     1      -1.969  12.186  21.744  0.00  0.00    +0.000 OA
ENDBRANCH  19  29
ENDBRANCH   1  21
BRANCH  12  30
ATOM     30  O   UNL     1       5.214   2.975  19.323  0.00  0.00    +0.000 OA
ATOM     31  H   UNL     1       5.226   3.149  18.371  0.00  0.00    +0.000 HD
ENDBRANCH  12  30
TORSDOF 4
ENDMDL
MODEL 4
REMARK VINA RESULT:      -8.7      3.067      8.023
REMARK  Name = 
REMARK  5 active torsions:
REMARK  status: ('A' for Active; 'I' for Inactive)
REMARK    1  A    between atoms: C_1  and  O_2
REMARK    2  A    between atoms: O_2  and  C_3
REMARK    3  A    between atoms: C_5  and  C_6
REMARK    4  A    between atoms: C_17  and  O_18
REMARK    5  A    between atoms: C_25  and  N_26
REMARK                            x       y       z     vdW  Elec       q    Type
REMARK                         _______ _______ _______ _____ _____    ______ ____
ROOT
ATOM      1  C   UNL     1       1.241   9.614  19.047  0.00  0.00    +0.000 A 
ATOM      2  C   UNL     1       1.929   9.410  17.833  0.00  0.00    +0.000 A 
ATOM      3  C   UNL     1       2.670   8.257  17.605  0.00  0.00    +0.000 A 
ATOM      4  C   UNL     1       2.704   7.264  18.579  0.00  0.00    +0.000 A 
ATOM      5  C   UNL     1       1.898   7.340  19.733  0.00  0.00    +0.000 A 
ATOM      6  C   UNL     1       1.230   8.554  19.977  0.00  0.00    +0.000 A 
ATOM      7  N   UNL     1       1.763   6.296  20.689  0.00  0.00    +0.000 N 
ATOM      8  C   UNL     1       2.225   4.956  20.594  0.00  0.00    +0.000 A 
ATOM      9  C   UNL     1       1.366   3.890  20.877  0.00  0.00    +0.000 A 
ATOM     10  C   UNL     1       1.786   2.565  20.682  0.00  0.00    +0.000 A 
ATOM     11  C   UNL     1       3.086   2.283  20.251  0.00  0.00    +0.000 A 
ATOM     12  C   UNL     1       3.946   3.331  19.960  0.00  0.00    +0.000 A 
ATOM     13  C   UNL     1       3.504   4.646  20.087  0.00  0.00    +0.000 A 
ATOM     14  N   UNL     1       4.264   5.707  19.534  0.00  0.00    +0.000 N 
ATOM     15  C   UNL     1       3.649   6.146  18.365  0.00  0.00    +0.000 C 
ATOM     16  O   UNL     1       3.806   5.661  17.251  0.00  0.00    +0.000 OA
ATOM     17  H   UNL     1       0.911   6.373  21.236  0.00  0.00    +0.000 HD
ATOM     18  H   UNL     1       4.234   6.468  20.208  0.00  0.00    +0.000 HD
ENDROOT
BRANCH   1  21
ATOM     19  C   UNL     1       0.613  13.356  19.168  0.00  0.00    +0.000 A 
ATOM     20  C   UNL     1       1.244  12.115  19.045  0.00  0.00    +0.000 A 
ATOM     21  C   UNL     1       0.572  10.907  19.311  0.00  0.00    +0.000 A 
ATOM     22  C   UNL     1      -0.731  10.999  19.819  0.00  0.00    +0.000 A 
ATOM     23  C   UNL     1      -1.343  12.242  20.024  0.00  0.00    +0.000 A 
ATOM     24  C   UNL     1      -0.702  13.425  19.649  0.00  0.00    +0.000 A 
BRANCH  24  25
ATOM     25  N   UNL     1      -1.298  14.663  19.945  0.00  0.00    +0.000 N 
ATOM     26  H   UNL     1      -1.789  15.082  19.166  0.00  0.00    +0.000 HD
ATOM     27  H   UNL     1      -0.628  15.292  20.388  0.00  0.00    +0.000 HD
ENDBRANCH  24  25
BRANCH  19  29
ATOM     28  C   UNL     1       2.558  14.418  18.350  0.00  0.00    +0.000 C 
ATOM     29  O   UNL     1       1.217  14.545  18.823  0.00  0.00    +0.000 OA
ENDBRANCH  19  29
ENDBRANCH   1  21
BRANCH  12  30
ATOM     30  O   UNL     1       5.221   3.098  19.533  0.00  0.00    +0.000 OA
ATOM     31  H   UNL     1       5.415   3.674  18.779  0.00  0.00    +0.000 HD
ENDBRANCH  12  30
TORSDOF 4
ENDMDL
MODEL 5
REMARK VINA RESULT:      -8.6      2.974      8.189
REMARK  Name = 
REMARK  5 active torsions:
REMARK  status: ('A' for Active; 'I' for Inactive)
REMARK    1  A    between atoms: C_1  and  O_2
REMARK    2  A    between atoms: O_2  and  C_3
REMARK    3  A    between atoms: C_5  and  C_6
REMARK    4  A    between atoms: C_17  and  O_18
REMARK    5  A    between atoms: C_25  and  N_26
REMARK                            x       y       z     vdW  Elec       q    Type
REMARK                         _______ _______ _______ _____ _____    ______ ____
ROOT
ATOM      1  C   UNL     1       1.120   9.666  19.471  0.00  0.00    +0.000 A 
ATOM      2  C   UNL     1       1.740   9.555  18.209  0.00  0.00    +0.000 A 
ATOM      3  C   UNL     1       2.475   8.428  17.859  0.00  0.00    +0.000 A 
ATOM      4  C   UNL     1       2.571   7.370  18.757  0.00  0.00    +0.000 A 
ATOM      5  C   UNL     1       1.831   7.356  19.957  0.00  0.00    +0.000 A 
ATOM      6  C   UNL     1       1.169   8.543  20.322  0.00  0.00    +0.000 A 
ATOM      7  N   UNL     1       1.758   6.246  20.842  0.00  0.00    +0.000 N 
ATOM      8  C   UNL     1       2.224   4.921  20.627  0.00  0.00    +0.000 A 
ATOM      9  C   UNL     1       1.390   3.829  20.881  0.00  0.00    +0.000 A 
ATOM     10  C   UNL     1       1.808   2.526  20.571  0.00  0.00    +0.000 A 
ATOM     11  C   UNL     1       3.083   2.289  20.049  0.00  0.00    +0.000 A 
ATOM     12  C   UNL     1       3.918   3.364  19.785  0.00  0.00    +0.000 A 
ATOM     13  C   UNL     1       3.474   4.662  20.029  0.00  0.00    +0.000 A 
ATOM     14  N   UNL     1       4.194   5.768  19.511  0.00  0.00    +0.000 N 
ATOM     15  C   UNL     1       3.511   6.281  18.412  0.00  0.00    +0.000 C 
ATOM     16  O   UNL     1       3.608   5.877  17.259  0.00  0.00    +0.000 OA
ATOM     17  H   UNL     1       0.937   6.275  21.440  0.00  0.00    +0.000 HD
ATOM     18  H   UNL     1       4.196   6.479  20.237  0.00  0.00    +0.000 HD
ENDROOT
BRANCH   1  21
ATOM     19  C   UNL     1       0.532  13.031  21.125  0.00  0.00    +0.000 A 
ATOM     20  C   UNL     1       1.060  11.775  20.812  0.00  0.00    +0.000 A 
ATOM     21  C   UNL     1       0.458  10.929  19.862  0.00  0.00    +0.000 A 
ATOM     22  C   UNL     1      -0.766  11.344  19.320  0.00  0.00    +0.000 A 
ATOM     23  C   UNL     1      -1.346  12.565  19.691  0.00  0.00    +0.000 A 
ATOM     24  C   UNL     1      -0.679  13.441  20.549  0.00  0.00    +0.000 A 
BRANCH  24  25
ATOM     25  N   UNL     1      -1.318  14.618  20.976  0.00  0.00    +0.000 N 
ATOM     26  H   UNL     1      -0.683  15.364  21.231  0.00  0.00    +0.000 HD
ATOM     27  H   UNL     1      -2.013  14.414  21.693  0.00  0.00    +0.000 HD
ENDBRANCH  24  25
BRANCH  19  29
ATOM     28  C   UNL     1       2.322  14.537  21.446  0.00  0.00    +0.000 C 
ATOM     29  O   UNL     1       1.151  13.917  21.978  0.00  0.00    +0.000 OA
ENDBRANCH  19  29
ENDBRANCH   1  21
BRANCH  12  30
ATOM     30  O   UNL     1       5.168   3.176  19.272  0.00  0.00    +0.000 OA
ATOM     31  H   UNL     1       5.320   2.230  19.139  0.00  0.00    +0.000 HD
ENDBRANCH  12  30
TORSDOF 4
ENDMDL
MODEL 6
REMARK VINA RESULT:      -8.5      2.896      8.627
REMARK  Name = 
REMARK  5 active torsions:
REMARK  status: ('A' for Active; 'I' for Inactive)
REMARK    1  A    between atoms: C_1  and  O_2
REMARK    2  A    between atoms: O_2  and  C_3
REMARK    3  A    between atoms: C_5  and  C_6
REMARK    4  A    between atoms: C_17  and  O_18
REMARK    5  A    between atoms: C_25  and  N_26
REMARK                            x       y       z     vdW  Elec       q    Type
REMARK                         _______ _______ _______ _____ _____    ______ ____
ROOT
ATOM      1  C   UNL     1       0.785   9.062  20.448  0.00  0.00    +0.000 A 
ATOM      2  C   UNL     1       1.336   9.335  19.179  0.00  0.00    +0.000 A 
ATOM      3  C   UNL     1       2.194   8.439  18.553  0.00  0.00    +0.000 A 
ATOM      4  C   UNL     1       2.487   7.229  19.174  0.00  0.00    +0.000 A 
ATOM      5  C   UNL     1       1.832   6.832  20.357  0.00  0.00    +0.000 A 
ATOM      6  C   UNL     1       1.038   7.794  21.010  0.00  0.00    +0.000 A 
ATOM      7  N   UNL     1       1.964   5.550  20.958  0.00  0.00    +0.000 N 
ATOM      8  C   UNL     1       2.591   4.393  20.424  0.00  0.00    +0.000 A 
ATOM      9  C   UNL     1       1.930   3.161  20.437  0.00  0.00    +0.000 A 
ATOM     10  C   UNL     1       2.501   2.040  19.817  0.00  0.00    +0.000 A 
ATOM     11  C   UNL     1       3.763   2.118  19.219  0.00  0.00    +0.000 A 
ATOM     12  C   UNL     1       4.426   3.335  19.192  0.00  0.00    +0.000 A 
ATOM     13  C   UNL     1       3.826   4.463  19.747  0.00  0.00    +0.000 A 
ATOM     14  N   UNL     1       4.356   5.752  19.483  0.00  0.00    +0.000 N 
ATOM     15  C   UNL     1       3.544   6.397  18.556  0.00  0.00    +0.000 C 
ATOM     16  O   UNL     1       3.624   6.287  17.338  0.00  0.00    +0.000 OA
ATOM     17  H   UNL     1       1.185   5.321  21.569  0.00  0.00    +0.000 HD
ATOM     18  H   UNL     1       4.307   6.270  20.357  0.00  0.00    +0.000 HD
ENDROOT
BRANCH   1  21
ATOM     19  C   UNL     1      -1.308  12.175  21.030  0.00  0.00    +0.000 A 
ATOM     20  C   UNL     1      -0.453  11.235  20.448  0.00  0.00    +0.000 A 
ATOM     21  C   UNL     1      -0.017  10.092  21.144  0.00  0.00    +0.000 A 
ATOM     22  C   UNL     1      -0.381   9.987  22.494  0.00  0.00    +0.000 A 
ATOM     23  C   UNL     1      -1.171  10.968  23.109  0.00  0.00    +0.000 A 
ATOM     24  C   UNL     1      -1.686  12.036  22.373  0.00  0.00    +0.000 A 
BRANCH  24  25
ATOM     25  N   UNL     1      -2.401  13.053  23.030  0.00  0.00    +0.000 N 
ATOM     26  H   UNL     1      -2.618  12.847  23.997  0.00  0.00    +0.000 HD
ATOM     27  H   UNL     1      -3.213  13.337  22.484  0.00  0.00    +0.000 HD
ENDBRANCH  24  25
BRANCH  19  29
ATOM     28  C   UNL     1      -0.851  14.079  19.710  0.00  0.00    +0.000 C 
ATOM     29  O   UNL     1      -1.826  13.249  20.342  0.00  0.00    +0.000 OA
ENDBRANCH  19  29
ENDBRANCH   1  21
BRANCH  12  30
ATOM     30  O   UNL     1       5.656   3.455  18.614  0.00  0.00    +0.000 OA
ATOM     31  H   UNL     1       6.317   3.621  19.302  0.00  0.00    +0.000 HD
ENDBRANCH  12  30
TORSDOF 4
ENDMDL
MODEL 7
REMARK VINA RESULT:      -8.4      2.802      3.978
REMARK  Name = 
REMARK  5 active torsions:
REMARK  status: ('A' for Active; 'I' for Inactive)
REMARK    1  A    between atoms: C_1  and  O_2
REMARK    2  A    between atoms: O_2  and  C_3
REMARK    3  A    between atoms: C_5  and  C_6
REMARK    4  A    between atoms: C_17  and  O_18
REMARK    5  A    between atoms: C_25  and  N_26
REMARK                            x       y       z     vdW  Elec       q    Type
REMARK                         _______ _______ _______ _____ _____    ______ ____
ROOT
ATOM      1  C   UNL     1       2.412   7.252  19.366  0.00  0.00    +0.000 A 
ATOM      2  C   UNL     1       2.666   8.102  18.269  0.00  0.00    +0.000 A 
ATOM      3  C   UNL     1       1.958   9.286  18.090  0.00  0.00    +0.000 A 
ATOM      4  C   UNL     1       1.006   9.660  19.033  0.00  0.00    +0.000 A 
ATOM      5  C   UNL     1       0.836   8.938  20.231  0.00  0.00    +0.000 A 
ATOM      6  C   UNL     1       1.500   7.702  20.342  0.00  0.00    +0.000 A 
ATOM      7  N   UNL     1      -0.002   9.349  21.304  0.00  0.00    +0.000 N 
ATOM      8  C   UNL     1      -0.657  10.597  21.476  0.00  0.00    +0.000 A 
ATOM      9  C   UNL     1      -0.557  11.287  22.688  0.00  0.00    +0.000 A 
ATOM     10  C   UNL     1      -1.113  12.568  22.827  0.00  0.00    +0.000 A 
ATOM     11  C   UNL     1      -1.820  13.158  21.776  0.00  0.00    +0.000 A 
ATOM     12  C   UNL     1      -1.921  12.488  20.566  0.00  0.00    +0.000 A 
ATOM     13  C   UNL     1      -1.309  11.247  20.408  0.00  0.00    +0.000 A 
ATOM     14  N   UNL     1      -1.165  10.686  19.114  0.00  0.00    +0.000 N 
ATOM     15  C   UNL     1       0.157  10.826  18.702  0.00  0.00    +0.000 C 
ATOM     16  O   UNL     1       0.633  11.814  18.156  0.00  0.00    +0.000 OA
ATOM     17  H   UNL     1       0.257   8.923  22.190  0.00  0.00    +0.000 HD
ATOM     18  H   UNL     1      -1.360   9.692  19.206  0.00  0.00    +0.000 HD
ENDROOT
BRANCH   1  21
ATOM     19  C   UNL     1       2.968   3.556  20.024  0.00  0.00    +0.000 A 
ATOM     20  C   UNL     1       2.417   4.840  20.024  0.00  0.00    +0.000 A 
ATOM     21  C   UNL     1       3.087   5.939  19.456  0.00  0.00    +0.000 A 
ATOM     22  C   UNL     1       4.391   5.722  18.989  0.00  0.00    +0.000 A 
ATOM     23  C   UNL     1       4.984   4.455  19.061  0.00  0.00    +0.000 A 
ATOM     24  C   UNL     1       4.263   3.353  19.524  0.00  0.00    +0.000 A 
BRANCH  24  25
ATOM     25  N   UNL     1       4.906   2.112  19.671  0.00  0.00    +0.000 N 
ATOM     26  H   UNL     1       5.906   2.144  19.514  0.00  0.00    +0.000 HD
ATOM     27  H   UNL     1       4.433   1.391  19.127  0.00  0.00    +0.000 HD
ENDBRANCH  24  25
BRANCH  19  29
ATOM     28  C   UNL     1       1.439   2.691  21.602  0.00  0.00    +0.000 C 
ATOM     29  O   UNL     1       2.295   2.447  20.486  0.00  0.00    +0.000 OA
ENDBRANCH  19  29
ENDBRANCH   1  21
BRANCH  12  30
ATOM     30  O   UNL     1      -2.599  13.032  19.514  0.00  0.00    +0.000 OA
ATOM     31  H   UNL     1      -2.942  13.900  19.769  0.00  0.00    +0.000 HD
ENDBRANCH  12  30
TORSDOF 4
ENDMDL
MODEL 8
REMARK VINA RESULT:      -8.4      2.323      3.209
REMARK  Name = 
REMARK  5 active torsions:
REMARK  status: ('A' for Active; 'I' for Inactive)
REMARK    1  A    between atoms: C_1  and  O_2
REMARK    2  A    between atoms: O_2  and  C_3
REMARK    3  A    between atoms: C_5  and  C_6
REMARK    4  A    between atoms: C_17  and  O_18
REMARK    5  A    between atoms: C_25  and  N_26
REMARK                            x       y       z     vdW  Elec       q    Type
REMARK                         _______ _______ _______ _____ _____    ______ ____
ROOT
ATOM      1  C   UNL     1       2.303   7.257  19.356  0.00  0.00    +0.000 A 
ATOM      2  C   UNL     1       2.577   8.126  18.280  0.00  0.00    +0.000 A 
ATOM      3  C   UNL     1       1.892   9.326  18.124  0.00  0.00    +0.000 A 
ATOM      4  C   UNL     1       0.943   9.696  19.071  0.00  0.00    +0.000 A 
ATOM      5  C   UNL     1       0.753   8.951  20.252  0.00  0.00    +0.000 A 
ATOM      6  C   UNL     1       1.395   7.701  20.338  0.00  0.00    +0.000 A 
ATOM      7  N   UNL     1      -0.082   9.352  21.330  0.00  0.00    +0.000 N 
ATOM      8  C   UNL     1      -0.715  10.609  21.527  0.00  0.00    +0.000 A 
ATOM      9  C   UNL     1      -0.608  11.269  22.755  0.00  0.00    +0.000 A 
ATOM     10  C   UNL     1      -1.142  12.557  22.920  0.00  0.00    +0.000 A 
ATOM     11  C   UNL     1      -1.833  13.183  21.879  0.00  0.00    +0.000 A 
ATOM     12  C   UNL     1      -1.941  12.542  20.654  0.00  0.00    +0.000 A 
ATOM     13  C   UNL     1      -1.350  11.294  20.471  0.00  0.00    +0.000 A 
ATOM     14  N   UNL     1      -1.210  10.759  19.165  0.00  0.00    +0.000 N 
ATOM     15  C   UNL     1       0.117  10.884  18.763  0.00  0.00    +0.000 C 
ATOM     16  O   UNL     1       0.613  11.875  18.241  0.00  0.00    +0.000 OA
ATOM     17  H   UNL     1       0.165   8.902  22.207  0.00  0.00    +0.000 HD
ATOM     18  H   UNL     1      -1.423   9.768  19.234  0.00  0.00    +0.000 HD
ENDROOT
BRANCH   1  21
ATOM     19  C   UNL     1       4.986   4.577  19.174  0.00  0.00    +0.000 A 
ATOM     20  C   UNL     1       4.296   5.783  19.022  0.00  0.00    +0.000 A 
ATOM     21  C   UNL     1       2.954   5.930  19.419  0.00  0.00    +0.000 A 
ATOM     22  C   UNL     1       2.291   4.780  19.870  0.00  0.00    +0.000 A 
ATOM     23  C   UNL     1       2.951   3.547  19.948  0.00  0.00    +0.000 A 
ATOM     24  C   UNL     1       4.313   3.445  19.656  0.00  0.00    +0.000 A 
BRANCH  24  25
ATOM     25  N   UNL     1       4.932   2.183  19.655  0.00  0.00    +0.000 N 
ATOM     26  H   UNL     1       4.337   1.431  19.980  0.00  0.00    +0.000 HD
ATOM     27  H   UNL     1       5.834   2.221  20.128  0.00  0.00    +0.000 HD
ENDBRANCH  24  25
BRANCH  19  29
ATOM     28  C   UNL     1       7.125   5.576  19.180  0.00  0.00    +0.000 C 
ATOM     29  O   UNL     1       6.324   4.433  18.883  0.00  0.00    +0.000 OA
ENDBRANCH  19  29
ENDBRANCH   1  21
BRANCH  12  30
ATOM     30  O   UNL     1      -2.604  13.121  19.611  0.00  0.00    +0.000 OA
ATOM     31  H   UNL     1      -3.543  13.199  19.833  0.00  0.00    +0.000 HD
ENDBRANCH  12  30
TORSDOF 4
ENDMDL
MODEL 9
REMARK VINA RESULT:      -8.3      1.518      2.234
REMARK  Name = 
REMARK  5 active torsions:
REMARK  status: ('A' for Active; 'I' for Inactive)
REMARK    1  A    between atoms: C_1  and  O_2
REMARK    2  A    between atoms: O_2  and  C_3
REMARK    3  A    between atoms: C_5  and  C_6
REMARK    4  A    between atoms: C_17  and  O_18
REMARK    5  A    between atoms: C_25  and  N_26
REMARK                            x       y       z     vdW  Elec       q    Type
REMARK                         _______ _______ _______ _____ _____    ______ ____
ROOT
ATOM      1  C   UNL     1       2.561   7.120  18.702  0.00  0.00    +0.000 A 
ATOM      2  C   UNL     1       2.324   6.901  20.075  0.00  0.00    +0.000 A 
ATOM      3  C   UNL     1       1.555   7.780  20.828  0.00  0.00    +0.000 A 
ATOM      4  C   UNL     1       0.974   8.881  20.207  0.00  0.00    +0.000 A 
ATOM      5  C   UNL     1       1.035   9.053  18.809  0.00  0.00    +0.000 A 
ATOM      6  C   UNL     1       1.891   8.199  18.089  0.00  0.00    +0.000 A 
ATOM      7  N   UNL     1       0.336  10.063  18.093  0.00  0.00    +0.000 N 
ATOM      8  C   UNL     1      -0.671  10.941  18.575  0.00  0.00    +0.000 A 
ATOM      9  C   UNL     1      -1.869  11.098  17.871  0.00  0.00    +0.000 A 
ATOM     10  C   UNL     1      -2.908  11.881  18.397  0.00  0.00    +0.000 A 
ATOM     11  C   UNL     1      -2.748  12.561  19.608  0.00  0.00    +0.000 A 
ATOM     12  C   UNL     1      -1.568  12.409  20.320  0.00  0.00    +0.000 A 
ATOM     13  C   UNL     1      -0.565  11.575  19.830  0.00  0.00    +0.000 A 
ATOM     14  N   UNL     1       0.513  11.193  20.668  0.00  0.00    +0.000 N 
ATOM     15  C   UNL     1       0.322   9.879  21.084  0.00  0.00    +0.000 C 
ATOM     16  O   UNL     1      -0.346   9.526  22.048  0.00  0.00    +0.000 OA
ATOM     17  H   UNL     1       0.210   9.832  17.111  0.00  0.00    +0.000 HD
ATOM     18  H   UNL     1       1.351  11.220  20.092  0.00  0.00    +0.000 HD
ENDROOT
BRANCH   1  21
ATOM     19  C   UNL     1       4.199   3.969  17.363  0.00  0.00    +0.000 A 
ATOM     20  C   UNL     1       3.423   4.844  18.127  0.00  0.00    +0.000 A 
ATOM     21  C   UNL     1       3.490   6.240  17.961  0.00  0.00    +0.000 A 
ATOM     22  C   UNL     1       4.458   6.733  17.075  0.00  0.00    +0.000 A 
ATOM     23  C   UNL     1       5.299   5.865  16.365  0.00  0.00    +0.000 A 
ATOM     24  C   UNL     1       5.141   4.481  16.459  0.00  0.00    +0.000 A 
BRANCH  24  25
ATOM     25  N   UNL     1       6.052   3.631  15.808  0.00  0.00    +0.000 N 
ATOM     26  H   UNL     1       5.971   2.657  16.074  0.00  0.00    +0.000 HD
ATOM     27  H   UNL     1       7.002   3.993  15.879  0.00  0.00    +0.000 HD
ENDBRANCH  24  25
BRANCH  19  29
ATOM     28  C   UNL     1       2.793   2.130  17.830  0.00  0.00    +0.000 C 
ATOM     29  O   UNL     1       4.083   2.599  17.437  0.00  0.00    +0.000 OA
ENDBRANCH  19  29
ENDBRANCH   1  21
BRANCH  12  30
ATOM     30  O   UNL     1      -1.374  13.052  21.508  0.00  0.00    +0.000 OA
ATOM     31  H   UNL     1      -0.441  13.297  21.589  0.00  0.00    +0.000 HD
ENDBRANCH  12  30
TORSDOF 4
ENDMDL
