MODEL 1
REMARK VINA RESULT:      -7.8      0.000      0.000
REMARK  Name = 
REMARK  5 active torsions:
REMARK  status: ('A' for Active; 'I' for Inactive)
REMARK    1  A    between atoms: C_1  and  O_2
REMARK    2  A    between atoms: O_2  and  C_3
REMARK    3  A    between atoms: C_9  and  C_10
REMARK    4  A    between atoms: C_32  and  O_33
REMARK    5  A    between atoms: O_33  and  C_34
REMARK                            x       y       z     vdW  Elec       q    Type
REMARK                         _______ _______ _______ _____ _____    ______ ____
ROOT
ATOM      1  C   UNL     1       2.583   7.305  18.403  0.00  0.00    +0.000 A 
ATOM      2  C   UNL     1       2.360   8.563  17.823  0.00  0.00    +0.000 A 
ATOM      3  C   UNL     1       1.763   9.605  18.527  0.00  0.00    +0.000 A 
ATOM      4  C   UNL     1       1.372   9.360  19.845  0.00  0.00    +0.000 A 
ATOM      5  C   UNL     1       1.567   8.122  20.448  0.00  0.00    +0.000 A 
ATOM      6  N   UNL     1       1.059   8.139  21.727  0.00  0.00    +0.000 NA
ATOM      7  C   UNL     1       0.515   9.333  21.906  0.00  0.00    +0.000 A 
ATOM      8  N   UNL     1       0.688  10.131  20.784  0.00  0.00    +0.000 N 
ATOM      9  C   UNL     1       0.243  11.471  20.585  0.00  0.00    +0.000 A 
ATOM     10  N   UNL     1       0.905  12.211  19.693  0.00  0.00    +0.000 NA
ATOM     11  C   UNL     1       0.512  13.469  19.565  0.00  0.00    +0.000 A 
ATOM     12  N   UNL     1       1.216  14.288  18.725  0.00  0.00    +0.000 N 
ATOM     13  C   UNL     1       2.361  13.822  17.947  0.00  0.00    +0.000 C 
ATOM     14  C   UNL     1       3.557  14.758  18.176  0.00  0.00    +0.000 C 
ATOM     15  O   UNL     1       3.214  16.131  17.917  0.00  0.00    +0.000 OA
ATOM     16  C   UNL     1       2.142  16.550  18.779  0.00  0.00    +0.000 C 
ATOM     17  C   UNL     1       0.879  15.701  18.563  0.00  0.00    +0.000 C 
ATOM     18  N   UNL     1      -0.521  13.960  20.237  0.00  0.00    +0.000 NA
ATOM     19  C   UNL     1      -1.165  13.152  21.073  0.00  0.00    +0.000 A 
ATOM     20  N   UNL     1      -2.238  13.641  21.766  0.00  0.00    +0.000 N 
ATOM     21  C   UNL     1      -2.711  15.012  21.611  0.00  0.00    +0.000 C 
ATOM     22  C   UNL     1      -2.895  15.638  23.005  0.00  0.00    +0.000 C 
ATOM     23  O   UNL     1      -3.737  14.832  23.847  0.00  0.00    +0.000 OA
ATOM     24  C   UNL     1      -3.176  13.516  24.010  0.00  0.00    +0.000 C 
ATOM     25  C   UNL     1      -3.030  12.800  22.660  0.00  0.00    +0.000 C 
ATOM     26  N   UNL     1      -0.794  11.898  21.284  0.00  0.00    +0.000 NA
ATOM     27  C   UNL     1       2.192   7.058  19.741  0.00  0.00    +0.000 A 
ENDROOT
BRANCH   7  28
ATOM     28  C   UNL     1      -0.124   9.782  23.175  0.00  0.00    +0.000 C 
ATOM     29  F   UNL     1      -1.459   9.534  23.233  0.00  0.00    +0.000 F 
ATOM     30  F   UNL     1       0.442   9.190  24.261  0.00  0.00    +0.000 F 
ENDBRANCH   7  28
BRANCH   1  32
ATOM     31  C   UNL     1       4.458   6.417  17.222  0.00  0.00    +0.000 C 
ATOM     32  O   UNL     1       3.114   6.273  17.668  0.00  0.00    +0.000 OA
ENDBRANCH   1  32
BRANCH  27  33
ATOM     33  O   UNL     1       2.334   5.894  20.449  0.00  0.00    +0.000 OA
ATOM     34  C   UNL     1       1.351   4.877  20.336  0.00  0.00    +0.000 C 
ENDBRANCH  27  33
TORSDOF 3
ENDMDL
MODEL 2
REMARK VINA RESULT:      -6.0      3.272      7.374
REMARK  Name = 
REMARK  5 active torsions:
REMARK  status: ('A' for Active; 'I' for Inactive)
REMARK    1  A    between atoms: C_1  and  O_2
REMARK    2  A    between atoms: O_2  and  C_3
REMARK    3  A    between atoms: C_9  and  C_10
REMARK    4  A    between atoms: C_32  and  O_33
REMARK    5  A    between atoms: O_33  and  C_34
REMARK                            x       y       z     vdW  Elec       q    Type
REMARK                         _______ _______ _______ _____ _____    ______ ____
ROOT
ATOM      1  C   UNL     1       2.904  16.828  19.145  0.00  0.00    +0.000 A 
ATOM      2  C   UNL     1       2.923  15.655  19.915  0.00  0.00    +0.000 A 
ATOM      3  C   UNL     1       1.759  15.093  20.432  0.00  0.00    +0.000 A 
ATOM      4  C   UNL     1       0.551  15.744  20.172  0.00  0.00    +0.000 A 
ATOM      5  C   UNL     1       0.496  16.914  19.422  0.00  0.00    +0.000 A 
ATOM      6  N   UNL     1      -0.802  17.365  19.351  0.00  0.00    +0.000 NA
ATOM      7  C   UNL     1      -1.535  16.533  20.076  0.00  0.00    +0.000 A 
ATOM      8  N   UNL     1      -0.756  15.509  20.597  0.00  0.00    +0.000 N 
ATOM      9  C   UNL     1      -1.173  14.428  21.428  0.00  0.00    +0.000 A 
ATOM     10  N   UNL     1      -0.428  13.320  21.412  0.00  0.00    +0.000 NA
ATOM     11  C   UNL     1      -0.863  12.309  22.147  0.00  0.00    +0.000 A 
ATOM     12  N   UNL     1      -0.180  11.124  22.095  0.00  0.00    +0.000 N 
ATOM     13  C   UNL     1       1.023  10.945  21.285  0.00  0.00    +0.000 C 
ATOM     14  C   UNL     1       0.869   9.698  20.400  0.00  0.00    +0.000 C 
ATOM     15  O   UNL     1       0.527   8.536  21.176  0.00  0.00    +0.000 OA
ATOM     16  C   UNL     1      -0.712   8.749  21.875  0.00  0.00    +0.000 C 
ATOM     17  C   UNL     1      -0.620   9.945  22.836  0.00  0.00    +0.000 C 
ATOM     18  N   UNL     1      -1.945  12.401  22.909  0.00  0.00    +0.000 NA
ATOM     19  C   UNL     1      -2.611  13.550  22.914  0.00  0.00    +0.000 A 
ATOM     20  N   UNL     1      -3.723  13.664  23.701  0.00  0.00    +0.000 N 
ATOM     21  C   UNL     1      -4.198  12.575  24.548  0.00  0.00    +0.000 C 
ATOM     22  C   UNL     1      -5.706  12.379  24.312  0.00  0.00    +0.000 C 
ATOM     23  O   UNL     1      -6.440  13.604  24.488  0.00  0.00    +0.000 OA
ATOM     24  C   UNL     1      -5.963  14.612  23.576  0.00  0.00    +0.000 C 
ATOM     25  C   UNL     1      -4.475  14.912  23.803  0.00  0.00    +0.000 C 
ATOM     26  N   UNL     1      -2.258  14.584  22.165  0.00  0.00    +0.000 NA
ATOM     27  C   UNL     1       1.679  17.485  18.877  0.00  0.00    +0.000 A 
ENDROOT
BRANCH   7  28
ATOM     28  C   UNL     1      -3.012  16.642  20.241  0.00  0.00    +0.000 C 
ATOM     29  F   UNL     1      -3.390  17.247  21.398  0.00  0.00    +0.000 F 
ATOM     30  F   UNL     1      -3.583  17.335  19.219  0.00  0.00    +0.000 F 
ENDBRANCH   7  28
BRANCH   1  32
ATOM     31  C   UNL     1       5.256  16.614  18.789  0.00  0.00    +0.000 C 
ATOM     32  O   UNL     1       4.071  17.400  18.700  0.00  0.00    +0.000 OA
ENDBRANCH   1  32
BRANCH  27  33
ATOM     33  O   UNL     1       1.490  18.631  18.150  0.00  0.00    +0.000 OA
ATOM     34  C   UNL     1       1.083  18.544  16.794  0.00  0.00    +0.000 C 
ENDBRANCH  27  33
TORSDOF 3
ENDMDL
MODEL 3
REMARK VINA RESULT:      -5.9      6.998     10.735
REMARK  Name = 
REMARK  5 active torsions:
REMARK  status: ('A' for Active; 'I' for Inactive)
REMARK    1  A    between atoms: C_1  and  O_2
REMARK    2  A    between atoms: O_2  and  C_3
REMARK    3  A    between atoms: C_9  and  C_10
REMARK    4  A    between atoms: C_32  and  O_33
REMARK    5  A    between atoms: O_33  and  C_34
REMARK                            x       y       z     vdW  Elec       q    Type
REMARK                         _______ _______ _______ _____ _____    ______ ____
ROOT
ATOM      1  C   UNL     1       1.859  16.417  20.666  0.00  0.00    +0.000 A 
ATOM      2  C   UNL     1       2.388  15.419  21.499  0.00  0.00    +0.000 A 
ATOM      3  C   UNL     1       3.727  15.043  21.441  0.00  0.00    +0.000 A 
ATOM      4  C   UNL     1       4.544  15.687  20.509  0.00  0.00    +0.000 A 
ATOM      5  C   UNL     1       4.051  16.672  19.660  0.00  0.00    +0.000 A 
ATOM      6  N   UNL     1       5.050  17.109  18.820  0.00  0.00    +0.000 NA
ATOM      7  C   UNL     1       6.124  16.386  19.095  0.00  0.00    +0.000 A 
ATOM      8  N   UNL     1       5.874  15.501  20.135  0.00  0.00    +0.000 N 
ATOM      9  C   UNL     1       6.771  14.555  20.715  0.00  0.00    +0.000 A 
ATOM     10  N   UNL     1       6.528  14.169  21.969  0.00  0.00    +0.000 NA
ATOM     11  C   UNL     1       7.403  13.335  22.508  0.00  0.00    +0.000 A 
ATOM     12  N   UNL     1       7.243  12.980  23.819  0.00  0.00    +0.000 N 
ATOM     13  C   UNL     1       6.130  13.461  24.635  0.00  0.00    +0.000 C 
ATOM     14  C   UNL     1       6.670  14.059  25.944  0.00  0.00    +0.000 C 
ATOM     15  O   UNL     1       7.525  13.133  26.637  0.00  0.00    +0.000 OA
ATOM     16  C   UNL     1       8.645  12.771  25.810  0.00  0.00    +0.000 C 
ATOM     17  C   UNL     1       8.190  12.102  24.504  0.00  0.00    +0.000 C 
ATOM     18  N   UNL     1       8.435  12.854  21.827  0.00  0.00    +0.000 NA
ATOM     19  C   UNL     1       8.588  13.243  20.565  0.00  0.00    +0.000 A 
ATOM     20  N   UNL     1       9.642  12.749  19.847  0.00  0.00    +0.000 N 
ATOM     21  C   UNL     1      10.595  11.800  20.408  0.00  0.00    +0.000 C 
ATOM     22  C   UNL     1      12.023  12.294  20.117  0.00  0.00    +0.000 C 
ATOM     23  O   UNL     1      12.227  12.550  18.716  0.00  0.00    +0.000 OA
ATOM     24  C   UNL     1      11.296  13.544  18.246  0.00  0.00    +0.000 C 
ATOM     25  C   UNL     1       9.845  13.086  18.440  0.00  0.00    +0.000 C 
ATOM     26  N   UNL     1       7.777  14.113  19.982  0.00  0.00    +0.000 NA
ATOM     27  C   UNL     1       2.688  17.073  19.725  0.00  0.00    +0.000 A 
ENDROOT
BRANCH   7  28
ATOM     28  C   UNL     1       7.446  16.560  18.430  0.00  0.00    +0.000 C 
ATOM     29  F   UNL     1       7.605  15.791  17.320  0.00  0.00    +0.000 F 
ATOM     30  F   UNL     1       7.657  17.852  18.059  0.00  0.00    +0.000 F 
ENDBRANCH   7  28
BRANCH   1  32
ATOM     31  C   UNL     1      -0.140  16.632  21.954  0.00  0.00    +0.000 C 
ATOM     32  O   UNL     1       0.521  16.725  20.696  0.00  0.00    +0.000 OA
ENDBRANCH   1  32
BRANCH  27  33
ATOM     33  O   UNL     1       2.330  18.059  18.844  0.00  0.00    +0.000 OA
ATOM     34  C   UNL     1       1.656  17.718  17.643  0.00  0.00    +0.000 C 
ENDBRANCH  27  33
TORSDOF 3
ENDMDL
MODEL 4
REMARK VINA RESULT:      -5.9      4.188      8.001
REMARK  Name = 
REMARK  5 active torsions:
REMARK  status: ('A' for Active; 'I' for Inactive)
REMARK    1  A    between atoms: C_1  and  O_2
REMARK    2  A    between atoms: O_2  and  C_3
REMARK    3  A    between atoms: C_9  and  C_10
REMARK    4  A    between atoms: C_32  and  O_33
REMARK    5  A    between atoms: O_33  and  C_34
REMARK                            x       y       z     vdW  Elec       q    Type
REMARK                         _______ _______ _______ _____ _____    ______ ____
ROOT
ATOM      1  C   UNL     1      -2.025  15.751  25.375  0.00  0.00    +0.000 A 
ATOM      2  C   UNL     1      -0.994  15.045  24.737  0.00  0.00    +0.000 A 
ATOM      3  C   UNL     1      -1.132  14.540  23.447  0.00  0.00    +0.000 A 
ATOM      4  C   UNL     1      -2.350  14.747  22.795  0.00  0.00    +0.000 A 
ATOM      5  C   UNL     1      -3.398  15.433  23.401  0.00  0.00    +0.000 A 
ATOM      6  N   UNL     1      -4.488  15.459  22.560  0.00  0.00    +0.000 NA
ATOM      7  C   UNL     1      -4.155  14.768  21.481  0.00  0.00    +0.000 A 
ATOM      8  N   UNL     1      -2.846  14.315  21.565  0.00  0.00    +0.000 N 
ATOM      9  C   UNL     1      -2.125  13.536  20.612  0.00  0.00    +0.000 A 
ATOM     10  N   UNL     1      -0.793  13.622  20.631  0.00  0.00    +0.000 NA
ATOM     11  C   UNL     1      -0.146  12.936  19.702  0.00  0.00    +0.000 A 
ATOM     12  N   UNL     1       1.214  13.061  19.628  0.00  0.00    +0.000 N 
ATOM     13  C   UNL     1       1.979  13.898  20.551  0.00  0.00    +0.000 C 
ATOM     14  C   UNL     1       2.890  14.845  19.755  0.00  0.00    +0.000 C 
ATOM     15  O   UNL     1       3.715  14.127  18.821  0.00  0.00    +0.000 OA
ATOM     16  C   UNL     1       2.897  13.398  17.888  0.00  0.00    +0.000 C 
ATOM     17  C   UNL     1       1.999  12.377  18.603  0.00  0.00    +0.000 C 
ATOM     18  N   UNL     1      -0.774  12.154  18.834  0.00  0.00    +0.000 NA
ATOM     19  C   UNL     1      -2.099  12.077  18.904  0.00  0.00    +0.000 A 
ATOM     20  N   UNL     1      -2.760  11.268  18.022  0.00  0.00    +0.000 N 
ATOM     21  C   UNL     1      -2.064  10.474  17.016  0.00  0.00    +0.000 C 
ATOM     22  C   UNL     1      -2.736  10.696  15.650  0.00  0.00    +0.000 C 
ATOM     23  O   UNL     1      -4.152  10.444  15.702  0.00  0.00    +0.000 OA
ATOM     24  C   UNL     1      -4.782  11.309  16.666  0.00  0.00    +0.000 C 
ATOM     25  C   UNL     1      -4.208  11.089  18.072  0.00  0.00    +0.000 C 
ATOM     26  N   UNL     1      -2.809  12.775  19.777  0.00  0.00    +0.000 NA
ATOM     27  C   UNL     1      -3.258  15.965  24.712  0.00  0.00    +0.000 A 
ENDROOT
BRANCH   7  28
ATOM     28  C   UNL     1      -5.043  14.576  20.301  0.00  0.00    +0.000 C 
ATOM     29  F   UNL     1      -6.162  13.851  20.570  0.00  0.00    +0.000 F 
ATOM     30  F   UNL     1      -5.450  15.764  19.777  0.00  0.00    +0.000 F 
ENDBRANCH   7  28
BRANCH   1  32
ATOM     31  C   UNL     1      -0.667  16.827  27.017  0.00  0.00    +0.000 C 
ATOM     32  O   UNL     1      -1.889  16.182  26.671  0.00  0.00    +0.000 OA
ENDBRANCH   1  32
BRANCH  27  33
ATOM     33  O   UNL     1      -4.357  16.627  25.191  0.00  0.00    +0.000 OA
ATOM     34  C   UNL     1      -4.389  18.045  25.170  0.00  0.00    +0.000 C 
ENDBRANCH  27  33
TORSDOF 3
ENDMDL
MODEL 5
REMARK VINA RESULT:      -5.8      4.329      8.690
REMARK  Name = 
REMARK  5 active torsions:
REMARK  status: ('A' for Active; 'I' for Inactive)
REMARK    1  A    between atoms: C_1  and  O_2
REMARK    2  A    between atoms: O_2  and  C_3
REMARK    3  A    between atoms: C_9  and  C_10
REMARK    4  A    between atoms: C_32  and  O_33
REMARK    5  A    between atoms: O_33  and  C_34
REMARK                            x       y       z     vdW  Elec       q    Type
REMARK                         _______ _______ _______ _____ _____    ______ ____
ROOT
ATOM      1  C   UNL     1      -0.551  17.461  24.186  0.00  0.00    +0.000 A 
ATOM      2  C   UNL     1      -1.894  17.209  23.866  0.00  0.00    +0.000 A 
ATOM      3  C   UNL     1      -2.276  16.117  23.092  0.00  0.00    +0.000 A 
ATOM      4  C   UNL     1      -1.271  15.268  22.623  0.00  0.00    +0.000 A 
ATOM      5  C   UNL     1       0.071  15.493  22.911  0.00  0.00    +0.000 A 
ATOM      6  N   UNL     1       0.848  14.537  22.297  0.00  0.00    +0.000 NA
ATOM      7  C   UNL     1       0.027  13.765  21.603  0.00  0.00    +0.000 A 
ATOM      8  N   UNL     1      -1.292  14.162  21.774  0.00  0.00    +0.000 N 
ATOM      9  C   UNL     1      -2.462  13.590  21.193  0.00  0.00    +0.000 A 
ATOM     10  N   UNL     1      -3.618  13.769  21.835  0.00  0.00    +0.000 NA
ATOM     11  C   UNL     1      -4.681  13.183  21.309  0.00  0.00    +0.000 A 
ATOM     12  N   UNL     1      -5.871  13.268  21.980  0.00  0.00    +0.000 N 
ATOM     13  C   UNL     1      -6.017  14.004  23.234  0.00  0.00    +0.000 C 
ATOM     14  C   UNL     1      -6.679  13.102  24.287  0.00  0.00    +0.000 C 
ATOM     15  O   UNL     1      -7.915  12.545  23.807  0.00  0.00    +0.000 OA
ATOM     16  C   UNL     1      -7.684  11.761  22.623  0.00  0.00    +0.000 C 
ATOM     17  C   UNL     1      -7.081  12.610  21.493  0.00  0.00    +0.000 C 
ATOM     18  N   UNL     1      -4.624  12.503  20.172  0.00  0.00    +0.000 NA
ATOM     19  C   UNL     1      -3.449  12.405  19.559  0.00  0.00    +0.000 A 
ATOM     20  N   UNL     1      -3.376  11.714  18.381  0.00  0.00    +0.000 N 
ATOM     21  C   UNL     1      -4.542  11.093  17.764  0.00  0.00    +0.000 C 
ATOM     22  C   UNL     1      -4.197   9.641  17.390  0.00  0.00    +0.000 C 
ATOM     23  O   UNL     1      -3.010   9.564  16.580  0.00  0.00    +0.000 OA
ATOM     24  C   UNL     1      -1.886  10.135  17.278  0.00  0.00    +0.000 C 
ATOM     25  C   UNL     1      -2.133  11.610  17.621  0.00  0.00    +0.000 C 
ATOM     26  N   UNL     1      -2.338  12.926  20.057  0.00  0.00    +0.000 NA
ATOM     27  C   UNL     1       0.468  16.597  23.715  0.00  0.00    +0.000 A 
ENDROOT
BRANCH   7  28
ATOM     28  C   UNL     1       0.458  12.580  20.810  0.00  0.00    +0.000 C 
ATOM     29  F   UNL     1       0.802  12.875  19.528  0.00  0.00    +0.000 F 
ATOM     30  F   UNL     1       1.525  11.955  21.378  0.00  0.00    +0.000 F 
ENDBRANCH   7  28
BRANCH   1  32
ATOM     31  C   UNL     1      -0.380  18.543  26.307  0.00  0.00    +0.000 C 
ATOM     32  O   UNL     1      -0.192  18.580  24.896  0.00  0.00    +0.000 OA
ENDBRANCH   1  32
BRANCH  27  33
ATOM     33  O   UNL     1       1.816  16.702  23.933  0.00  0.00    +0.000 OA
ATOM     34  C   UNL     1       2.597  17.556  23.113  0.00  0.00    +0.000 C 
ENDBRANCH  27  33
TORSDOF 3
ENDMDL
MODEL 6
REMARK VINA RESULT:      -5.7      3.610      6.106
REMARK  Name = 
REMARK  5 active torsions:
REMARK  status: ('A' for Active; 'I' for Inactive)
REMARK    1  A    between atoms: C_1  and  O_2
REMARK    2  A    between atoms: O_2  and  C_3
REMARK    3  A    between atoms: C_9  and  C_10
REMARK    4  A    between atoms: C_32  and  O_33
REMARK    5  A    between atoms: O_33  and  C_34
REMARK                            x       y       z     vdW  Elec       q    Type
REMARK                         _______ _______ _______ _____ _____    ______ ____
ROOT
ATOM      1  C   UNL     1       1.352  11.312  18.628  0.00  0.00    +0.000 A 
ATOM      2  C   UNL     1       0.009  10.930  18.767  0.00  0.00    +0.000 A 
ATOM      3  C   UNL     1      -0.932  11.752  19.383  0.00  0.00    +0.000 A 
ATOM      4  C   UNL     1      -0.496  12.983  19.878  0.00  0.00    +0.000 A 
ATOM      5  C   UNL     1       0.830  13.388  19.767  0.00  0.00    +0.000 A 
ATOM      6  N   UNL     1       0.996  14.615  20.369  0.00  0.00    +0.000 NA
ATOM      7  C   UNL     1      -0.176  14.948  20.887  0.00  0.00    +0.000 A 
ATOM      8  N   UNL     1      -1.135  13.985  20.606  0.00  0.00    +0.000 N 
ATOM      9  C   UNL     1      -2.508  13.977  20.992  0.00  0.00    +0.000 A 
ATOM     10  N   UNL     1      -3.352  13.265  20.243  0.00  0.00    +0.000 NA
ATOM     11  C   UNL     1      -4.630  13.316  20.585  0.00  0.00    +0.000 A 
ATOM     12  N   UNL     1      -5.542  12.671  19.795  0.00  0.00    +0.000 N 
ATOM     13  C   UNL     1      -5.158  11.908  18.611  0.00  0.00    +0.000 C 
ATOM     14  C   UNL     1      -5.993  12.368  17.406  0.00  0.00    +0.000 C 
ATOM     15  O   UNL     1      -7.403  12.312  17.686  0.00  0.00    +0.000 OA
ATOM     16  C   UNL     1      -7.724  13.156  18.806  0.00  0.00    +0.000 C 
ATOM     17  C   UNL     1      -6.976  12.719  20.075  0.00  0.00    +0.000 C 
ATOM     18  N   UNL     1      -5.051  13.986  21.649  0.00  0.00    +0.000 NA
ATOM     19  C   UNL     1      -4.149  14.634  22.379  0.00  0.00    +0.000 A 
ATOM     20  N   UNL     1      -4.566  15.322  23.485  0.00  0.00    +0.000 N 
ATOM     21  C   UNL     1      -5.963  15.360  23.902  0.00  0.00    +0.000 C 
ATOM     22  C   UNL     1      -6.366  16.821  24.170  0.00  0.00    +0.000 C 
ATOM     23  O   UNL     1      -5.472  17.461  25.098  0.00  0.00    +0.000 OA
ATOM     24  C   UNL     1      -4.124  17.446  24.591  0.00  0.00    +0.000 C 
ATOM     25  C   UNL     1      -3.628  16.011  24.367  0.00  0.00    +0.000 C 
ATOM     26  N   UNL     1      -2.863  14.663  22.064  0.00  0.00    +0.000 NA
ATOM     27  C   UNL     1       1.793  12.562  19.125  0.00  0.00    +0.000 A 
ENDROOT
BRANCH   7  28
ATOM     28  C   UNL     1      -0.444  16.226  21.604  0.00  0.00    +0.000 C 
ATOM     29  F   UNL     1      -0.146  16.182  22.930  0.00  0.00    +0.000 F 
ATOM     30  F   UNL     1       0.257  17.261  21.068  0.00  0.00    +0.000 F 
ENDBRANCH   7  28
BRANCH   1  32
ATOM     31  C   UNL     1       1.887   9.097  17.912  0.00  0.00    +0.000 C 
ATOM     32  O   UNL     1       2.275  10.458  18.076  0.00  0.00    +0.000 OA
ENDBRANCH   1  32
BRANCH  27  33
ATOM     33  O   UNL     1       3.060  13.079  19.073  0.00  0.00    +0.000 OA
ATOM     34  C   UNL     1       3.398  14.009  18.055  0.00  0.00    +0.000 C 
ENDBRANCH  27  33
TORSDOF 3
ENDMDL
MODEL 7
REMARK VINA RESULT:      -5.5      3.604      7.362
REMARK  Name = 
REMARK  5 active torsions:
REMARK  status: ('A' for Active; 'I' for Inactive)
REMARK    1  A    between atoms: C_1  and  O_2
REMARK    2  A    between atoms: O_2  and  C_3
REMARK    3  A    between atoms: C_9  and  C_10
REMARK    4  A    between atoms: C_32  and  O_33
REMARK    5  A    between atoms: O_33  and  C_34
REMARK                            x       y       z     vdW  Elec       q    Type
REMARK                         _______ _______ _______ _____ _____    ______ ____
ROOT
ATOM      1  C   UNL     1      -6.417  12.566  21.628  0.00  0.00    +0.000 A 
ATOM      2  C   UNL     1      -5.455  12.627  20.610  0.00  0.00    +0.000 A 
ATOM      3  C   UNL     1      -4.171  13.119  20.835  0.00  0.00    +0.000 A 
ATOM      4  C   UNL     1      -3.864  13.569  22.121  0.00  0.00    +0.000 A 
ATOM      5  C   UNL     1      -4.797  13.534  23.152  0.00  0.00    +0.000 A 
ATOM      6  N   UNL     1      -4.252  14.071  24.296  0.00  0.00    +0.000 NA
ATOM      7  C   UNL     1      -3.031  14.478  23.982  0.00  0.00    +0.000 A 
ATOM      8  N   UNL     1      -2.734  14.185  22.658  0.00  0.00    +0.000 N 
ATOM      9  C   UNL     1      -1.531  14.468  21.947  0.00  0.00    +0.000 A 
ATOM     10  N   UNL     1      -1.248  13.702  20.891  0.00  0.00    +0.000 NA
ATOM     11  C   UNL     1      -0.100  13.944  20.279  0.00  0.00    +0.000 A 
ATOM     12  N   UNL     1       0.272  13.128  19.245  0.00  0.00    +0.000 N 
ATOM     13  C   UNL     1      -0.561  12.024  18.774  0.00  0.00    +0.000 C 
ATOM     14  C   UNL     1       0.272  10.735  18.720  0.00  0.00    +0.000 C 
ATOM     15  O   UNL     1       1.473  10.911  17.948  0.00  0.00    +0.000 OA
ATOM     16  C   UNL     1       2.287  11.950  18.519  0.00  0.00    +0.000 C 
ATOM     17  C   UNL     1       1.545  13.296  18.549  0.00  0.00    +0.000 C 
ATOM     18  N   UNL     1       0.705  14.930  20.650  0.00  0.00    +0.000 NA
ATOM     19  C   UNL     1       0.338  15.685  21.680  0.00  0.00    +0.000 A 
ATOM     20  N   UNL     1       1.153  16.713  22.068  0.00  0.00    +0.000 N 
ATOM     21  C   UNL     1       2.404  17.021  21.385  0.00  0.00    +0.000 C 
ATOM     22  C   UNL     1       3.522  17.168  22.431  0.00  0.00    +0.000 C 
ATOM     23  O   UNL     1       3.178  18.120  23.453  0.00  0.00    +0.000 OA
ATOM     24  C   UNL     1       1.972  17.718  24.129  0.00  0.00    +0.000 C 
ATOM     25  C   UNL     1       0.791  17.619  23.154  0.00  0.00    +0.000 C 
ATOM     26  N   UNL     1      -0.774  15.466  22.365  0.00  0.00    +0.000 NA
ATOM     27  C   UNL     1      -6.104  13.018  22.933  0.00  0.00    +0.000 A 
ENDROOT
BRANCH   7  28
ATOM     28  C   UNL     1      -2.078  15.094  24.947  0.00  0.00    +0.000 C 
ATOM     29  F   UNL     1      -2.030  16.451  24.877  0.00  0.00    +0.000 F 
ATOM     30  F   UNL     1      -2.382  14.769  26.233  0.00  0.00    +0.000 F 
ENDBRANCH   7  28
BRANCH   1  32
ATOM     31  C   UNL     1      -7.868  10.761  21.046  0.00  0.00    +0.000 C 
ATOM     32  O   UNL     1      -7.696  12.138  21.367  0.00  0.00    +0.000 OA
ENDBRANCH   1  32
BRANCH  27  33
ATOM     33  O   UNL     1      -6.924  13.029  24.031  0.00  0.00    +0.000 OA
ATOM     34  C   UNL     1      -7.875  14.070  24.187  0.00  0.00    +0.000 C 
ENDBRANCH  27  33
TORSDOF 3
ENDMDL
MODEL 8
REMARK VINA RESULT:      -5.4      3.926      6.815
REMARK  Name = 
REMARK  5 active torsions:
REMARK  status: ('A' for Active; 'I' for Inactive)
REMARK    1  A    between atoms: C_1  and  O_2
REMARK    2  A    between atoms: O_2  and  C_3
REMARK    3  A    between atoms: C_9  and  C_10
REMARK    4  A    between atoms: C_32  and  O_33
REMARK    5  A    between atoms: O_33  and  C_34
REMARK                            x       y       z     vdW  Elec       q    Type
REMARK                         _______ _______ _______ _____ _____    ______ ____
ROOT
ATOM      1  C   UNL     1      -6.113  12.017  20.417  0.00  0.00    +0.000 A 
ATOM      2  C   UNL     1      -5.028  12.435  19.633  0.00  0.00    +0.000 A 
ATOM      3  C   UNL     1      -3.924  13.081  20.185  0.00  0.00    +0.000 A 
ATOM      4  C   UNL     1      -3.929  13.317  21.561  0.00  0.00    +0.000 A 
ATOM      5  C   UNL     1      -4.993  12.926  22.367  0.00  0.00    +0.000 A 
ATOM      6  N   UNL     1      -4.763  13.313  23.668  0.00  0.00    +0.000 NA
ATOM      7  C   UNL     1      -3.614  13.971  23.672  0.00  0.00    +0.000 A 
ATOM      8  N   UNL     1      -3.050  13.996  22.404  0.00  0.00    +0.000 N 
ATOM      9  C   UNL     1      -1.827  14.608  22.000  0.00  0.00    +0.000 A 
ATOM     10  N   UNL     1      -1.227  14.121  20.913  0.00  0.00    +0.000 NA
ATOM     11  C   UNL     1      -0.065  14.666  20.588  0.00  0.00    +0.000 A 
ATOM     12  N   UNL     1       0.628  14.141  19.531  0.00  0.00    +0.000 N 
ATOM     13  C   UNL     1       0.121  13.027  18.733  0.00  0.00    +0.000 C 
ATOM     14  C   UNL     1       1.193  11.930  18.638  0.00  0.00    +0.000 C 
ATOM     15  O   UNL     1       2.445  12.451  18.158  0.00  0.00    +0.000 OA
ATOM     16  C   UNL     1       2.929  13.480  19.039  0.00  0.00    +0.000 C 
ATOM     17  C   UNL     1       1.939  14.651  19.137  0.00  0.00    +0.000 C 
ATOM     18  N   UNL     1       0.454  15.681  21.264  0.00  0.00    +0.000 NA
ATOM     19  C   UNL     1      -0.221  16.149  22.309  0.00  0.00    +0.000 A 
ATOM     20  N   UNL     1       0.296  17.202  23.011  0.00  0.00    +0.000 N 
ATOM     21  C   UNL     1       1.555  17.842  22.648  0.00  0.00    +0.000 C 
ATOM     22  C   UNL     1       2.434  17.967  23.905  0.00  0.00    +0.000 C 
ATOM     23  O   UNL     1       1.742  18.630  24.978  0.00  0.00    +0.000 OA
ATOM     24  C   UNL     1       0.546  17.908  25.328  0.00  0.00    +0.000 C 
ATOM     25  C   UNL     1      -0.414  17.806  24.135  0.00  0.00    +0.000 C 
ATOM     26  N   UNL     1      -1.365  15.618  22.716  0.00  0.00    +0.000 NA
ATOM     27  C   UNL     1      -6.117  12.251  21.814  0.00  0.00    +0.000 A 
ENDROOT
BRANCH   7  28
ATOM     28  C   UNL     1      -2.976  14.538  24.893  0.00  0.00    +0.000 C 
ATOM     29  F   UNL     1      -3.294  15.839  25.123  0.00  0.00    +0.000 F 
ATOM     30  F   UNL     1      -3.315  13.838  26.010  0.00  0.00    +0.000 F 
ENDBRANCH   7  28
BRANCH   1  32
ATOM     31  C   UNL     1      -6.996  10.365  18.935  0.00  0.00    +0.000 C 
ATOM     32  O   UNL     1      -7.219  11.440  19.842  0.00  0.00    +0.000 OA
ENDBRANCH   1  32
BRANCH  27  33
ATOM     33  O   UNL     1      -7.092  11.911  22.714  0.00  0.00    +0.000 OA
ATOM     34  C   UNL     1      -7.916  12.922  23.272  0.00  0.00    +0.000 C 
ENDBRANCH  27  33
TORSDOF 3
ENDMDL
MODEL 9
REMARK VINA RESULT:      -5.4      2.482      5.274
REMARK  Name = 
REMARK  5 active torsions:
REMARK  status: ('A' for Active; 'I' for Inactive)
REMARK    1  A    between atoms: C_1  and  O_2
REMARK    2  A    between atoms: O_2  and  C_3
REMARK    3  A    between atoms: C_9  and  C_10
REMARK    4  A    between atoms: C_32  and  O_33
REMARK    5  A    between atoms: O_33  and  C_34
REMARK                            x       y       z     vdW  Elec       q    Type
REMARK                         _______ _______ _______ _____ _____    ______ ____
ROOT
ATOM      1  C   UNL     1       1.210   7.189  20.431  0.00  0.00    +0.000 A 
ATOM      2  C   UNL     1       0.761   7.975  21.503  0.00  0.00    +0.000 A 
ATOM      3  C   UNL     1       0.730   9.366  21.435  0.00  0.00    +0.000 A 
ATOM      4  C   UNL     1       1.175   9.970  20.257  0.00  0.00    +0.000 A 
ATOM      5  C   UNL     1       1.636   9.222  19.180  0.00  0.00    +0.000 A 
ATOM      6  N   UNL     1       2.048  10.061  18.169  0.00  0.00    +0.000 NA
ATOM      7  C   UNL     1       1.899  11.299  18.616  0.00  0.00    +0.000 A 
ATOM      8  N   UNL     1       1.354  11.304  19.892  0.00  0.00    +0.000 N 
ATOM      9  C   UNL     1       1.049  12.432  20.710  0.00  0.00    +0.000 A 
ATOM     10  N   UNL     1       0.113  12.275  21.647  0.00  0.00    +0.000 NA
ATOM     11  C   UNL     1      -0.195  13.349  22.358  0.00  0.00    +0.000 A 
ATOM     12  N   UNL     1      -1.210  13.257  23.271  0.00  0.00    +0.000 N 
ATOM     13  C   UNL     1      -1.943  12.016  23.511  0.00  0.00    +0.000 C 
ATOM     14  C   UNL     1      -3.454  12.281  23.412  0.00  0.00    +0.000 C 
ATOM     15  O   UNL     1      -3.861  13.359  24.273  0.00  0.00    +0.000 OA
ATOM     16  C   UNL     1      -3.167  14.569  23.922  0.00  0.00    +0.000 C 
ATOM     17  C   UNL     1      -1.645  14.407  24.061  0.00  0.00    +0.000 C 
ATOM     18  N   UNL     1       0.430  14.507  22.196  0.00  0.00    +0.000 NA
ATOM     19  C   UNL     1       1.387  14.579  21.278  0.00  0.00    +0.000 A 
ATOM     20  N   UNL     1       2.048  15.764  21.106  0.00  0.00    +0.000 N 
ATOM     21  C   UNL     1       1.751  16.948  21.903  0.00  0.00    +0.000 C 
ATOM     22  C   UNL     1       1.570  18.153  20.962  0.00  0.00    +0.000 C 
ATOM     23  O   UNL     1       2.697  18.320  20.084  0.00  0.00    +0.000 OA
ATOM     24  C   UNL     1       2.890  17.140  19.281  0.00  0.00    +0.000 C 
ATOM     25  C   UNL     1       3.148  15.906  20.156  0.00  0.00    +0.000 C 
ATOM     26  N   UNL     1       1.710  13.556  20.501  0.00  0.00    +0.000 NA
ATOM     27  C   UNL     1       1.656   7.801  19.235  0.00  0.00    +0.000 A 
ENDROOT
BRANCH   7  28
ATOM     28  C   UNL     1       2.200  12.520  17.819  0.00  0.00    +0.000 C 
ATOM     29  F   UNL     1       1.206  13.448  17.841  0.00  0.00    +0.000 F 
ATOM     30  F   UNL     1       3.334  13.136  18.250  0.00  0.00    +0.000 F 
ENDBRANCH   7  28
BRANCH   1  32
ATOM     31  C   UNL     1       2.580   5.268  20.797  0.00  0.00    +0.000 C 
ATOM     32  O   UNL     1       1.293   5.823  20.545  0.00  0.00    +0.000 OA
ENDBRANCH   1  32
BRANCH  27  33
ATOM     33  O   UNL     1       2.123   7.182  18.106  0.00  0.00    +0.000 OA
ATOM     34  C   UNL     1       3.521   7.063  17.897  0.00  0.00    +0.000 C 
ENDBRANCH  27  33
TORSDOF 3
ENDMDL
