MODEL 1
REMARK VINA RESULT:      -8.4      0.000      0.000
REMARK  Name = 
REMARK  13 active torsions:
REMARK  status: ('A' for Active; 'I' for Inactive)
REMARK    1  A    between atoms: C_4  and  C_5
REMARK    2  A    between atoms: C_10  and  C_11
REMARK    3  A    between atoms: C_15  and  C_16
REMARK    4  A    between atoms: C_16  and  C_17
REMARK    5  A    between atoms: C_16  and  C_18
REMARK    6  A    between atoms: C_18  and  C_19
REMARK    7  A    between atoms: C_25  and  C_26
REMARK    8  A    between atoms: C_26  and  C_27
REMARK    9  A    between atoms: C_27  and  C_28
REMARK   10  A    between atoms: C_28  and  C_29
REMARK   11  A    between atoms: C_31  and  O_32
REMARK   12  A    between atoms: C_33  and  C_34
REMARK   13  A    between atoms: C_35  and  O_36
REMARK                            x       y       z     vdW  Elec       q    Type
REMARK                         _______ _______ _______ _____ _____    ______ ____
ROOT
ATOM      1  C   UNL     1       1.306   7.938  20.284  0.00  0.00    +0.000 C 
ATOM      2  C   UNL     1       0.413   8.773  20.838  0.00  0.00    +0.000 C 
ATOM      3  C   UNL     1      -0.163   8.633  22.240  0.00  0.00    +0.000 C 
ATOM      4  C   UNL     1      -0.161   9.951  23.024  0.00  0.00    +0.000 C 
ATOM      5  C   UNL     1      -0.817  11.103  22.254  0.00  0.00    +0.000 C 
ATOM      6  C   UNL     1      -0.264  11.238  20.821  0.00  0.00    +0.000 C 
ATOM      7  C   UNL     1       1.174  11.830  20.936  0.00  0.00    +0.000 C 
ATOM      8  C   UNL     1      -0.239   9.887  20.073  0.00  0.00    +0.000 C 
ATOM      9  C   UNL     1       0.098  10.275  18.633  0.00  0.00    +0.000 C 
ATOM     10  C   UNL     1      -0.592  11.643  18.443  0.00  0.00    +0.000 C 
ATOM     11  C   UNL     1      -1.115  12.103  19.834  0.00  0.00    +0.000 C 
ENDROOT
BRANCH   1  15
ATOM     12  C   UNL     1       2.962   6.331  18.087  0.00  0.00    +0.000 C 
ATOM     13  C   UNL     1       2.298   5.426  18.829  0.00  0.00    +0.000 C 
ATOM     14  C   UNL     1       2.151   5.591  20.281  0.00  0.00    +0.000 C 
ATOM     15  C   UNL     1       1.755   6.713  20.903  0.00  0.00    +0.000 C 
ATOM     16  C   UNL     1       2.458   4.361  21.118  0.00  0.00    +0.000 C 
ATOM     17  C   UNL     1       1.820   3.083  20.554  0.00  0.00    +0.000 C 
ATOM     18  C   UNL     1       2.108   2.899  19.053  0.00  0.00    +0.000 C 
ATOM     19  C   UNL     1       3.586   2.542  18.829  0.00  0.00    +0.000 C 
ATOM     20  C   UNL     1       1.669   4.157  18.272  0.00  0.00    +0.000 C 
BRANCH  17  21
ATOM     21  O   UNL     1       0.408   3.082  20.790  0.00  0.00    +0.000 OA
ATOM     22  H   UNL     1      -0.026   2.549  20.101  0.00  0.00    +0.000 HD
ENDBRANCH  17  21
BRANCH  20  23
ATOM     23  O   UNL     1       1.942   3.988  16.882  0.00  0.00    +0.000 OA
ATOM     24  H   UNL     1       2.494   3.195  16.788  0.00  0.00    +0.000 HD
ENDBRANCH  20  23
ENDBRANCH   1  15
BRANCH  11  25
ATOM     25  C   UNL     1      -2.687  12.035  19.995  0.00  0.00    +0.000 C 
ATOM     26  C   UNL     1      -3.473  11.752  18.707  0.00  0.00    +0.000 C 
BRANCH  25  27
ATOM     27  C   UNL     1      -3.241  13.311  20.689  0.00  0.00    +0.000 C 
BRANCH  27  28
ATOM     28  C   UNL     1      -3.365  13.195  22.225  0.00  0.00    +0.000 C 
ATOM     29  O   UNL     1      -4.393  12.279  22.628  0.00  0.00    +0.000 OA
ATOM     30  C   UNL     1      -5.514  12.916  23.036  0.00  0.00    +0.000 C 
ATOM     31  O   UNL     1      -6.582  12.390  23.284  0.00  0.00    +0.000 OA
ATOM     32  C   UNL     1      -5.181  14.347  23.141  0.00  0.00    +0.000 C 
ATOM     33  C   UNL     1      -6.122  15.267  23.380  0.00  0.00    +0.000 C 
ATOM     34  C   UNL     1      -3.720  14.528  22.889  0.00  0.00    +0.000 C 
BRANCH  34  35
ATOM     35  C   UNL     1      -2.914  14.739  24.181  0.00  0.00    +0.000 C 
BRANCH  35  36
ATOM     36  C   UNL     1      -1.434  14.386  23.970  0.00  0.00    +0.000 C 
BRANCH  36  37
ATOM     37  C   UNL     1      -0.657  15.532  23.330  0.00  0.00    +0.000 C 
ATOM     38  C   UNL     1       0.155  15.034  22.145  0.00  0.00    +0.000 C 
ENDBRANCH  36  37
ENDBRANCH  35  36
ENDBRANCH  34  35
ENDBRANCH  27  28
ENDBRANCH  25  27
ENDBRANCH  11  25
TORSDOF 9
ENDMDL
MODEL 2
REMARK VINA RESULT:      -8.4      0.814      1.134
REMARK  Name = 
REMARK  13 active torsions:
REMARK  status: ('A' for Active; 'I' for Inactive)
REMARK    1  A    between atoms: C_4  and  C_5
REMARK    2  A    between atoms: C_10  and  C_11
REMARK    3  A    between atoms: C_15  and  C_16
REMARK    4  A    between atoms: C_16  and  C_17
REMARK    5  A    between atoms: C_16  and  C_18
REMARK    6  A    between atoms: C_18  and  C_19
REMARK    7  A    between atoms: C_25  and  C_26
REMARK    8  A    between atoms: C_26  and  C_27
REMARK    9  A    between atoms: C_27  and  C_28
REMARK   10  A    between atoms: C_28  and  C_29
REMARK   11  A    between atoms: C_31  and  O_32
REMARK   12  A    between atoms: C_33  and  C_34
REMARK   13  A    between atoms: C_35  and  O_36
REMARK                            x       y       z     vdW  Elec       q    Type
REMARK                         _______ _______ _______ _____ _____    ______ ____
ROOT
ATOM      1  C   UNL     1       1.184   7.990  20.291  0.00  0.00    +0.000 C 
ATOM      2  C   UNL     1       0.277   8.824  20.827  0.00  0.00    +0.000 C 
ATOM      3  C   UNL     1      -0.306   8.700  22.227  0.00  0.00    +0.000 C 
ATOM      4  C   UNL     1      -0.324  10.030  22.990  0.00  0.00    +0.000 C 
ATOM      5  C   UNL     1      -0.987  11.162  22.197  0.00  0.00    +0.000 C 
ATOM      6  C   UNL     1      -0.426  11.281  20.766  0.00  0.00    +0.000 C 
ATOM      7  C   UNL     1       1.005  11.890  20.881  0.00  0.00    +0.000 C 
ATOM      8  C   UNL     1      -0.381   9.919  20.039  0.00  0.00    +0.000 C 
ATOM      9  C   UNL     1      -0.039  10.288  18.596  0.00  0.00    +0.000 C 
ATOM     10  C   UNL     1      -0.743  11.644  18.380  0.00  0.00    +0.000 C 
ATOM     11  C   UNL     1      -1.280  12.121  19.760  0.00  0.00    +0.000 C 
ENDROOT
BRANCH   1  15
ATOM     12  C   UNL     1       2.967   6.423  18.167  0.00  0.00    +0.000 C 
ATOM     13  C   UNL     1       2.300   5.502  18.886  0.00  0.00    +0.000 C 
ATOM     14  C   UNL     1       2.092   5.667  20.331  0.00  0.00    +0.000 C 
ATOM     15  C   UNL     1       1.641   6.780  20.932  0.00  0.00    +0.000 C 
ATOM     16  C   UNL     1       2.400   4.449  21.183  0.00  0.00    +0.000 C 
ATOM     17  C   UNL     1       1.821   3.152  20.600  0.00  0.00    +0.000 C 
ATOM     18  C   UNL     1       2.171   2.971  19.112  0.00  0.00    +0.000 C 
ATOM     19  C   UNL     1       3.666   2.655  18.948  0.00  0.00    +0.000 C 
ATOM     20  C   UNL     1       1.729   4.214  18.310  0.00  0.00    +0.000 C 
BRANCH  17  21
ATOM     21  O   UNL     1       0.401   3.113  20.782  0.00  0.00    +0.000 OA
ATOM     22  H   UNL     1       0.208   3.005  21.730  0.00  0.00    +0.000 HD
ENDBRANCH  17  21
BRANCH  20  23
ATOM     23  O   UNL     1       2.061   4.049  16.932  0.00  0.00    +0.000 OA
ATOM     24  H   UNL     1       2.750   3.368  16.879  0.00  0.00    +0.000 HD
ENDBRANCH  20  23
ENDBRANCH   1  15
BRANCH  11  25
ATOM     25  C   UNL     1      -2.852  12.038  19.912  0.00  0.00    +0.000 C 
ATOM     26  C   UNL     1      -3.624  11.693  18.631  0.00  0.00    +0.000 C 
BRANCH  25  27
ATOM     27  C   UNL     1      -3.428  13.334  20.550  0.00  0.00    +0.000 C 
BRANCH  27  28
ATOM     28  C   UNL     1      -4.268  13.094  21.826  0.00  0.00    +0.000 C 
ATOM     29  O   UNL     1      -5.282  12.097  21.638  0.00  0.00    +0.000 OA
ATOM     30  C   UNL     1      -6.509  12.639  21.474  0.00  0.00    +0.000 C 
ATOM     31  O   UNL     1      -7.516  12.039  21.149  0.00  0.00    +0.000 OA
ATOM     32  C   UNL     1      -6.390  14.074  21.787  0.00  0.00    +0.000 C 
ATOM     33  C   UNL     1      -7.403  14.922  21.575  0.00  0.00    +0.000 C 
ATOM     34  C   UNL     1      -5.009  14.352  22.286  0.00  0.00    +0.000 C 
BRANCH  34  35
ATOM     35  C   UNL     1      -4.948  14.505  23.815  0.00  0.00    +0.000 C 
BRANCH  35  36
ATOM     36  C   UNL     1      -3.775  15.405  24.230  0.00  0.00    +0.000 C 
BRANCH  36  37
ATOM     37  C   UNL     1      -2.615  14.603  24.809  0.00  0.00    +0.000 C 
ATOM     38  C   UNL     1      -1.458  14.546  23.822  0.00  0.00    +0.000 C 
ENDBRANCH  36  37
ENDBRANCH  35  36
ENDBRANCH  34  35
ENDBRANCH  27  28
ENDBRANCH  25  27
ENDBRANCH  11  25
TORSDOF 9
ENDMDL
MODEL 3
REMARK VINA RESULT:      -8.3      1.472      2.754
REMARK  Name = 
REMARK  13 active torsions:
REMARK  status: ('A' for Active; 'I' for Inactive)
REMARK    1  A    between atoms: C_4  and  C_5
REMARK    2  A    between atoms: C_10  and  C_11
REMARK    3  A    between atoms: C_15  and  C_16
REMARK    4  A    between atoms: C_16  and  C_17
REMARK    5  A    between atoms: C_16  and  C_18
REMARK    6  A    between atoms: C_18  and  C_19
REMARK    7  A    between atoms: C_25  and  C_26
REMARK    8  A    between atoms: C_26  and  C_27
REMARK    9  A    between atoms: C_27  and  C_28
REMARK   10  A    between atoms: C_28  and  C_29
REMARK   11  A    between atoms: C_31  and  O_32
REMARK   12  A    between atoms: C_33  and  C_34
REMARK   13  A    between atoms: C_35  and  O_36
REMARK                            x       y       z     vdW  Elec       q    Type
REMARK                         _______ _______ _______ _____ _____    ______ ____
ROOT
ATOM      1  C   UNL     1       1.037   8.051  20.490  0.00  0.00    +0.000 C 
ATOM      2  C   UNL     1       0.193   8.953  21.016  0.00  0.00    +0.000 C 
ATOM      3  C   UNL     1      -0.460   8.845  22.387  0.00  0.00    +0.000 C 
ATOM      4  C   UNL     1      -0.383  10.147  23.193  0.00  0.00    +0.000 C 
ATOM      5  C   UNL     1      -0.899  11.361  22.413  0.00  0.00    +0.000 C 
ATOM      6  C   UNL     1      -0.267  11.468  21.011  0.00  0.00    +0.000 C 
ATOM      7  C   UNL     1       1.210  11.931  21.204  0.00  0.00    +0.000 C 
ATOM      8  C   UNL     1      -0.322  10.130  20.241  0.00  0.00    +0.000 C 
ATOM      9  C   UNL     1       0.117  10.507  18.825  0.00  0.00    +0.000 C 
ATOM     10  C   UNL     1      -0.443  11.931  18.627  0.00  0.00    +0.000 C 
ATOM     11  C   UNL     1      -0.991  12.416  20.000  0.00  0.00    +0.000 C 
ENDROOT
BRANCH   1  15
ATOM     12  C   UNL     1       3.312   6.683  18.728  0.00  0.00    +0.000 C 
ATOM     13  C   UNL     1       2.507   5.701  19.174  0.00  0.00    +0.000 C 
ATOM     14  C   UNL     1       1.952   5.731  20.534  0.00  0.00    +0.000 C 
ATOM     15  C   UNL     1       1.348   6.784  21.108  0.00  0.00    +0.000 C 
ATOM     16  C   UNL     1       2.065   4.435  21.319  0.00  0.00    +0.000 C 
ATOM     17  C   UNL     1       1.669   3.202  20.494  0.00  0.00    +0.000 C 
ATOM     18  C   UNL     1       2.373   3.161  19.126  0.00  0.00    +0.000 C 
ATOM     19  C   UNL     1       3.869   2.854  19.301  0.00  0.00    +0.000 C 
ATOM     20  C   UNL     1       2.116   4.477  18.359  0.00  0.00    +0.000 C 
BRANCH  17  21
ATOM     21  O   UNL     1       0.248   3.153  20.320  0.00  0.00    +0.000 OA
ATOM     22  H   UNL     1      -0.180   3.435  21.147  0.00  0.00    +0.000 HD
ENDBRANCH  17  21
BRANCH  20  23
ATOM     23  O   UNL     1       2.775   4.442  17.095  0.00  0.00    +0.000 OA
ATOM     24  H   UNL     1       3.376   5.204  17.058  0.00  0.00    +0.000 HD
ENDBRANCH  20  23
ENDBRANCH   1  15
BRANCH  11  25
ATOM     25  C   UNL     1      -2.569  12.484  20.085  0.00  0.00    +0.000 C 
ATOM     26  C   UNL     1      -3.322  11.929  18.867  0.00  0.00    +0.000 C 
BRANCH  25  27
ATOM     27  C   UNL     1      -3.058  13.924  20.405  0.00  0.00    +0.000 C 
BRANCH  27  28
ATOM     28  C   UNL     1      -4.415  13.984  21.143  0.00  0.00    +0.000 C 
ATOM     29  O   UNL     1      -4.476  15.053  22.098  0.00  0.00    +0.000 OA
ATOM     30  C   UNL     1      -4.316  14.614  23.367  0.00  0.00    +0.000 C 
ATOM     31  O   UNL     1      -4.173  15.315  24.351  0.00  0.00    +0.000 OA
ATOM     32  C   UNL     1      -4.372  13.143  23.322  0.00  0.00    +0.000 C 
ATOM     33  C   UNL     1      -4.096  12.401  24.401  0.00  0.00    +0.000 C 
ATOM     34  C   UNL     1      -4.711  12.708  21.934  0.00  0.00    +0.000 C 
BRANCH  34  35
ATOM     35  C   UNL     1      -6.183  12.289  21.784  0.00  0.00    +0.000 C 
BRANCH  35  36
ATOM     36  C   UNL     1      -6.431  11.631  20.419  0.00  0.00    +0.000 C 
BRANCH  36  37
ATOM     37  C   UNL     1      -7.377  12.454  19.550  0.00  0.00    +0.000 C 
ATOM     38  C   UNL     1      -7.216  12.085  18.083  0.00  0.00    +0.000 C 
ENDBRANCH  36  37
ENDBRANCH  35  36
ENDBRANCH  34  35
ENDBRANCH  27  28
ENDBRANCH  25  27
ENDBRANCH  11  25
TORSDOF 9
ENDMDL
MODEL 4
REMARK VINA RESULT:      -8.2      1.666      2.863
REMARK  Name = 
REMARK  13 active torsions:
REMARK  status: ('A' for Active; 'I' for Inactive)
REMARK    1  A    between atoms: C_4  and  C_5
REMARK    2  A    between atoms: C_10  and  C_11
REMARK    3  A    between atoms: C_15  and  C_16
REMARK    4  A    between atoms: C_16  and  C_17
REMARK    5  A    between atoms: C_16  and  C_18
REMARK    6  A    between atoms: C_18  and  C_19
REMARK    7  A    between atoms: C_25  and  C_26
REMARK    8  A    between atoms: C_26  and  C_27
REMARK    9  A    between atoms: C_27  and  C_28
REMARK   10  A    between atoms: C_28  and  C_29
REMARK   11  A    between atoms: C_31  and  O_32
REMARK   12  A    between atoms: C_33  and  C_34
REMARK   13  A    between atoms: C_35  and  O_36
REMARK                            x       y       z     vdW  Elec       q    Type
REMARK                         _______ _______ _______ _____ _____    ______ ____
ROOT
ATOM      1  C   UNL     1       1.409   7.913  20.248  0.00  0.00    +0.000 C 
ATOM      2  C   UNL     1       0.485   8.733  20.775  0.00  0.00    +0.000 C 
ATOM      3  C   UNL     1      -0.138   8.576  22.155  0.00  0.00    +0.000 C 
ATOM      4  C   UNL     1      -0.182   9.889  22.946  0.00  0.00    +0.000 C 
ATOM      5  C   UNL     1      -0.826  11.037  22.160  0.00  0.00    +0.000 C 
ATOM      6  C   UNL     1      -0.224  11.189  20.749  0.00  0.00    +0.000 C 
ATOM      7  C   UNL     1       1.202  11.799  20.919  0.00  0.00    +0.000 C 
ATOM      8  C   UNL     1      -0.153   9.844  19.994  0.00  0.00    +0.000 C 
ATOM      9  C   UNL     1       0.229  10.245  18.569  0.00  0.00    +0.000 C 
ATOM     10  C   UNL     1      -0.472  11.605  18.363  0.00  0.00    +0.000 C 
ATOM     11  C   UNL     1      -1.051  12.049  19.737  0.00  0.00    +0.000 C 
ENDROOT
BRANCH   1  15
ATOM     12  C   UNL     1       2.987   6.247  18.039  0.00  0.00    +0.000 C 
ATOM     13  C   UNL     1       2.326   5.364  18.809  0.00  0.00    +0.000 C 
ATOM     14  C   UNL     1       2.215   5.553  20.262  0.00  0.00    +0.000 C 
ATOM     15  C   UNL     1       1.852   6.691  20.875  0.00  0.00    +0.000 C 
ATOM     16  C   UNL     1       2.521   4.330  21.109  0.00  0.00    +0.000 C 
ATOM     17  C   UNL     1       1.850   3.055  20.579  0.00  0.00    +0.000 C 
ATOM     18  C   UNL     1       2.100   2.844  19.075  0.00  0.00    +0.000 C 
ATOM     19  C   UNL     1       3.566   2.459  18.823  0.00  0.00    +0.000 C 
ATOM     20  C   UNL     1       1.664   4.098  18.286  0.00  0.00    +0.000 C 
BRANCH  17  21
ATOM     21  O   UNL     1       0.444   3.081  20.848  0.00  0.00    +0.000 OA
ATOM     22  H   UNL     1      -0.037   2.875  20.027  0.00  0.00    +0.000 HD
ENDBRANCH  17  21
BRANCH  20  23
ATOM     23  O   UNL     1       1.902   3.904  16.893  0.00  0.00    +0.000 OA
ATOM     24  H   UNL     1       1.969   2.947  16.739  0.00  0.00    +0.000 HD
ENDBRANCH  20  23
ENDBRANCH   1  15
BRANCH  11  25
ATOM     25  C   UNL     1      -2.626  11.959  19.841  0.00  0.00    +0.000 C 
ATOM     26  C   UNL     1      -3.365  11.727  18.516  0.00  0.00    +0.000 C 
BRANCH  25  27
ATOM     27  C   UNL     1      -3.217  13.198  20.573  0.00  0.00    +0.000 C 
BRANCH  27  28
ATOM     28  C   UNL     1      -4.745  13.362  20.411  0.00  0.00    +0.000 C 
ATOM     29  O   UNL     1      -5.144  14.736  20.309  0.00  0.00    +0.000 OA
ATOM     30  C   UNL     1      -5.669  15.203  21.464  0.00  0.00    +0.000 C 
ATOM     31  O   UNL     1      -5.946  16.363  21.704  0.00  0.00    +0.000 OA
ATOM     32  C   UNL     1      -5.858  14.041  22.350  0.00  0.00    +0.000 C 
ATOM     33  C   UNL     1      -6.224  14.191  23.628  0.00  0.00    +0.000 C 
ATOM     34  C   UNL     1      -5.526  12.794  21.598  0.00  0.00    +0.000 C 
BRANCH  34  35
ATOM     35  C   UNL     1      -6.776  12.031  21.129  0.00  0.00    +0.000 C 
BRANCH  35  36
ATOM     36  C   UNL     1      -6.669  11.664  19.642  0.00  0.00    +0.000 C 
BRANCH  36  37
ATOM     37  C   UNL     1      -7.565  12.537  18.770  0.00  0.00    +0.000 C 
ATOM     38  C   UNL     1      -6.945  12.739  17.396  0.00  0.00    +0.000 C 
ENDBRANCH  36  37
ENDBRANCH  35  36
ENDBRANCH  34  35
ENDBRANCH  27  28
ENDBRANCH  25  27
ENDBRANCH  11  25
TORSDOF 9
ENDMDL
MODEL 5
REMARK VINA RESULT:      -8.0      1.364      1.821
REMARK  Name = 
REMARK  13 active torsions:
REMARK  status: ('A' for Active; 'I' for Inactive)
REMARK    1  A    between atoms: C_4  and  C_5
REMARK    2  A    between atoms: C_10  and  C_11
REMARK    3  A    between atoms: C_15  and  C_16
REMARK    4  A    between atoms: C_16  and  C_17
REMARK    5  A    between atoms: C_16  and  C_18
REMARK    6  A    between atoms: C_18  and  C_19
REMARK    7  A    between atoms: C_25  and  C_26
REMARK    8  A    between atoms: C_26  and  C_27
REMARK    9  A    between atoms: C_27  and  C_28
REMARK   10  A    between atoms: C_28  and  C_29
REMARK   11  A    between atoms: C_31  and  O_32
REMARK   12  A    between atoms: C_33  and  C_34
REMARK   13  A    between atoms: C_35  and  O_36
REMARK                            x       y       z     vdW  Elec       q    Type
REMARK                         _______ _______ _______ _____ _____    ______ ____
ROOT
ATOM      1  C   UNL     1       1.249   8.008  20.281  0.00  0.00    +0.000 C 
ATOM      2  C   UNL     1       0.335   8.833  20.819  0.00  0.00    +0.000 C 
ATOM      3  C   UNL     1      -0.251   8.695  22.216  0.00  0.00    +0.000 C 
ATOM      4  C   UNL     1      -0.281  10.020  22.987  0.00  0.00    +0.000 C 
ATOM      5  C   UNL     1      -0.949  11.153  22.201  0.00  0.00    +0.000 C 
ATOM      6  C   UNL     1      -0.384  11.286  20.772  0.00  0.00    +0.000 C 
ATOM      7  C   UNL     1       1.043  11.903  20.896  0.00  0.00    +0.000 C 
ATOM      8  C   UNL     1      -0.327   9.929  20.037  0.00  0.00    +0.000 C 
ATOM      9  C   UNL     1       0.017  10.310  18.596  0.00  0.00    +0.000 C 
ATOM     10  C   UNL     1      -0.695  11.663  18.387  0.00  0.00    +0.000 C 
ATOM     11  C   UNL     1      -1.240  12.126  19.769  0.00  0.00    +0.000 C 
ENDROOT
BRANCH   1  15
ATOM     12  C   UNL     1       2.926   6.395  18.105  0.00  0.00    +0.000 C 
ATOM     13  C   UNL     1       2.273   5.491  18.858  0.00  0.00    +0.000 C 
ATOM     14  C   UNL     1       2.123   5.672  20.308  0.00  0.00    +0.000 C 
ATOM     15  C   UNL     1       1.713   6.797  20.915  0.00  0.00    +0.000 C 
ATOM     16  C   UNL     1       2.445   4.457  21.159  0.00  0.00    +0.000 C 
ATOM     17  C   UNL     1       1.823   3.164  20.611  0.00  0.00    +0.000 C 
ATOM     18  C   UNL     1       2.114   2.965  19.113  0.00  0.00    +0.000 C 
ATOM     19  C   UNL     1       3.596   2.623  18.894  0.00  0.00    +0.000 C 
ATOM     20  C   UNL     1       1.660   4.208  18.316  0.00  0.00    +0.000 C 
BRANCH  17  21
ATOM     21  O   UNL     1       0.412   3.148  20.847  0.00  0.00    +0.000 OA
ATOM     22  H   UNL     1       0.088   4.066  20.880  0.00  0.00    +0.000 HD
ENDBRANCH  17  21
BRANCH  20  23
ATOM     23  O   UNL     1       1.936   4.025  16.928  0.00  0.00    +0.000 OA
ATOM     24  H   UNL     1       1.296   3.380  16.587  0.00  0.00    +0.000 HD
ENDBRANCH  20  23
ENDBRANCH   1  15
BRANCH  11  25
ATOM     25  C   UNL     1      -2.812  12.033  19.915  0.00  0.00    +0.000 C 
ATOM     26  C   UNL     1      -3.577  11.691  18.629  0.00  0.00    +0.000 C 
BRANCH  25  27
ATOM     27  C   UNL     1      -3.399  13.320  20.559  0.00  0.00    +0.000 C 
BRANCH  27  28
ATOM     28  C   UNL     1      -4.314  13.060  21.778  0.00  0.00    +0.000 C 
ATOM     29  O   UNL     1      -5.236  11.984  21.554  0.00  0.00    +0.000 OA
ATOM     30  C   UNL     1      -6.483  12.427  21.280  0.00  0.00    +0.000 C 
ATOM     31  O   UNL     1      -7.416  11.743  20.905  0.00  0.00    +0.000 OA
ATOM     32  C   UNL     1      -6.491  13.876  21.546  0.00  0.00    +0.000 C 
ATOM     33  C   UNL     1      -7.544  14.638  21.227  0.00  0.00    +0.000 C 
ATOM     34  C   UNL     1      -5.177  14.273  22.134  0.00  0.00    +0.000 C 
BRANCH  34  35
ATOM     35  C   UNL     1      -5.244  14.481  23.656  0.00  0.00    +0.000 C 
BRANCH  35  36
ATOM     36  C   UNL     1      -5.577  15.941  23.997  0.00  0.00    +0.000 C 
BRANCH  36  37
ATOM     37  C   UNL     1      -4.894  16.920  23.048  0.00  0.00    +0.000 C 
ATOM     38  C   UNL     1      -5.872  17.992  22.589  0.00  0.00    +0.000 C 
ENDBRANCH  36  37
ENDBRANCH  35  36
ENDBRANCH  34  35
ENDBRANCH  27  28
ENDBRANCH  25  27
ENDBRANCH  11  25
TORSDOF 9
ENDMDL
MODEL 6
REMARK VINA RESULT:      -8.0      1.253      2.129
REMARK  Name = 
REMARK  13 active torsions:
REMARK  status: ('A' for Active; 'I' for Inactive)
REMARK    1  A    between atoms: C_4  and  C_5
REMARK    2  A    between atoms: C_10  and  C_11
REMARK    3  A    between atoms: C_15  and  C_16
REMARK    4  A    between atoms: C_16  and  C_17
REMARK    5  A    between atoms: C_16  and  C_18
REMARK    6  A    between atoms: C_18  and  C_19
REMARK    7  A    between atoms: C_25  and  C_26
REMARK    8  A    between atoms: C_26  and  C_27
REMARK    9  A    between atoms: C_27  and  C_28
REMARK   10  A    between atoms: C_28  and  C_29
REMARK   11  A    between atoms: C_31  and  O_32
REMARK   12  A    between atoms: C_33  and  C_34
REMARK   13  A    between atoms: C_35  and  O_36
REMARK                            x       y       z     vdW  Elec       q    Type
REMARK                         _______ _______ _______ _____ _____    ______ ____
ROOT
ATOM      1  C   UNL     1       1.149   7.841  20.391  0.00  0.00    +0.000 C 
ATOM      2  C   UNL     1       0.302   8.744  20.912  0.00  0.00    +0.000 C 
ATOM      3  C   UNL     1      -0.337   8.650  22.290  0.00  0.00    +0.000 C 
ATOM      4  C   UNL     1      -0.264   9.964  23.077  0.00  0.00    +0.000 C 
ATOM      5  C   UNL     1      -0.796  11.163  22.285  0.00  0.00    +0.000 C 
ATOM      6  C   UNL     1      -0.177  11.255  20.876  0.00  0.00    +0.000 C 
ATOM      7  C   UNL     1       1.298  11.731  21.050  0.00  0.00    +0.000 C 
ATOM      8  C   UNL     1      -0.228   9.906  20.125  0.00  0.00    +0.000 C 
ATOM      9  C   UNL     1       0.195  10.266  18.701  0.00  0.00    +0.000 C 
ATOM     10  C   UNL     1      -0.377  11.684  18.488  0.00  0.00    +0.000 C 
ATOM     11  C   UNL     1      -0.917  12.184  19.858  0.00  0.00    +0.000 C 
ENDROOT
BRANCH   1  15
ATOM     12  C   UNL     1       3.328   6.409  18.561  0.00  0.00    +0.000 C 
ATOM     13  C   UNL     1       2.535   5.447  19.065  0.00  0.00    +0.000 C 
ATOM     14  C   UNL     1       2.042   5.513  20.447  0.00  0.00    +0.000 C 
ATOM     15  C   UNL     1       1.475   6.585  21.024  0.00  0.00    +0.000 C 
ATOM     16  C   UNL     1       2.178   4.234  21.256  0.00  0.00    +0.000 C 
ATOM     17  C   UNL     1       1.733   2.987  20.479  0.00  0.00    +0.000 C 
ATOM     18  C   UNL     1       2.374   2.908  19.082  0.00  0.00    +0.000 C 
ATOM     19  C   UNL     1       3.873   2.589  19.197  0.00  0.00    +0.000 C 
ATOM     20  C   UNL     1       2.096   4.208  18.297  0.00  0.00    +0.000 C 
BRANCH  17  21
ATOM     21  O   UNL     1       0.306   2.949  20.370  0.00  0.00    +0.000 OA
ATOM     22  H   UNL     1       0.046   2.123  19.925  0.00  0.00    +0.000 HD
ENDBRANCH  17  21
BRANCH  20  23
ATOM     23  O   UNL     1       2.697   4.137  17.006  0.00  0.00    +0.000 OA
ATOM     24  H   UNL     1       2.360   3.336  16.572  0.00  0.00    +0.000 HD
ENDBRANCH  20  23
ENDBRANCH   1  15
BRANCH  11  25
ATOM     25  C   UNL     1      -2.494  12.240  19.957  0.00  0.00    +0.000 C 
ATOM     26  C   UNL     1      -3.254  11.636  18.767  0.00  0.00    +0.000 C 
BRANCH  25  27
ATOM     27  C   UNL     1      -2.994  13.687  20.230  0.00  0.00    +0.000 C 
BRANCH  27  28
ATOM     28  C   UNL     1      -3.639  13.884  21.621  0.00  0.00    +0.000 C 
ATOM     29  O   UNL     1      -4.710  14.838  21.602  0.00  0.00    +0.000 OA
ATOM     30  C   UNL     1      -4.336  16.037  22.103  0.00  0.00    +0.000 C 
ATOM     31  O   UNL     1      -4.992  17.060  22.067  0.00  0.00    +0.000 OA
ATOM     32  C   UNL     1      -3.008  15.852  22.713  0.00  0.00    +0.000 C 
ATOM     33  C   UNL     1      -2.297  16.890  23.167  0.00  0.00    +0.000 C 
ATOM     34  C   UNL     1      -2.644  14.404  22.662  0.00  0.00    +0.000 C 
BRANCH  34  35
ATOM     35  C   UNL     1      -2.832  13.695  24.013  0.00  0.00    +0.000 C 
BRANCH  35  36
ATOM     36  C   UNL     1      -3.642  12.401  23.848  0.00  0.00    +0.000 C 
BRANCH  36  37
ATOM     37  C   UNL     1      -4.805  12.323  24.830  0.00  0.00    +0.000 C 
ATOM     38  C   UNL     1      -6.103  12.745  24.159  0.00  0.00    +0.000 C 
ENDBRANCH  36  37
ENDBRANCH  35  36
ENDBRANCH  34  35
ENDBRANCH  27  28
ENDBRANCH  25  27
ENDBRANCH  11  25
TORSDOF 9
ENDMDL
MODEL 7
REMARK VINA RESULT:      -7.8      1.520      2.116
REMARK  Name = 
REMARK  13 active torsions:
REMARK  status: ('A' for Active; 'I' for Inactive)
REMARK    1  A    between atoms: C_4  and  C_5
REMARK    2  A    between atoms: C_10  and  C_11
REMARK    3  A    between atoms: C_15  and  C_16
REMARK    4  A    between atoms: C_16  and  C_17
REMARK    5  A    between atoms: C_16  and  C_18
REMARK    6  A    between atoms: C_18  and  C_19
REMARK    7  A    between atoms: C_25  and  C_26
REMARK    8  A    between atoms: C_26  and  C_27
REMARK    9  A    between atoms: C_27  and  C_28
REMARK   10  A    between atoms: C_28  and  C_29
REMARK   11  A    between atoms: C_31  and  O_32
REMARK   12  A    between atoms: C_33  and  C_34
REMARK   13  A    between atoms: C_35  and  O_36
REMARK                            x       y       z     vdW  Elec       q    Type
REMARK                         _______ _______ _______ _____ _____    ______ ____
ROOT
ATOM      1  C   UNL     1       1.379   7.970  20.272  0.00  0.00    +0.000 C 
ATOM      2  C   UNL     1       0.444   8.783  20.792  0.00  0.00    +0.000 C 
ATOM      3  C   UNL     1      -0.206   8.607  22.157  0.00  0.00    +0.000 C 
ATOM      4  C   UNL     1      -0.266   9.908  22.966  0.00  0.00    +0.000 C 
ATOM      5  C   UNL     1      -0.894  11.067  22.184  0.00  0.00    +0.000 C 
ATOM      6  C   UNL     1      -0.264  11.239  20.787  0.00  0.00    +0.000 C 
ATOM      7  C   UNL     1       1.158  11.847  20.994  0.00  0.00    +0.000 C 
ATOM      8  C   UNL     1      -0.179   9.905  20.014  0.00  0.00    +0.000 C 
ATOM      9  C   UNL     1       0.232  10.327  18.603  0.00  0.00    +0.000 C 
ATOM     10  C   UNL     1      -0.465  11.689  18.403  0.00  0.00    +0.000 C 
ATOM     11  C   UNL     1      -1.071  12.114  19.771  0.00  0.00    +0.000 C 
ENDROOT
BRANCH   1  15
ATOM     12  C   UNL     1       3.001   6.336  18.071  0.00  0.00    +0.000 C 
ATOM     13  C   UNL     1       2.324   5.442  18.815  0.00  0.00    +0.000 C 
ATOM     14  C   UNL     1       2.185   5.610  20.268  0.00  0.00    +0.000 C 
ATOM     15  C   UNL     1       1.809   6.739  20.890  0.00  0.00    +0.000 C 
ATOM     16  C   UNL     1       2.473   4.375  21.104  0.00  0.00    +0.000 C 
ATOM     17  C   UNL     1       1.813   3.108  20.542  0.00  0.00    +0.000 C 
ATOM     18  C   UNL     1       2.093   2.918  19.041  0.00  0.00    +0.000 C 
ATOM     19  C   UNL     1       3.564   2.537  18.813  0.00  0.00    +0.000 C 
ATOM     20  C   UNL     1       1.673   4.183  18.261  0.00  0.00    +0.000 C 
BRANCH  17  21
ATOM     21  O   UNL     1       0.402   3.131  20.783  0.00  0.00    +0.000 OA
ATOM     22  H   UNL     1       0.184   3.924  21.303  0.00  0.00    +0.000 HD
ENDBRANCH  17  21
BRANCH  20  23
ATOM     23  O   UNL     1       1.939   4.010  16.870  0.00  0.00    +0.000 OA
ATOM     24  H   UNL     1       1.510   4.742  16.398  0.00  0.00    +0.000 HD
ENDBRANCH  20  23
ENDBRANCH   1  15
BRANCH  11  25
ATOM     25  C   UNL     1      -2.648  12.023  19.843  0.00  0.00    +0.000 C 
ATOM     26  C   UNL     1      -3.343  11.549  18.559  0.00  0.00    +0.000 C 
BRANCH  25  27
ATOM     27  C   UNL     1      -3.271  13.364  20.325  0.00  0.00    +0.000 C 
BRANCH  27  28
ATOM     28  C   UNL     1      -2.480  14.062  21.455  0.00  0.00    +0.000 C 
ATOM     29  O   UNL     1      -3.335  14.610  22.468  0.00  0.00    +0.000 OA
ATOM     30  C   UNL     1      -3.474  15.950  22.351  0.00  0.00    +0.000 C 
ATOM     31  O   UNL     1      -4.254  16.643  22.976  0.00  0.00    +0.000 OA
ATOM     32  C   UNL     1      -2.493  16.397  21.347  0.00  0.00    +0.000 C 
ATOM     33  C   UNL     1      -2.481  17.656  20.894  0.00  0.00    +0.000 C 
ATOM     34  C   UNL     1      -1.641  15.237  20.946  0.00  0.00    +0.000 C 
BRANCH  34  35
ATOM     35  C   UNL     1      -0.254  15.259  21.609  0.00  0.00    +0.000 C 
BRANCH  35  36
ATOM     36  C   UNL     1       0.813  15.778  20.634  0.00  0.00    +0.000 C 
BRANCH  36  37
ATOM     37  C   UNL     1       0.619  15.227  19.225  0.00  0.00    +0.000 C 
ATOM     38  C   UNL     1       1.948  14.777  18.638  0.00  0.00    +0.000 C 
ENDBRANCH  36  37
ENDBRANCH  35  36
ENDBRANCH  34  35
ENDBRANCH  27  28
ENDBRANCH  25  27
ENDBRANCH  11  25
TORSDOF 9
ENDMDL
MODEL 8
REMARK VINA RESULT:      -7.7      1.175      2.454
REMARK  Name = 
REMARK  13 active torsions:
REMARK  status: ('A' for Active; 'I' for Inactive)
REMARK    1  A    between atoms: C_4  and  C_5
REMARK    2  A    between atoms: C_10  and  C_11
REMARK    3  A    between atoms: C_15  and  C_16
REMARK    4  A    between atoms: C_16  and  C_17
REMARK    5  A    between atoms: C_16  and  C_18
REMARK    6  A    between atoms: C_18  and  C_19
REMARK    7  A    between atoms: C_25  and  C_26
REMARK    8  A    between atoms: C_26  and  C_27
REMARK    9  A    between atoms: C_27  and  C_28
REMARK   10  A    between atoms: C_28  and  C_29
REMARK   11  A    between atoms: C_31  and  O_32
REMARK   12  A    between atoms: C_33  and  C_34
REMARK   13  A    between atoms: C_35  and  O_36
REMARK                            x       y       z     vdW  Elec       q    Type
REMARK                         _______ _______ _______ _____ _____    ______ ____
ROOT
ATOM      1  C   UNL     1       1.079   7.971  20.397  0.00  0.00    +0.000 C 
ATOM      2  C   UNL     1       0.247   8.878  20.934  0.00  0.00    +0.000 C 
ATOM      3  C   UNL     1      -0.356   8.794  22.329  0.00  0.00    +0.000 C 
ATOM      4  C   UNL     1      -0.259  10.113  23.106  0.00  0.00    +0.000 C 
ATOM      5  C   UNL     1      -0.811  11.308  22.321  0.00  0.00    +0.000 C 
ATOM      6  C   UNL     1      -0.230  11.390  20.895  0.00  0.00    +0.000 C 
ATOM      7  C   UNL     1       1.250  11.866  21.027  0.00  0.00    +0.000 C 
ATOM      8  C   UNL     1      -0.303  10.036  20.154  0.00  0.00    +0.000 C 
ATOM      9  C   UNL     1       0.083  10.387  18.717  0.00  0.00    +0.000 C 
ATOM     10  C   UNL     1      -0.493  11.804  18.510  0.00  0.00    +0.000 C 
ATOM     11  C   UNL     1      -0.996  12.313  19.892  0.00  0.00    +0.000 C 
ENDROOT
BRANCH   1  15
ATOM     12  C   UNL     1       3.290   6.577  18.576  0.00  0.00    +0.000 C 
ATOM     13  C   UNL     1       2.509   5.601  19.074  0.00  0.00    +0.000 C 
ATOM     14  C   UNL     1       2.007   5.657  20.453  0.00  0.00    +0.000 C 
ATOM     15  C   UNL     1       1.420   6.719  21.028  0.00  0.00    +0.000 C 
ATOM     16  C   UNL     1       2.158   4.378  21.259  0.00  0.00    +0.000 C 
ATOM     17  C   UNL     1       1.736   3.127  20.477  0.00  0.00    +0.000 C 
ATOM     18  C   UNL     1       2.387   3.060  19.084  0.00  0.00    +0.000 C 
ATOM     19  C   UNL     1       3.890   2.764  19.207  0.00  0.00    +0.000 C 
ATOM     20  C   UNL     1       2.093   4.359  18.300  0.00  0.00    +0.000 C 
BRANCH  17  21
ATOM     21  O   UNL     1       0.310   3.067  20.359  0.00  0.00    +0.000 OA
ATOM     22  H   UNL     1      -0.002   2.227  20.740  0.00  0.00    +0.000 HD
ENDBRANCH  17  21
BRANCH  20  23
ATOM     23  O   UNL     1       2.703   4.300  17.012  0.00  0.00    +0.000 OA
ATOM     24  H   UNL     1       2.194   4.879  16.422  0.00  0.00    +0.000 HD
ENDBRANCH  20  23
ENDBRANCH   1  15
BRANCH  11  25
ATOM     25  C   UNL     1      -2.570  12.372  20.031  0.00  0.00    +0.000 C 
ATOM     26  C   UNL     1      -3.361  11.694  18.904  0.00  0.00    +0.000 C 
BRANCH  25  27
ATOM     27  C   UNL     1      -3.067  13.832  20.230  0.00  0.00    +0.000 C 
BRANCH  27  28
ATOM     28  C   UNL     1      -3.864  14.060  21.535  0.00  0.00    +0.000 C 
ATOM     29  O   UNL     1      -3.974  15.449  21.878  0.00  0.00    +0.000 OA
ATOM     30  C   UNL     1      -3.122  15.801  22.867  0.00  0.00    +0.000 C 
ATOM     31  O   UNL     1      -2.899  16.935  23.245  0.00  0.00    +0.000 OA
ATOM     32  C   UNL     1      -2.546  14.555  23.401  0.00  0.00    +0.000 C 
ATOM     33  C   UNL     1      -1.550  14.573  24.294  0.00  0.00    +0.000 C 
ATOM     34  C   UNL     1      -3.212  13.389  22.746  0.00  0.00    +0.000 C 
BRANCH  34  35
ATOM     35  C   UNL     1      -4.265  12.722  23.646  0.00  0.00    +0.000 C 
BRANCH  35  36
ATOM     36  C   UNL     1      -5.673  12.878  23.054  0.00  0.00    +0.000 C 
BRANCH  36  37
ATOM     37  C   UNL     1      -6.574  13.733  23.938  0.00  0.00    +0.000 C 
ATOM     38  C   UNL     1      -7.262  14.813  23.117  0.00  0.00    +0.000 C 
ENDBRANCH  36  37
ENDBRANCH  35  36
ENDBRANCH  34  35
ENDBRANCH  27  28
ENDBRANCH  25  27
ENDBRANCH  11  25
TORSDOF 9
ENDMDL
MODEL 9
REMARK VINA RESULT:      -7.4      1.872     10.554
REMARK  Name = 
REMARK  13 active torsions:
REMARK  status: ('A' for Active; 'I' for Inactive)
REMARK    1  A    between atoms: C_4  and  C_5
REMARK    2  A    between atoms: C_10  and  C_11
REMARK    3  A    between atoms: C_15  and  C_16
REMARK    4  A    between atoms: C_16  and  C_17
REMARK    5  A    between atoms: C_16  and  C_18
REMARK    6  A    between atoms: C_18  and  C_19
REMARK    7  A    between atoms: C_25  and  C_26
REMARK    8  A    between atoms: C_26  and  C_27
REMARK    9  A    between atoms: C_27  and  C_28
REMARK   10  A    between atoms: C_28  and  C_29
REMARK   11  A    between atoms: C_31  and  O_32
REMARK   12  A    between atoms: C_33  and  C_34
REMARK   13  A    between atoms: C_35  and  O_36
REMARK                            x       y       z     vdW  Elec       q    Type
REMARK                         _______ _______ _______ _____ _____    ______ ____
ROOT
ATOM      1  C   UNL     1      -2.424  12.492  21.131  0.00  0.00    +0.000 C 
ATOM      2  C   UNL     1      -1.628  11.729  20.364  0.00  0.00    +0.000 C 
ATOM      3  C   UNL     1      -1.642  11.705  18.843  0.00  0.00    +0.000 C 
ATOM      4  C   UNL     1      -0.238  11.775  18.229  0.00  0.00    +0.000 C 
ATOM      5  C   UNL     1       0.717  10.724  18.804  0.00  0.00    +0.000 C 
ATOM      6  C   UNL     1       0.719  10.717  20.346  0.00  0.00    +0.000 C 
ATOM      7  C   UNL     1       1.480  11.996  20.812  0.00  0.00    +0.000 C 
ATOM      8  C   UNL     1      -0.709  10.689  20.934  0.00  0.00    +0.000 C 
ATOM      9  C   UNL     1      -0.483  10.440  22.425  0.00  0.00    +0.000 C 
ATOM     10  C   UNL     1       0.759   9.525  22.468  0.00  0.00    +0.000 C 
ATOM     11  C   UNL     1       1.340   9.453  21.027  0.00  0.00    +0.000 C 
ENDROOT
BRANCH   1  15
ATOM     12  C   UNL     1      -4.357  13.155  23.575  0.00  0.00    +0.000 C 
ATOM     13  C   UNL     1      -5.129  13.008  22.483  0.00  0.00    +0.000 C 
ATOM     14  C   UNL     1      -4.700  13.512  21.172  0.00  0.00    +0.000 C 
ATOM     15  C   UNL     1      -3.495  13.311  20.615  0.00  0.00    +0.000 C 
ATOM     16  C   UNL     1      -5.740  14.304  20.400  0.00  0.00    +0.000 C 
ATOM     17  C   UNL     1      -7.122  13.635  20.404  0.00  0.00    +0.000 C 
ATOM     18  C   UNL     1      -7.575  13.235  21.819  0.00  0.00    +0.000 C 
ATOM     19  C   UNL     1      -7.916  14.484  22.647  0.00  0.00    +0.000 C 
ATOM     20  C   UNL     1      -6.500  12.348  22.487  0.00  0.00    +0.000 C 
BRANCH  17  21
ATOM     21  O   UNL     1      -7.127  12.492  19.542  0.00  0.00    +0.000 OA
ATOM     22  H   UNL     1      -6.625  11.774  19.968  0.00  0.00    +0.000 HD
ENDBRANCH  17  21
BRANCH  20  23
ATOM     23  O   UNL     1      -6.917  11.983  23.802  0.00  0.00    +0.000 OA
ATOM     24  H   UNL     1      -7.402  12.738  24.173  0.00  0.00    +0.000 HD
ENDBRANCH  20  23
ENDBRANCH   1  15
BRANCH  11  25
ATOM     25  C   UNL     1       1.117   8.066  20.302  0.00  0.00    +0.000 C 
ATOM     26  C   UNL     1       0.563   6.939  21.185  0.00  0.00    +0.000 C 
BRANCH  25  27
ATOM     27  C   UNL     1       2.408   7.591  19.577  0.00  0.00    +0.000 C 
BRANCH  27  28
ATOM     28  C   UNL     1       2.532   6.057  19.440  0.00  0.00    +0.000 C 
ATOM     29  O   UNL     1       3.736   5.546  20.030  0.00  0.00    +0.000 OA
ATOM     30  C   UNL     1       4.676   5.253  19.103  0.00  0.00    +0.000 C 
ATOM     31  O   UNL     1       5.832   4.951  19.331  0.00  0.00    +0.000 OA
ATOM     32  C   UNL     1       4.023   5.348  17.786  0.00  0.00    +0.000 C 
ATOM     33  C   UNL     1       4.726   5.261  16.651  0.00  0.00    +0.000 C 
ATOM     34  C   UNL     1       2.564   5.598  17.980  0.00  0.00    +0.000 C 
BRANCH  34  35
ATOM     35  C   UNL     1       1.711   4.335  17.775  0.00  0.00    +0.000 C 
BRANCH  35  36
ATOM     36  C   UNL     1       1.235   3.769  19.121  0.00  0.00    +0.000 C 
BRANCH  36  37
ATOM     37  C   UNL     1       1.670   2.321  19.320  0.00  0.00    +0.000 C 
ATOM     38  C   UNL     1       2.763   1.949  18.330  0.00  0.00    +0.000 C 
ENDBRANCH  36  37
ENDBRANCH  35  36
ENDBRANCH  34  35
ENDBRANCH  27  28
ENDBRANCH  25  27
ENDBRANCH  11  25
TORSDOF 9
ENDMDL
