MODEL 1
REMARK VINA RESULT:      -8.6      0.000      0.000
REMARK  Name = 
REMARK  6 active torsions:
REMARK  status: ('A' for Active; 'I' for Inactive)
REMARK    1  A    between atoms: C_1  and  N_2
REMARK    2  A    between atoms: C_5  and  N_6
REMARK    3  A    between atoms: N_9  and  C_10
REMARK    4  A    between atoms: C_10  and  C_11
REMARK    5  A    between atoms: C_15  and  C_16
REMARK    6  A    between atoms: C_19  and  C_20
REMARK                            x       y       z     vdW  Elec       q    Type
REMARK                         _______ _______ _______ _____ _____    ______ ____
ROOT
ATOM      1  C   UNL     1       1.370  14.000  19.343  0.00  0.00    +0.000 A 
ATOM      2  C   UNL     1       0.045  14.348  19.059  0.00  0.00    +0.000 A 
ATOM      3  C   UNL     1      -0.899  13.355  18.837  0.00  0.00    +0.000 A 
ATOM      4  C   UNL     1      -0.520  12.012  18.883  0.00  0.00    +0.000 A 
ATOM      5  C   UNL     1       0.799  11.617  19.190  0.00  0.00    +0.000 A 
ATOM      6  C   UNL     1       1.724  12.641  19.449  0.00  0.00    +0.000 A 
ENDROOT
BRANCH   5   7
ATOM      7  C   UNL     1       1.182  10.183  19.179  0.00  0.00    +0.000 A 
ATOM      8  C   UNL     1       1.057   9.348  20.309  0.00  0.00    +0.000 A 
ATOM      9  C   UNL     1       1.512   8.014  20.303  0.00  0.00    +0.000 A 
ATOM     10  C   UNL     1       2.108   7.483  19.157  0.00  0.00    +0.000 A 
ATOM     11  C   UNL     1       2.197   8.293  18.020  0.00  0.00    +0.000 A 
ATOM     12  C   UNL     1       1.738   9.610  18.025  0.00  0.00    +0.000 A 
BRANCH  10  13
ATOM     13  C   UNL     1       2.576   6.105  19.029  0.00  0.00    +0.000 A 
ATOM     14  N   UNL     1       2.247   5.323  18.013  0.00  0.00    +0.000 NA
ATOM     15  C   UNL     1       2.815   4.114  18.260  0.00  0.00    +0.000 A 
ATOM     16  C   UNL     1       2.714   2.931  17.519  0.00  0.00    +0.000 A 
ATOM     17  C   UNL     1       3.341   1.784  18.009  0.00  0.00    +0.000 A 
ATOM     18  C   UNL     1       4.082   1.829  19.193  0.00  0.00    +0.000 A 
ATOM     19  C   UNL     1       4.227   3.019  19.927  0.00  0.00    +0.000 A 
ATOM     20  C   UNL     1       3.560   4.143  19.433  0.00  0.00    +0.000 A 
ATOM     21  N   UNL     1       3.428   5.440  19.877  0.00  0.00    +0.000 N 
ATOM     22  H   UNL     1       3.881   5.836  20.688  0.00  0.00    +0.000 HD
ENDBRANCH  10  13
ENDBRANCH   5   7
BRANCH   1  23
ATOM     23  C   UNL     1       2.427  15.079  19.464  0.00  0.00    +0.000 C 
BRANCH  23  27
ATOM     24  N   UNL     1       5.797  16.627  18.699  0.00  0.00    +0.000 NA
ATOM     25  C   UNL     1       5.011  15.803  17.750  0.00  0.00    +0.000 C 
ATOM     26  C   UNL     1       4.513  14.450  18.312  0.00  0.00    +0.000 C 
ATOM     27  N   UNL     1       3.792  14.528  19.603  0.00  0.00    +0.000 NA
ATOM     28  C   UNL     1       4.594  15.346  20.536  0.00  0.00    +0.000 C 
ATOM     29  C   UNL     1       5.033  16.713  19.963  0.00  0.00    +0.000 C 
BRANCH  24  34
ATOM     30  C   UNL     1      11.237  15.523  17.321  0.00  0.00    +0.000 C 
ATOM     31  N   UNL     1       9.830  15.873  17.501  0.00  0.00    +0.000 NA
ATOM     32  C   UNL     1       9.026  14.696  17.826  0.00  0.00    +0.000 C 
ATOM     33  C   UNL     1       7.541  15.058  17.847  0.00  0.00    +0.000 C 
ATOM     34  C   UNL     1       7.214  16.186  18.853  0.00  0.00    +0.000 C 
ATOM     35  C   UNL     1       8.215  17.346  18.640  0.00  0.00    +0.000 C 
ATOM     36  C   UNL     1       9.671  16.890  18.540  0.00  0.00    +0.000 C 
ENDBRANCH  24  34
ENDBRANCH  23  27
ENDBRANCH   1  23
TORSDOF 5
ENDMDL
MODEL 2
REMARK VINA RESULT:      -8.3      0.972      1.397
REMARK  Name = 
REMARK  6 active torsions:
REMARK  status: ('A' for Active; 'I' for Inactive)
REMARK    1  A    between atoms: C_1  and  N_2
REMARK    2  A    between atoms: C_5  and  N_6
REMARK    3  A    between atoms: N_9  and  C_10
REMARK    4  A    between atoms: C_10  and  C_11
REMARK    5  A    between atoms: C_15  and  C_16
REMARK    6  A    between atoms: C_19  and  C_20
REMARK                            x       y       z     vdW  Elec       q    Type
REMARK                         _______ _______ _______ _____ _____    ______ ____
ROOT
ATOM      1  C   UNL     1       1.813  14.355  19.372  0.00  0.00    +0.000 A 
ATOM      2  C   UNL     1       0.577  14.823  18.912  0.00  0.00    +0.000 A 
ATOM      3  C   UNL     1      -0.405  13.921  18.525  0.00  0.00    +0.000 A 
ATOM      4  C   UNL     1      -0.151  12.550  18.582  0.00  0.00    +0.000 A 
ATOM      5  C   UNL     1       1.071  12.035  19.062  0.00  0.00    +0.000 A 
ATOM      6  C   UNL     1       2.032  12.968  19.483  0.00  0.00    +0.000 A 
ENDROOT
BRANCH   5   7
ATOM      7  C   UNL     1       1.330  10.572  19.059  0.00  0.00    +0.000 A 
ATOM      8  C   UNL     1       1.088   9.750  20.180  0.00  0.00    +0.000 A 
ATOM      9  C   UNL     1       1.427   8.382  20.185  0.00  0.00    +0.000 A 
ATOM     10  C   UNL     1       2.021   7.803  19.062  0.00  0.00    +0.000 A 
ATOM     11  C   UNL     1       2.226   8.604  17.933  0.00  0.00    +0.000 A 
ATOM     12  C   UNL     1       1.881   9.955  17.926  0.00  0.00    +0.000 A 
BRANCH  10  13
ATOM     13  C   UNL     1       2.374   6.390  18.947  0.00  0.00    +0.000 A 
ATOM     14  N   UNL     1       3.088   5.905  17.943  0.00  0.00    +0.000 NA
ATOM     15  C   UNL     1       3.168   4.563  18.143  0.00  0.00    +0.000 A 
ATOM     16  C   UNL     1       3.762   3.590  17.331  0.00  0.00    +0.000 A 
ATOM     17  C   UNL     1       3.660   2.252  17.715  0.00  0.00    +0.000 A 
ATOM     18  C   UNL     1       3.012   1.899  18.901  0.00  0.00    +0.000 A 
ATOM     19  C   UNL     1       2.446   2.867  19.748  0.00  0.00    +0.000 A 
ATOM     20  C   UNL     1       2.531   4.196  19.323  0.00  0.00    +0.000 A 
ATOM     21  N   UNL     1       2.075   5.389  19.838  0.00  0.00    +0.000 N 
ATOM     22  H   UNL     1       1.602   5.508  20.722  0.00  0.00    +0.000 HD
ENDBRANCH  10  13
ENDBRANCH   5   7
BRANCH   1  23
ATOM     23  C   UNL     1       2.928  15.334  19.677  0.00  0.00    +0.000 C 
BRANCH  23  27
ATOM     24  N   UNL     1       6.576  16.348  19.686  0.00  0.00    +0.000 NA
ATOM     25  C   UNL     1       5.441  17.281  19.490  0.00  0.00    +0.000 C 
ATOM     26  C   UNL     1       4.412  16.847  18.419  0.00  0.00    +0.000 C 
ATOM     27  N   UNL     1       3.891  15.468  18.564  0.00  0.00    +0.000 NA
ATOM     28  C   UNL     1       5.037  14.554  18.749  0.00  0.00    +0.000 C 
ATOM     29  C   UNL     1       6.019  14.989  19.861  0.00  0.00    +0.000 C 
BRANCH  24  34
ATOM     30  C   UNL     1      11.780  16.947  17.388  0.00  0.00    +0.000 C 
ATOM     31  N   UNL     1      10.536  16.796  18.140  0.00  0.00    +0.000 NA
ATOM     32  C   UNL     1       9.610  17.893  17.861  0.00  0.00    +0.000 C 
ATOM     33  C   UNL     1       8.391  17.802  18.779  0.00  0.00    +0.000 C 
ATOM     34  C   UNL     1       7.637  16.459  18.642  0.00  0.00    +0.000 C 
ATOM     35  C   UNL     1       8.663  15.304  18.725  0.00  0.00    +0.000 C 
ATOM     36  C   UNL     1       9.896  15.514  17.846  0.00  0.00    +0.000 C 
ENDBRANCH  24  34
ENDBRANCH  23  27
ENDBRANCH   1  23
TORSDOF 5
ENDMDL
MODEL 3
REMARK VINA RESULT:      -8.0      1.132      1.288
REMARK  Name = 
REMARK  6 active torsions:
REMARK  status: ('A' for Active; 'I' for Inactive)
REMARK    1  A    between atoms: C_1  and  N_2
REMARK    2  A    between atoms: C_5  and  N_6
REMARK    3  A    between atoms: N_9  and  C_10
REMARK    4  A    between atoms: C_10  and  C_11
REMARK    5  A    between atoms: C_15  and  C_16
REMARK    6  A    between atoms: C_19  and  C_20
REMARK                            x       y       z     vdW  Elec       q    Type
REMARK                         _______ _______ _______ _____ _____    ______ ____
ROOT
ATOM      1  C   UNL     1       1.590  14.251  19.579  0.00  0.00    +0.000 A 
ATOM      2  C   UNL     1       0.385  14.697  19.024  0.00  0.00    +0.000 A 
ATOM      3  C   UNL     1      -0.536  13.777  18.541  0.00  0.00    +0.000 A 
ATOM      4  C   UNL     1      -0.251  12.412  18.597  0.00  0.00    +0.000 A 
ATOM      5  C   UNL     1       0.940  11.919  19.170  0.00  0.00    +0.000 A 
ATOM      6  C   UNL     1       1.836  12.868  19.686  0.00  0.00    +0.000 A 
ENDROOT
BRANCH   5   7
ATOM      7  C   UNL     1       1.238  10.464  19.165  0.00  0.00    +0.000 A 
ATOM      8  C   UNL     1       1.081   9.648  20.305  0.00  0.00    +0.000 A 
ATOM      9  C   UNL     1       1.456   8.289  20.303  0.00  0.00    +0.000 A 
ATOM     10  C   UNL     1       2.001   7.714  19.152  0.00  0.00    +0.000 A 
ATOM     11  C   UNL     1       2.120   8.509  18.007  0.00  0.00    +0.000 A 
ATOM     12  C   UNL     1       1.739   9.850  18.008  0.00  0.00    +0.000 A 
BRANCH  10  13
ATOM     13  C   UNL     1       2.384   6.310  19.030  0.00  0.00    +0.000 A 
ATOM     14  N   UNL     1       3.028   5.827  17.978  0.00  0.00    +0.000 NA
ATOM     15  C   UNL     1       3.163   4.492  18.190  0.00  0.00    +0.000 A 
ATOM     16  C   UNL     1       3.716   3.522  17.347  0.00  0.00    +0.000 A 
ATOM     17  C   UNL     1       3.686   2.189  17.758  0.00  0.00    +0.000 A 
ATOM     18  C   UNL     1       3.149   1.838  18.999  0.00  0.00    +0.000 A 
ATOM     19  C   UNL     1       2.626   2.805  19.876  0.00  0.00    +0.000 A 
ATOM     20  C   UNL     1       2.637   4.128  19.424  0.00  0.00    +0.000 A 
ATOM     21  N   UNL     1       2.190   5.317  19.958  0.00  0.00    +0.000 N 
ATOM     22  H   UNL     1       1.788   5.438  20.876  0.00  0.00    +0.000 HD
ENDBRANCH  10  13
ENDBRANCH   5   7
BRANCH   1  23
ATOM     23  C   UNL     1       2.649  15.253  19.994  0.00  0.00    +0.000 C 
BRANCH  23  27
ATOM     24  N   UNL     1       5.947  17.110  19.914  0.00  0.00    +0.000 NA
ATOM     25  C   UNL     1       5.100  16.841  18.727  0.00  0.00    +0.000 C 
ATOM     26  C   UNL     1       4.651  15.370  18.561  0.00  0.00    +0.000 C 
ATOM     27  N   UNL     1       4.023  14.762  19.757  0.00  0.00    +0.000 NA
ATOM     28  C   UNL     1       4.886  15.034  20.925  0.00  0.00    +0.000 C 
ATOM     29  C   UNL     1       5.275  16.521  21.092  0.00  0.00    +0.000 C 
BRANCH  24  34
ATOM     30  C   UNL     1      11.623  17.609  19.405  0.00  0.00    +0.000 C 
ATOM     31  N   UNL     1      10.171  17.665  19.561  0.00  0.00    +0.000 NA
ATOM     32  C   UNL     1       9.488  17.166  18.369  0.00  0.00    +0.000 C 
ATOM     33  C   UNL     1       7.980  17.388  18.491  0.00  0.00    +0.000 C 
ATOM     34  C   UNL     1       7.374  16.708  19.742  0.00  0.00    +0.000 C 
ATOM     35  C   UNL     1       8.238  17.075  20.972  0.00  0.00    +0.000 C 
ATOM     36  C   UNL     1       9.740  16.912  20.738  0.00  0.00    +0.000 C 
ENDBRANCH  24  34
ENDBRANCH  23  27
ENDBRANCH   1  23
TORSDOF 5
ENDMDL
MODEL 4
REMARK VINA RESULT:      -7.9      1.032      1.351
REMARK  Name = 
REMARK  6 active torsions:
REMARK  status: ('A' for Active; 'I' for Inactive)
REMARK    1  A    between atoms: C_1  and  N_2
REMARK    2  A    between atoms: C_5  and  N_6
REMARK    3  A    between atoms: N_9  and  C_10
REMARK    4  A    between atoms: C_10  and  C_11
REMARK    5  A    between atoms: C_15  and  C_16
REMARK    6  A    between atoms: C_19  and  C_20
REMARK                            x       y       z     vdW  Elec       q    Type
REMARK                         _______ _______ _______ _____ _____    ______ ____
ROOT
ATOM      1  C   UNL     1       1.271  14.082  20.067  0.00  0.00    +0.000 A 
ATOM      2  C   UNL     1       0.219  14.542  19.266  0.00  0.00    +0.000 A 
ATOM      3  C   UNL     1      -0.519  13.642  18.509  0.00  0.00    +0.000 A 
ATOM      4  C   UNL     1      -0.200  12.283  18.537  0.00  0.00    +0.000 A 
ATOM      5  C   UNL     1       0.836  11.775  19.348  0.00  0.00    +0.000 A 
ATOM      6  C   UNL     1       1.540  12.701  20.133  0.00  0.00    +0.000 A 
ENDROOT
BRANCH   5   7
ATOM      7  C   UNL     1       1.186  10.332  19.314  0.00  0.00    +0.000 A 
ATOM      8  C   UNL     1       1.100   9.497  20.447  0.00  0.00    +0.000 A 
ATOM      9  C   UNL     1       1.524   8.153  20.415  0.00  0.00    +0.000 A 
ATOM     10  C   UNL     1       2.048   7.612  19.238  0.00  0.00    +0.000 A 
ATOM     11  C   UNL     1       2.096   8.423  18.100  0.00  0.00    +0.000 A 
ATOM     12  C   UNL     1       1.667   9.750  18.131  0.00  0.00    +0.000 A 
BRANCH  10  13
ATOM     13  C   UNL     1       2.477   6.224  19.084  0.00  0.00    +0.000 A 
ATOM     14  N   UNL     1       2.272   5.525  17.979  0.00  0.00    +0.000 NA
ATOM     15  C   UNL     1       2.751   4.277  18.220  0.00  0.00    +0.000 A 
ATOM     16  C   UNL     1       2.716   3.149  17.392  0.00  0.00    +0.000 A 
ATOM     17  C   UNL     1       3.220   1.945  17.887  0.00  0.00    +0.000 A 
ATOM     18  C   UNL     1       3.779   1.879  19.166  0.00  0.00    +0.000 A 
ATOM     19  C   UNL     1       3.859   3.012  19.994  0.00  0.00    +0.000 A 
ATOM     20  C   UNL     1       3.315   4.196  19.488  0.00  0.00    +0.000 A 
ATOM     21  N   UNL     1       3.168   5.467  19.998  0.00  0.00    +0.000 N 
ATOM     22  H   UNL     1       3.511   5.788  20.891  0.00  0.00    +0.000 HD
ENDBRANCH  10  13
ENDBRANCH   5   7
BRANCH   1  23
ATOM     23  C   UNL     1       2.155  15.072  20.798  0.00  0.00    +0.000 C 
BRANCH  23  27
ATOM     24  N   UNL     1       4.759  17.391  19.323  0.00  0.00    +0.000 NA
ATOM     25  C   UNL     1       3.949  16.425  18.542  0.00  0.00    +0.000 C 
ATOM     26  C   UNL     1       3.936  14.981  19.096  0.00  0.00    +0.000 C 
ATOM     27  N   UNL     1       3.593  14.857  20.532  0.00  0.00    +0.000 NA
ATOM     28  C   UNL     1       4.416  15.821  21.292  0.00  0.00    +0.000 C 
ATOM     29  C   UNL     1       4.367  17.265  20.743  0.00  0.00    +0.000 C 
BRANCH  24  34
ATOM     30  C   UNL     1      10.175  15.628  19.839  0.00  0.00    +0.000 C 
ATOM     31  N   UNL     1       8.750  15.950  19.834  0.00  0.00    +0.000 NA
ATOM     32  C   UNL     1       8.519  17.345  20.208  0.00  0.00    +0.000 C 
ATOM     33  C   UNL     1       7.020  17.611  20.356  0.00  0.00    +0.000 C 
ATOM     34  C   UNL     1       6.226  17.295  19.067  0.00  0.00    +0.000 C 
ATOM     35  C   UNL     1       6.641  15.894  18.560  0.00  0.00    +0.000 C 
ATOM     36  C   UNL     1       8.154  15.676  18.527  0.00  0.00    +0.000 C 
ENDBRANCH  24  34
ENDBRANCH  23  27
ENDBRANCH   1  23
TORSDOF 5
ENDMDL
MODEL 5
REMARK VINA RESULT:      -7.8      3.498     10.471
REMARK  Name = 
REMARK  6 active torsions:
REMARK  status: ('A' for Active; 'I' for Inactive)
REMARK    1  A    between atoms: C_1  and  N_2
REMARK    2  A    between atoms: C_5  and  N_6
REMARK    3  A    between atoms: N_9  and  C_10
REMARK    4  A    between atoms: C_10  and  C_11
REMARK    5  A    between atoms: C_15  and  C_16
REMARK    6  A    between atoms: C_19  and  C_20
REMARK                            x       y       z     vdW  Elec       q    Type
REMARK                         _______ _______ _______ _____ _____    ______ ____
ROOT
ATOM      1  C   UNL     1       4.457   3.736  17.885  0.00  0.00    +0.000 A 
ATOM      2  C   UNL     1       4.625   3.145  16.627  0.00  0.00    +0.000 A 
ATOM      3  C   UNL     1       5.592   3.630  15.758  0.00  0.00    +0.000 A 
ATOM      4  C   UNL     1       6.384   4.717  16.135  0.00  0.00    +0.000 A 
ATOM      5  C   UNL     1       6.264   5.326  17.401  0.00  0.00    +0.000 A 
ATOM      6  C   UNL     1       5.305   4.790  18.275  0.00  0.00    +0.000 A 
ENDROOT
BRANCH   5   7
ATOM      7  C   UNL     1       7.084   6.514  17.751  0.00  0.00    +0.000 A 
ATOM      8  C   UNL     1       8.006   6.519  18.819  0.00  0.00    +0.000 A 
ATOM      9  C   UNL     1       8.706   7.685  19.190  0.00  0.00    +0.000 A 
ATOM     10  C   UNL     1       8.497   8.879  18.497  0.00  0.00    +0.000 A 
ATOM     11  C   UNL     1       7.615   8.869  17.411  0.00  0.00    +0.000 A 
ATOM     12  C   UNL     1       6.930   7.712  17.039  0.00  0.00    +0.000 A 
BRANCH  10  13
ATOM     13  C   UNL     1       9.198  10.130  18.772  0.00  0.00    +0.000 A 
ATOM     14  N   UNL     1       9.531  10.517  19.994  0.00  0.00    +0.000 NA
ATOM     15  C   UNL     1      10.112  11.738  19.865  0.00  0.00    +0.000 A 
ATOM     16  C   UNL     1      10.581  12.596  20.866  0.00  0.00    +0.000 A 
ATOM     17  C   UNL     1      11.086  13.842  20.492  0.00  0.00    +0.000 A 
ATOM     18  C   UNL     1      11.155  14.206  19.145  0.00  0.00    +0.000 A 
ATOM     19  C   UNL     1      10.726  13.340  18.124  0.00  0.00    +0.000 A 
ATOM     20  C   UNL     1      10.193  12.114  18.529  0.00  0.00    +0.000 A 
ATOM     21  N   UNL     1       9.644  11.047  17.851  0.00  0.00    +0.000 N 
ATOM     22  H   UNL     1       9.581  10.954  16.848  0.00  0.00    +0.000 HD
ENDBRANCH  10  13
ENDBRANCH   5   7
BRANCH   1  23
ATOM     23  C   UNL     1       3.323   3.290  18.786  0.00  0.00    +0.000 C 
BRANCH  23  27
ATOM     24  N   UNL     1       2.399   6.670  20.221  0.00  0.00    +0.000 NA
ATOM     25  C   UNL     1       2.055   5.367  20.839  0.00  0.00    +0.000 C 
ATOM     26  C   UNL     1       1.387   4.345  19.889  0.00  0.00    +0.000 C 
ATOM     27  N   UNL     1       2.102   4.107  18.614  0.00  0.00    +0.000 NA
ATOM     28  C   UNL     1       2.429   5.416  18.010  0.00  0.00    +0.000 C 
ATOM     29  C   UNL     1       3.140   6.396  18.971  0.00  0.00    +0.000 C 
BRANCH  24  34
ATOM     30  C   UNL     1      -0.683  11.482  20.476  0.00  0.00    +0.000 C 
ATOM     31  N   UNL     1       0.245  10.354  20.477  0.00  0.00    +0.000 NA
ATOM     32  C   UNL     1      -0.239   9.267  21.326  0.00  0.00    +0.000 C 
ATOM     33  C   UNL     1       0.822   8.172  21.441  0.00  0.00    +0.000 C 
ATOM     34  C   UNL     1       1.236   7.593  20.068  0.00  0.00    +0.000 C 
ATOM     35  C   UNL     1       1.542   8.766  19.107  0.00  0.00    +0.000 C 
ATOM     36  C   UNL     1       0.476   9.863  19.118  0.00  0.00    +0.000 C 
ENDBRANCH  24  34
ENDBRANCH  23  27
ENDBRANCH   1  23
TORSDOF 5
ENDMDL
MODEL 6
REMARK VINA RESULT:      -7.7      2.116      2.577
REMARK  Name = 
REMARK  6 active torsions:
REMARK  status: ('A' for Active; 'I' for Inactive)
REMARK    1  A    between atoms: C_1  and  N_2
REMARK    2  A    between atoms: C_5  and  N_6
REMARK    3  A    between atoms: N_9  and  C_10
REMARK    4  A    between atoms: C_10  and  C_11
REMARK    5  A    between atoms: C_15  and  C_16
REMARK    6  A    between atoms: C_19  and  C_20
REMARK                            x       y       z     vdW  Elec       q    Type
REMARK                         _______ _______ _______ _____ _____    ______ ____
ROOT
ATOM      1  C   UNL     1       0.601  13.794  19.139  0.00  0.00    +0.000 A 
ATOM      2  C   UNL     1      -0.753  13.889  19.480  0.00  0.00    +0.000 A 
ATOM      3  C   UNL     1      -1.482  12.738  19.745  0.00  0.00    +0.000 A 
ATOM      4  C   UNL     1      -0.867  11.488  19.656  0.00  0.00    +0.000 A 
ATOM      5  C   UNL     1       0.500  11.349  19.339  0.00  0.00    +0.000 A 
ATOM      6  C   UNL     1       1.224  12.531  19.114  0.00  0.00    +0.000 A 
ENDROOT
BRANCH   5   7
ATOM      7  C   UNL     1       1.112  10.003  19.199  0.00  0.00    +0.000 A 
ATOM      8  C   UNL     1       1.647   9.528  17.983  0.00  0.00    +0.000 A 
ATOM      9  C   UNL     1       2.139   8.214  17.850  0.00  0.00    +0.000 A 
ATOM     10  C   UNL     1       2.107   7.340  18.939  0.00  0.00    +0.000 A 
ATOM     11  C   UNL     1       1.616   7.819  20.158  0.00  0.00    +0.000 A 
ATOM     12  C   UNL     1       1.138   9.122  20.291  0.00  0.00    +0.000 A 
BRANCH  10  13
ATOM     13  C   UNL     1       2.627   5.976  18.922  0.00  0.00    +0.000 A 
ATOM     14  N   UNL     1       2.363   5.115  17.950  0.00  0.00    +0.000 NA
ATOM     15  C   UNL     1       2.964   3.948  18.298  0.00  0.00    +0.000 A 
ATOM     16  C   UNL     1       2.933   2.715  17.637  0.00  0.00    +0.000 A 
ATOM     17  C   UNL     1       3.581   1.628  18.225  0.00  0.00    +0.000 A 
ATOM     18  C   UNL     1       4.276   1.779  19.428  0.00  0.00    +0.000 A 
ATOM     19  C   UNL     1       4.351   3.020  20.084  0.00  0.00    +0.000 A 
ATOM     20  C   UNL     1       3.664   4.083  19.492  0.00  0.00    +0.000 A 
ATOM     21  N   UNL     1       3.470   5.401  19.842  0.00  0.00    +0.000 N 
ATOM     22  H   UNL     1       3.878   5.866  20.639  0.00  0.00    +0.000 HD
ENDBRANCH  10  13
ENDBRANCH   5   7
BRANCH   1  23
ATOM     23  C   UNL     1       1.368  15.035  18.729  0.00  0.00    +0.000 C 
BRANCH  23  27
ATOM     24  N   UNL     1       4.871  15.969  19.821  0.00  0.00    +0.000 NA
ATOM     25  C   UNL     1       4.132  14.772  20.289  0.00  0.00    +0.000 C 
ATOM     26  C   UNL     1       2.699  15.045  20.804  0.00  0.00    +0.000 C 
ATOM     27  N   UNL     1       1.835  15.825  19.888  0.00  0.00    +0.000 NA
ATOM     28  C   UNL     1       2.586  17.016  19.440  0.00  0.00    +0.000 C 
ATOM     29  C   UNL     1       3.995  16.704  18.884  0.00  0.00    +0.000 C 
BRANCH  24  34
ATOM     30  C   UNL     1       8.771  18.294  23.300  0.00  0.00    +0.000 C 
ATOM     31  N   UNL     1       7.918  17.622  22.322  0.00  0.00    +0.000 NA
ATOM     32  C   UNL     1       6.975  16.715  22.974  0.00  0.00    +0.000 C 
ATOM     33  C   UNL     1       6.210  15.905  21.927  0.00  0.00    +0.000 C 
ATOM     34  C   UNL     1       5.441  16.797  20.924  0.00  0.00    +0.000 C 
ATOM     35  C   UNL     1       6.399  17.892  20.399  0.00  0.00    +0.000 C 
ATOM     36  C   UNL     1       7.193  18.593  21.502  0.00  0.00    +0.000 C 
ENDBRANCH  24  34
ENDBRANCH  23  27
ENDBRANCH   1  23
TORSDOF 5
ENDMDL
MODEL 7
REMARK VINA RESULT:      -7.6      1.186      1.280
REMARK  Name = 
REMARK  6 active torsions:
REMARK  status: ('A' for Active; 'I' for Inactive)
REMARK    1  A    between atoms: C_1  and  N_2
REMARK    2  A    between atoms: C_5  and  N_6
REMARK    3  A    between atoms: N_9  and  C_10
REMARK    4  A    between atoms: C_10  and  C_11
REMARK    5  A    between atoms: C_15  and  C_16
REMARK    6  A    between atoms: C_19  and  C_20
REMARK                            x       y       z     vdW  Elec       q    Type
REMARK                         _______ _______ _______ _____ _____    ______ ____
ROOT
ATOM      1  C   UNL     1       1.715  14.655  20.005  0.00  0.00    +0.000 A 
ATOM      2  C   UNL     1       0.674  15.153  19.212  0.00  0.00    +0.000 A 
ATOM      3  C   UNL     1      -0.218  14.276  18.611  0.00  0.00    +0.000 A 
ATOM      4  C   UNL     1      -0.066  12.900  18.787  0.00  0.00    +0.000 A 
ATOM      5  C   UNL     1       0.953  12.357  19.597  0.00  0.00    +0.000 A 
ATOM      6  C   UNL     1       1.817  13.268  20.225  0.00  0.00    +0.000 A 
ENDROOT
BRANCH   5   7
ATOM      7  C   UNL     1       1.120  10.887  19.721  0.00  0.00    +0.000 A 
ATOM      8  C   UNL     1       0.919  10.193  20.932  0.00  0.00    +0.000 A 
ATOM      9  C   UNL     1       1.172   8.811  21.049  0.00  0.00    +0.000 A 
ATOM     10  C   UNL     1       1.637   8.089  19.948  0.00  0.00    +0.000 A 
ATOM     11  C   UNL     1       1.799   8.764  18.733  0.00  0.00    +0.000 A 
ATOM     12  C   UNL     1       1.539  10.129  18.617  0.00  0.00    +0.000 A 
BRANCH  10  13
ATOM     13  C   UNL     1       1.892   6.651  19.948  0.00  0.00    +0.000 A 
ATOM     14  N   UNL     1       2.781   6.075  19.153  0.00  0.00    +0.000 NA
ATOM     15  C   UNL     1       2.703   4.741  19.392  0.00  0.00    +0.000 A 
ATOM     16  C   UNL     1       3.390   3.696  18.765  0.00  0.00    +0.000 A 
ATOM     17  C   UNL     1       3.094   2.384  19.140  0.00  0.00    +0.000 A 
ATOM     18  C   UNL     1       2.158   2.126  20.145  0.00  0.00    +0.000 A 
ATOM     19  C   UNL     1       1.488   3.165  20.814  0.00  0.00    +0.000 A 
ATOM     20  C   UNL     1       1.778   4.466  20.394  0.00  0.00    +0.000 A 
ATOM     21  N   UNL     1       1.312   5.709  20.763  0.00  0.00    +0.000 N 
ATOM     22  H   UNL     1       0.654   5.897  21.506  0.00  0.00    +0.000 HD
ENDBRANCH  10  13
ENDBRANCH   5   7
BRANCH   1  23
ATOM     23  C   UNL     1       2.761  15.599  20.562  0.00  0.00    +0.000 C 
BRANCH  23  27
ATOM     24  N   UNL     1       5.976  17.213  19.379  0.00  0.00    +0.000 NA
ATOM     25  C   UNL     1       5.056  16.432  18.517  0.00  0.00    +0.000 C 
ATOM     26  C   UNL     1       4.649  15.048  19.076  0.00  0.00    +0.000 C 
ATOM     27  N   UNL     1       4.132  15.053  20.464  0.00  0.00    +0.000 NA
ATOM     28  C   UNL     1       5.065  15.829  21.307  0.00  0.00    +0.000 C 
ATOM     29  C   UNL     1       5.412  17.227  20.746  0.00  0.00    +0.000 C 
BRANCH  24  34
ATOM     30  C   UNL     1      11.242  16.518  17.258  0.00  0.00    +0.000 C 
ATOM     31  N   UNL     1       9.862  16.797  17.648  0.00  0.00    +0.000 NA
ATOM     32  C   UNL     1       9.094  15.563  17.804  0.00  0.00    +0.000 C 
ATOM     33  C   UNL     1       7.619  15.886  18.049  0.00  0.00    +0.000 C 
ATOM     34  C   UNL     1       7.400  16.777  19.294  0.00  0.00    +0.000 C 
ATOM     35  C   UNL     1       8.376  17.975  19.224  0.00  0.00    +0.000 C 
ATOM     36  C   UNL     1       9.813  17.577  18.885  0.00  0.00    +0.000 C 
ENDBRANCH  24  34
ENDBRANCH  23  27
ENDBRANCH   1  23
TORSDOF 5
ENDMDL
MODEL 8
REMARK VINA RESULT:      -7.5      1.440      1.897
REMARK  Name = 
REMARK  6 active torsions:
REMARK  status: ('A' for Active; 'I' for Inactive)
REMARK    1  A    between atoms: C_1  and  N_2
REMARK    2  A    between atoms: C_5  and  N_6
REMARK    3  A    between atoms: N_9  and  C_10
REMARK    4  A    between atoms: C_10  and  C_11
REMARK    5  A    between atoms: C_15  and  C_16
REMARK    6  A    between atoms: C_19  and  C_20
REMARK                            x       y       z     vdW  Elec       q    Type
REMARK                         _______ _______ _______ _____ _____    ______ ____
ROOT
ATOM      1  C   UNL     1       0.652  14.348  19.890  0.00  0.00    +0.000 A 
ATOM      2  C   UNL     1      -0.708  14.519  19.606  0.00  0.00    +0.000 A 
ATOM      3  C   UNL     1      -1.517  13.409  19.403  0.00  0.00    +0.000 A 
ATOM      4  C   UNL     1      -0.968  12.127  19.467  0.00  0.00    +0.000 A 
ATOM      5  C   UNL     1       0.390  11.909  19.774  0.00  0.00    +0.000 A 
ATOM      6  C   UNL     1       1.177  13.047  20.014  0.00  0.00    +0.000 A 
ENDROOT
BRANCH   5   7
ATOM      7  C   UNL     1       0.955  10.536  19.782  0.00  0.00    +0.000 A 
ATOM      8  C   UNL     1       1.432   9.898  18.617  0.00  0.00    +0.000 A 
ATOM      9  C   UNL     1       1.879   8.561  18.632  0.00  0.00    +0.000 A 
ATOM     10  C   UNL     1       1.857   7.828  19.821  0.00  0.00    +0.000 A 
ATOM     11  C   UNL     1       1.424   8.469  20.986  0.00  0.00    +0.000 A 
ATOM     12  C   UNL     1       0.992   9.794  20.972  0.00  0.00    +0.000 A 
BRANCH  10  13
ATOM     13  C   UNL     1       2.334   6.454  19.955  0.00  0.00    +0.000 A 
ATOM     14  N   UNL     1       3.251   5.928  19.158  0.00  0.00    +0.000 NA
ATOM     15  C   UNL     1       3.398   4.634  19.545  0.00  0.00    +0.000 A 
ATOM     16  C   UNL     1       4.201   3.637  18.980  0.00  0.00    +0.000 A 
ATOM     17  C   UNL     1       4.138   2.349  19.517  0.00  0.00    +0.000 A 
ATOM     18  C   UNL     1       3.320   2.075  20.616  0.00  0.00    +0.000 A 
ATOM     19  C   UNL     1       2.538   3.075  21.220  0.00  0.00    +0.000 A 
ATOM     20  C   UNL     1       2.593   4.346  20.641  0.00  0.00    +0.000 A 
ATOM     21  N   UNL     1       1.961   5.540  20.910  0.00  0.00    +0.000 N 
ATOM     22  H   UNL     1       1.331   5.714  21.679  0.00  0.00    +0.000 HD
ENDBRANCH  10  13
ENDBRANCH   5   7
BRANCH   1  23
ATOM     23  C   UNL     1       1.562  15.555  19.991  0.00  0.00    +0.000 C 
BRANCH  23  27
ATOM     24  N   UNL     1       4.770  17.532  19.617  0.00  0.00    +0.000 NA
ATOM     25  C   UNL     1       4.227  16.603  18.597  0.00  0.00    +0.000 C 
ATOM     26  C   UNL     1       3.843  15.200  19.126  0.00  0.00    +0.000 C 
ATOM     27  N   UNL     1       2.959  15.192  20.314  0.00  0.00    +0.000 NA
ATOM     28  C   UNL     1       3.521  16.116  21.320  0.00  0.00    +0.000 C 
ATOM     29  C   UNL     1       3.847  17.525  20.772  0.00  0.00    +0.000 C 
BRANCH  24  34
ATOM     30  C   UNL     1      10.454  18.169  19.636  0.00  0.00    +0.000 C 
ATOM     31  N   UNL     1       8.998  18.156  19.521  0.00  0.00    +0.000 NA
ATOM     32  C   UNL     1       8.521  16.900  18.943  0.00  0.00    +0.000 C 
ATOM     33  C   UNL     1       7.017  16.976  18.681  0.00  0.00    +0.000 C 
ATOM     34  C   UNL     1       6.201  17.284  19.959  0.00  0.00    +0.000 C 
ATOM     35  C   UNL     1       6.848  18.491  20.680  0.00  0.00    +0.000 C 
ATOM     36  C   UNL     1       8.366  18.380  20.822  0.00  0.00    +0.000 C 
ENDBRANCH  24  34
ENDBRANCH  23  27
ENDBRANCH   1  23
TORSDOF 5
ENDMDL
MODEL 9
REMARK VINA RESULT:      -7.5      2.269      3.993
REMARK  Name = 
REMARK  6 active torsions:
REMARK  status: ('A' for Active; 'I' for Inactive)
REMARK    1  A    between atoms: C_1  and  N_2
REMARK    2  A    between atoms: C_5  and  N_6
REMARK    3  A    between atoms: N_9  and  C_10
REMARK    4  A    between atoms: C_10  and  C_11
REMARK    5  A    between atoms: C_15  and  C_16
REMARK    6  A    between atoms: C_19  and  C_20
REMARK                            x       y       z     vdW  Elec       q    Type
REMARK                         _______ _______ _______ _____ _____    ______ ____
ROOT
ATOM      1  C   UNL     1      -1.489  12.521  21.261  0.00  0.00    +0.000 A 
ATOM      2  C   UNL     1      -1.898  12.258  22.574  0.00  0.00    +0.000 A 
ATOM      3  C   UNL     1      -1.486  11.093  23.206  0.00  0.00    +0.000 A 
ATOM      4  C   UNL     1      -0.679  10.180  22.525  0.00  0.00    +0.000 A 
ATOM      5  C   UNL     1      -0.225  10.417  21.212  0.00  0.00    +0.000 A 
ATOM      6  C   UNL     1      -0.624  11.621  20.610  0.00  0.00    +0.000 A 
ENDROOT
BRANCH   5   7
ATOM      7  C   UNL     1       0.588   9.401  20.496  0.00  0.00    +0.000 A 
ATOM      8  C   UNL     1       1.029   8.207  21.104  0.00  0.00    +0.000 A 
ATOM      9  C   UNL     1       1.876   7.300  20.435  0.00  0.00    +0.000 A 
ATOM     10  C   UNL     1       2.303   7.572  19.133  0.00  0.00    +0.000 A 
ATOM     11  C   UNL     1       1.835   8.734  18.511  0.00  0.00    +0.000 A 
ATOM     12  C   UNL     1       0.990   9.625  19.171  0.00  0.00    +0.000 A 
BRANCH  10  13
ATOM     13  C   UNL     1       3.145   6.684  18.336  0.00  0.00    +0.000 A 
ATOM     14  N   UNL     1       4.026   7.126  17.452  0.00  0.00    +0.000 NA
ATOM     15  C   UNL     1       4.575   6.026  16.874  0.00  0.00    +0.000 A 
ATOM     16  C   UNL     1       5.511   5.957  15.836  0.00  0.00    +0.000 A 
ATOM     17  C   UNL     1       5.884   4.699  15.359  0.00  0.00    +0.000 A 
ATOM     18  C   UNL     1       5.360   3.537  15.933  0.00  0.00    +0.000 A 
ATOM     19  C   UNL     1       4.450   3.589  17.003  0.00  0.00    +0.000 A 
ATOM     20  C   UNL     1       4.068   4.861  17.436  0.00  0.00    +0.000 A 
ATOM     21  N   UNL     1       3.193   5.312  18.400  0.00  0.00    +0.000 N 
ATOM     22  H   UNL     1       2.674   4.734  19.044  0.00  0.00    +0.000 HD
ENDBRANCH  10  13
ENDBRANCH   5   7
BRANCH   1  23
ATOM     23  C   UNL     1      -2.034  13.729  20.526  0.00  0.00    +0.000 C 
BRANCH  23  27
ATOM     24  N   UNL     1       1.639  14.163  19.718  0.00  0.00    +0.000 NA
ATOM     25  C   UNL     1       1.106  13.791  21.051  0.00  0.00    +0.000 C 
ATOM     26  C   UNL     1      -0.029  14.700  21.580  0.00  0.00    +0.000 C 
ATOM     27  N   UNL     1      -1.157  14.913  20.645  0.00  0.00    +0.000 NA
ATOM     28  C   UNL     1      -0.606  15.290  19.327  0.00  0.00    +0.000 C 
ATOM     29  C   UNL     1       0.491  14.333  18.803  0.00  0.00    +0.000 C 
BRANCH  24  34
ATOM     30  C   UNL     1       6.468  17.131  18.947  0.00  0.00    +0.000 C 
ATOM     31  N   UNL     1       5.320  16.234  19.056  0.00  0.00    +0.000 NA
ATOM     32  C   UNL     1       4.954  16.006  20.454  0.00  0.00    +0.000 C 
ATOM     33  C   UNL     1       3.862  14.940  20.548  0.00  0.00    +0.000 C 
ATOM     34  C   UNL     1       2.592  15.312  19.747  0.00  0.00    +0.000 C 
ATOM     35  C   UNL     1       3.013  15.758  18.327  0.00  0.00    +0.000 C 
ATOM     36  C   UNL     1       4.171  16.756  18.317  0.00  0.00    +0.000 C 
ENDBRANCH  24  34
ENDBRANCH  23  27
ENDBRANCH   1  23
TORSDOF 5
ENDMDL
