MODEL 1
REMARK VINA RESULT:      -5.0      0.000      0.000
REMARK  Name = 
REMARK  8 active torsions:
REMARK  status: ('A' for Active; 'I' for Inactive)
REMARK    1  A    between atoms: C_1  and  C_2
REMARK    2  A    between atoms: C_2  and  C_3
REMARK    3  A    between atoms: C_3  and  C_4
REMARK    4  A    between atoms: C_4  and  C_5
REMARK    5  A    between atoms: C_5  and  C_6
REMARK    6  A    between atoms: C_6  and  C_7
REMARK    7  A    between atoms: C_7  and  C_8
REMARK    8  A    between atoms: C_8  and  S_9
REMARK                            x       y       z     vdW  Elec       q    Type
REMARK                         _______ _______ _______ _____ _____    ______ ____
ROOT
ATOM      1  C   UNL     1       4.934   3.785  18.865  0.00  0.00    +0.000 C 
ENDROOT
BRANCH   1   2
ATOM      2  C   UNL     1       3.841   2.857  18.315  0.00  0.00    +0.000 C 
BRANCH   2   3
ATOM      3  C   UNL     1       2.846   3.536  17.367  0.00  0.00    +0.000 C 
BRANCH   3   4
ATOM      4  C   UNL     1       1.503   3.832  18.035  0.00  0.00    +0.000 C 
BRANCH   4   5
ATOM      5  C   UNL     1       1.055   2.673  18.927  0.00  0.00    +0.000 C 
BRANCH   5   7
ATOM      6  C   UNL     1       1.326   4.583  20.539  0.00  0.00    +0.000 C 
ATOM      7  C   UNL     1       0.893   3.137  20.373  0.00  0.00    +0.000 C 
ENDBRANCH   5   7
ENDBRANCH   4   5
ENDBRANCH   3   4
ENDBRANCH   2   3
ENDBRANCH   1   2
BRANCH   1   8
ATOM      8  C   UNL     1       4.685   5.251  18.521  0.00  0.00    +0.000 C 
BRANCH   8   9
ATOM      9  S   UNL     1       6.215   6.046  17.913  0.00  0.00    +0.000 S 
ATOM     10  C   UNL     1       5.545   6.561  16.296  0.00  0.00    +0.000 C 
ATOM     11  C   UNL     1       5.453   5.329  15.418  0.00  0.00    +0.000 C 
ATOM     12  C   UNL     1       6.695   4.506  15.704  0.00  0.00    +0.000 C 
ATOM     13  C   UNL     1       6.976   4.544  17.200  0.00  0.00    +0.000 C 
ENDBRANCH   8   9
ENDBRANCH   1   8
TORSDOF 7
ENDMDL
MODEL 2
REMARK VINA RESULT:      -4.9      1.265      2.115
REMARK  Name = 
REMARK  8 active torsions:
REMARK  status: ('A' for Active; 'I' for Inactive)
REMARK    1  A    between atoms: C_1  and  C_2
REMARK    2  A    between atoms: C_2  and  C_3
REMARK    3  A    between atoms: C_3  and  C_4
REMARK    4  A    between atoms: C_4  and  C_5
REMARK    5  A    between atoms: C_5  and  C_6
REMARK    6  A    between atoms: C_6  and  C_7
REMARK    7  A    between atoms: C_7  and  C_8
REMARK    8  A    between atoms: C_8  and  S_9
REMARK                            x       y       z     vdW  Elec       q    Type
REMARK                         _______ _______ _______ _____ _____    ______ ____
ROOT
ATOM      1  C   UNL     1       4.055   2.944  17.779  0.00  0.00    +0.000 C 
ENDROOT
BRANCH   1   2
ATOM      2  C   UNL     1       2.620   3.351  17.417  0.00  0.00    +0.000 C 
BRANCH   2   3
ATOM      3  C   UNL     1       2.196   4.728  17.944  0.00  0.00    +0.000 C 
BRANCH   3   4
ATOM      4  C   UNL     1       1.559   4.657  19.331  0.00  0.00    +0.000 C 
BRANCH   4   5
ATOM      5  C   UNL     1       0.879   3.307  19.567  0.00  0.00    +0.000 C 
BRANCH   5   7
ATOM      6  C   UNL     1       2.282   3.587  21.633  0.00  0.00    +0.000 C 
ATOM      7  C   UNL     1       1.160   2.801  20.980  0.00  0.00    +0.000 C 
ENDBRANCH   5   7
ENDBRANCH   4   5
ENDBRANCH   3   4
ENDBRANCH   2   3
ENDBRANCH   1   2
BRANCH   1   8
ATOM      8  C   UNL     1       4.937   4.142  18.118  0.00  0.00    +0.000 C 
BRANCH   8   9
ATOM      9  S   UNL     1       6.018   4.574  16.708  0.00  0.00    +0.000 S 
ATOM     10  C   UNL     1       7.583   4.571  17.645  0.00  0.00    +0.000 C 
ATOM     11  C   UNL     1       7.626   5.835  18.481  0.00  0.00    +0.000 C 
ATOM     12  C   UNL     1       7.048   6.940  17.617  0.00  0.00    +0.000 C 
ATOM     13  C   UNL     1       5.852   6.390  16.851  0.00  0.00    +0.000 C 
ENDBRANCH   8   9
ENDBRANCH   1   8
TORSDOF 7
ENDMDL
MODEL 3
REMARK VINA RESULT:      -4.9      2.340      5.856
REMARK  Name = 
REMARK  8 active torsions:
REMARK  status: ('A' for Active; 'I' for Inactive)
REMARK    1  A    between atoms: C_1  and  C_2
REMARK    2  A    between atoms: C_2  and  C_3
REMARK    3  A    between atoms: C_3  and  C_4
REMARK    4  A    between atoms: C_4  and  C_5
REMARK    5  A    between atoms: C_5  and  C_6
REMARK    6  A    between atoms: C_6  and  C_7
REMARK    7  A    between atoms: C_7  and  C_8
REMARK    8  A    between atoms: C_8  and  S_9
REMARK                            x       y       z     vdW  Elec       q    Type
REMARK                         _______ _______ _______ _____ _____    ______ ____
ROOT
ATOM      1  C   UNL     1       5.214   6.092  15.842  0.00  0.00    +0.000 C 
ENDROOT
BRANCH   1   2
ATOM      2  C   UNL     1       6.509   5.294  16.050  0.00  0.00    +0.000 C 
BRANCH   2   3
ATOM      3  C   UNL     1       7.005   4.546  14.806  0.00  0.00    +0.000 C 
BRANCH   3   4
ATOM      4  C   UNL     1       5.862   4.094  13.898  0.00  0.00    +0.000 C 
BRANCH   4   5
ATOM      5  C   UNL     1       6.371   3.702  12.509  0.00  0.00    +0.000 C 
BRANCH   5   7
ATOM      6  C   UNL     1       4.183   3.249  11.360  0.00  0.00    +0.000 C 
ATOM      7  C   UNL     1       5.470   2.640  11.884  0.00  0.00    +0.000 C 
ENDBRANCH   5   7
ENDBRANCH   4   5
ENDBRANCH   3   4
ENDBRANCH   2   3
ENDBRANCH   1   2
BRANCH   1   8
ATOM      8  C   UNL     1       4.401   6.235  17.125  0.00  0.00    +0.000 C 
BRANCH   8   9
ATOM      9  S   UNL     1       4.536   4.729  18.153  0.00  0.00    +0.000 S 
ATOM     10  C   UNL     1       3.186   3.809  17.341  0.00  0.00    +0.000 C 
ATOM     11  C   UNL     1       1.873   4.402  17.813  0.00  0.00    +0.000 C 
ATOM     12  C   UNL     1       2.047   4.712  19.287  0.00  0.00    +0.000 C 
ATOM     13  C   UNL     1       3.440   5.286  19.507  0.00  0.00    +0.000 C 
ENDBRANCH   8   9
ENDBRANCH   1   8
TORSDOF 7
ENDMDL
MODEL 4
REMARK VINA RESULT:      -4.9      1.480      2.843
REMARK  Name = 
REMARK  8 active torsions:
REMARK  status: ('A' for Active; 'I' for Inactive)
REMARK    1  A    between atoms: C_1  and  C_2
REMARK    2  A    between atoms: C_2  and  C_3
REMARK    3  A    between atoms: C_3  and  C_4
REMARK    4  A    between atoms: C_4  and  C_5
REMARK    5  A    between atoms: C_5  and  C_6
REMARK    6  A    between atoms: C_6  and  C_7
REMARK    7  A    between atoms: C_7  and  C_8
REMARK    8  A    between atoms: C_8  and  S_9
REMARK                            x       y       z     vdW  Elec       q    Type
REMARK                         _______ _______ _______ _____ _____    ______ ____
ROOT
ATOM      1  C   UNL     1       3.669   6.259  18.214  0.00  0.00    +0.000 C 
ENDROOT
BRANCH   1   2
ATOM      2  C   UNL     1       2.684   6.306  19.391  0.00  0.00    +0.000 C 
BRANCH   2   3
ATOM      3  C   UNL     1       2.705   5.064  20.290  0.00  0.00    +0.000 C 
BRANCH   3   4
ATOM      4  C   UNL     1       1.306   4.513  20.567  0.00  0.00    +0.000 C 
BRANCH   4   5
ATOM      5  C   UNL     1       1.110   3.137  19.928  0.00  0.00    +0.000 C 
BRANCH   5   7
ATOM      6  C   UNL     1       2.328   2.315  17.889  0.00  0.00    +0.000 C 
ATOM      7  C   UNL     1       1.230   3.226  18.408  0.00  0.00    +0.000 C 
ENDBRANCH   5   7
ENDBRANCH   4   5
ENDBRANCH   3   4
ENDBRANCH   2   3
ENDBRANCH   1   2
BRANCH   1   8
ATOM      8  C   UNL     1       4.687   5.129  18.347  0.00  0.00    +0.000 C 
BRANCH   8   9
ATOM      9  S   UNL     1       5.875   5.158  16.958  0.00  0.00    +0.000 S 
ATOM     10  C   UNL     1       7.349   4.728  17.944  0.00  0.00    +0.000 C 
ATOM     11  C   UNL     1       7.752   5.957  18.735  0.00  0.00    +0.000 C 
ATOM     12  C   UNL     1       7.549   7.145  17.815  0.00  0.00    +0.000 C 
ATOM     13  C   UNL     1       6.259   6.944  17.031  0.00  0.00    +0.000 C 
ENDBRANCH   8   9
ENDBRANCH   1   8
TORSDOF 7
ENDMDL
MODEL 5
REMARK VINA RESULT:      -4.8      2.032      5.585
REMARK  Name = 
REMARK  8 active torsions:
REMARK  status: ('A' for Active; 'I' for Inactive)
REMARK    1  A    between atoms: C_1  and  C_2
REMARK    2  A    between atoms: C_2  and  C_3
REMARK    3  A    between atoms: C_3  and  C_4
REMARK    4  A    between atoms: C_4  and  C_5
REMARK    5  A    between atoms: C_5  and  C_6
REMARK    6  A    between atoms: C_6  and  C_7
REMARK    7  A    between atoms: C_7  and  C_8
REMARK    8  A    between atoms: C_8  and  S_9
REMARK                            x       y       z     vdW  Elec       q    Type
REMARK                         _______ _______ _______ _____ _____    ______ ____
ROOT
ATOM      1  C   UNL     1       3.928   4.343  17.781  0.00  0.00    +0.000 C 
ENDROOT
BRANCH   1   2
ATOM      2  C   UNL     1       4.803   3.875  16.610  0.00  0.00    +0.000 C 
BRANCH   2   3
ATOM      3  C   UNL     1       5.573   4.996  15.901  0.00  0.00    +0.000 C 
BRANCH   3   4
ATOM      4  C   UNL     1       5.083   6.389  16.298  0.00  0.00    +0.000 C 
BRANCH   4   5
ATOM      5  C   UNL     1       6.105   7.112  17.177  0.00  0.00    +0.000 C 
BRANCH   5   7
ATOM      6  C   UNL     1       7.699   6.056  18.810  0.00  0.00    +0.000 C 
ATOM      7  C   UNL     1       7.367   6.267  17.343  0.00  0.00    +0.000 C 
ENDBRANCH   5   7
ENDBRANCH   4   5
ENDBRANCH   3   4
ENDBRANCH   2   3
ENDBRANCH   1   2
BRANCH   1   8
ATOM      8  C   UNL     1       2.488   3.849  17.672  0.00  0.00    +0.000 C 
BRANCH   8   9
ATOM      9  S   UNL     1       2.273   2.269  18.564  0.00  0.00    +0.000 S 
ATOM     10  C   UNL     1       0.715   2.720  19.401  0.00  0.00    +0.000 C 
ATOM     11  C   UNL     1       1.054   3.679  20.525  0.00  0.00    +0.000 C 
ATOM     12  C   UNL     1       2.343   3.176  21.144  0.00  0.00    +0.000 C 
ATOM     13  C   UNL     1       3.272   2.706  20.033  0.00  0.00    +0.000 C 
ENDBRANCH   8   9
ENDBRANCH   1   8
TORSDOF 7
ENDMDL
MODEL 6
REMARK VINA RESULT:      -4.8      1.050      2.077
REMARK  Name = 
REMARK  8 active torsions:
REMARK  status: ('A' for Active; 'I' for Inactive)
REMARK    1  A    between atoms: C_1  and  C_2
REMARK    2  A    between atoms: C_2  and  C_3
REMARK    3  A    between atoms: C_3  and  C_4
REMARK    4  A    between atoms: C_4  and  C_5
REMARK    5  A    between atoms: C_5  and  C_6
REMARK    6  A    between atoms: C_6  and  C_7
REMARK    7  A    between atoms: C_7  and  C_8
REMARK    8  A    between atoms: C_8  and  S_9
REMARK                            x       y       z     vdW  Elec       q    Type
REMARK                         _______ _______ _______ _____ _____    ______ ____
ROOT
ATOM      1  C   UNL     1       4.205   5.072  19.505  0.00  0.00    +0.000 C 
ENDROOT
BRANCH   1   2
ATOM      2  C   UNL     1       2.970   5.983  19.458  0.00  0.00    +0.000 C 
BRANCH   2   3
ATOM      3  C   UNL     1       1.904   5.666  20.514  0.00  0.00    +0.000 C 
BRANCH   3   4
ATOM      4  C   UNL     1       2.142   4.325  21.208  0.00  0.00    +0.000 C 
BRANCH   4   5
ATOM      5  C   UNL     1       1.117   3.278  20.770  0.00  0.00    +0.000 C 
BRANCH   5   7
ATOM      6  C   UNL     1       1.457   2.644  18.361  0.00  0.00    +0.000 C 
ATOM      7  C   UNL     1       1.747   2.275  19.805  0.00  0.00    +0.000 C 
ENDBRANCH   5   7
ENDBRANCH   4   5
ENDBRANCH   3   4
ENDBRANCH   2   3
ENDBRANCH   1   2
BRANCH   1   8
ATOM      8  C   UNL     1       4.719   4.709  18.115  0.00  0.00    +0.000 C 
BRANCH   8   9
ATOM      9  S   UNL     1       6.015   5.879  17.574  0.00  0.00    +0.000 S 
ATOM     10  C   UNL     1       5.292   6.237  15.937  0.00  0.00    +0.000 C 
ATOM     11  C   UNL     1       5.549   5.039  15.045  0.00  0.00    +0.000 C 
ATOM     12  C   UNL     1       6.949   4.555  15.369  0.00  0.00    +0.000 C 
ATOM     13  C   UNL     1       7.159   4.635  16.876  0.00  0.00    +0.000 C 
ENDBRANCH   8   9
ENDBRANCH   1   8
TORSDOF 7
ENDMDL
MODEL 7
REMARK VINA RESULT:      -4.8      1.732      2.687
REMARK  Name = 
REMARK  8 active torsions:
REMARK  status: ('A' for Active; 'I' for Inactive)
REMARK    1  A    between atoms: C_1  and  C_2
REMARK    2  A    between atoms: C_2  and  C_3
REMARK    3  A    between atoms: C_3  and  C_4
REMARK    4  A    between atoms: C_4  and  C_5
REMARK    5  A    between atoms: C_5  and  C_6
REMARK    6  A    between atoms: C_6  and  C_7
REMARK    7  A    between atoms: C_7  and  C_8
REMARK    8  A    between atoms: C_8  and  S_9
REMARK                            x       y       z     vdW  Elec       q    Type
REMARK                         _______ _______ _______ _____ _____    ______ ____
ROOT
ATOM      1  C   UNL     1       4.246   6.732  17.430  0.00  0.00    +0.000 C 
ENDROOT
BRANCH   1   2
ATOM      2  C   UNL     1       2.870   6.596  18.097  0.00  0.00    +0.000 C 
BRANCH   2   3
ATOM      3  C   UNL     1       2.703   5.343  18.966  0.00  0.00    +0.000 C 
BRANCH   3   4
ATOM      4  C   UNL     1       1.697   4.352  18.381  0.00  0.00    +0.000 C 
BRANCH   4   5
ATOM      5  C   UNL     1       0.927   3.620  19.482  0.00  0.00    +0.000 C 
BRANCH   5   7
ATOM      6  C   UNL     1       1.654   2.645  21.682  0.00  0.00    +0.000 C 
ATOM      7  C   UNL     1       1.821   2.593  20.174  0.00  0.00    +0.000 C 
ENDBRANCH   5   7
ENDBRANCH   4   5
ENDBRANCH   3   4
ENDBRANCH   2   3
ENDBRANCH   1   2
BRANCH   1   8
ATOM      8  C   UNL     1       4.988   5.401  17.341  0.00  0.00    +0.000 C 
BRANCH   8   9
ATOM      9  S   UNL     1       6.598   5.609  16.500  0.00  0.00    +0.000 S 
ATOM     10  C   UNL     1       7.591   4.717  17.744  0.00  0.00    +0.000 C 
ATOM     11  C   UNL     1       7.741   5.620  18.952  0.00  0.00    +0.000 C 
ATOM     12  C   UNL     1       7.945   7.023  18.415  0.00  0.00    +0.000 C 
ATOM     13  C   UNL     1       7.018   7.234  17.226  0.00  0.00    +0.000 C 
ENDBRANCH   8   9
ENDBRANCH   1   8
TORSDOF 7
ENDMDL
MODEL 8
REMARK VINA RESULT:      -4.7      1.389      2.323
REMARK  Name = 
REMARK  8 active torsions:
REMARK  status: ('A' for Active; 'I' for Inactive)
REMARK    1  A    between atoms: C_1  and  C_2
REMARK    2  A    between atoms: C_2  and  C_3
REMARK    3  A    between atoms: C_3  and  C_4
REMARK    4  A    between atoms: C_4  and  C_5
REMARK    5  A    between atoms: C_5  and  C_6
REMARK    6  A    between atoms: C_6  and  C_7
REMARK    7  A    between atoms: C_7  and  C_8
REMARK    8  A    between atoms: C_8  and  S_9
REMARK                            x       y       z     vdW  Elec       q    Type
REMARK                         _______ _______ _______ _____ _____    ______ ____
ROOT
ATOM      1  C   UNL     1       3.334   4.442  17.621  0.00  0.00    +0.000 C 
ENDROOT
BRANCH   1   2
ATOM      2  C   UNL     1       3.240   2.911  17.689  0.00  0.00    +0.000 C 
BRANCH   2   3
ATOM      3  C   UNL     1       2.367   2.376  18.831  0.00  0.00    +0.000 C 
BRANCH   3   4
ATOM      4  C   UNL     1       3.006   2.578  20.205  0.00  0.00    +0.000 C 
BRANCH   4   5
ATOM      5  C   UNL     1       2.009   3.167  21.205  0.00  0.00    +0.000 C 
BRANCH   5   7
ATOM      6  C   UNL     1       1.647   5.590  20.641  0.00  0.00    +0.000 C 
ATOM      7  C   UNL     1       1.095   4.181  20.521  0.00  0.00    +0.000 C 
ENDBRANCH   5   7
ENDBRANCH   4   5
ENDBRANCH   3   4
ENDBRANCH   2   3
ENDBRANCH   1   2
BRANCH   1   8
ATOM      8  C   UNL     1       4.677   4.970  18.115  0.00  0.00    +0.000 C 
BRANCH   8   9
ATOM      9  S   UNL     1       5.890   5.043  16.749  0.00  0.00    +0.000 S 
ATOM     10  C   UNL     1       7.367   4.727  17.773  0.00  0.00    +0.000 C 
ATOM     11  C   UNL     1       7.676   5.994  18.544  0.00  0.00    +0.000 C 
ATOM     12  C   UNL     1       7.419   7.148  17.594  0.00  0.00    +0.000 C 
ATOM     13  C   UNL     1       6.161   6.852  16.790  0.00  0.00    +0.000 C 
ENDBRANCH   8   9
ENDBRANCH   1   8
TORSDOF 7
ENDMDL
MODEL 9
REMARK VINA RESULT:      -4.7      2.020      5.450
REMARK  Name = 
REMARK  8 active torsions:
REMARK  status: ('A' for Active; 'I' for Inactive)
REMARK    1  A    between atoms: C_1  and  C_2
REMARK    2  A    between atoms: C_2  and  C_3
REMARK    3  A    between atoms: C_3  and  C_4
REMARK    4  A    between atoms: C_4  and  C_5
REMARK    5  A    between atoms: C_5  and  C_6
REMARK    6  A    between atoms: C_6  and  C_7
REMARK    7  A    between atoms: C_7  and  C_8
REMARK    8  A    between atoms: C_8  and  S_9
REMARK                            x       y       z     vdW  Elec       q    Type
REMARK                         _______ _______ _______ _____ _____    ______ ____
ROOT
ATOM      1  C   UNL     1       3.987   5.742  19.304  0.00  0.00    +0.000 C 
ENDROOT
BRANCH   1   2
ATOM      2  C   UNL     1       3.950   6.353  17.895  0.00  0.00    +0.000 C 
BRANCH   2   3
ATOM      3  C   UNL     1       4.670   5.525  16.823  0.00  0.00    +0.000 C 
BRANCH   3   4
ATOM      4  C   UNL     1       6.077   5.106  17.248  0.00  0.00    +0.000 C 
BRANCH   4   5
ATOM      5  C   UNL     1       7.110   6.178  16.896  0.00  0.00    +0.000 C 
BRANCH   5   7
ATOM      6  C   UNL     1       7.797   5.768  19.279  0.00  0.00    +0.000 C 
ATOM      7  C   UNL     1       7.703   6.792  18.162  0.00  0.00    +0.000 C 
ENDBRANCH   5   7
ENDBRANCH   4   5
ENDBRANCH   3   4
ENDBRANCH   2   3
ENDBRANCH   1   2
BRANCH   1   8
ATOM      8  C   UNL     1       2.601   5.351  19.809  0.00  0.00    +0.000 C 
BRANCH   8   9
ATOM      9  S   UNL     1       2.613   3.657  20.495  0.00  0.00    +0.000 S 
ATOM     10  C   UNL     1       3.283   2.842  19.006  0.00  0.00    +0.000 C 
ATOM     11  C   UNL     1       2.171   2.765  17.979  0.00  0.00    +0.000 C 
ATOM     12  C   UNL     1       0.904   2.432  18.744  0.00  0.00    +0.000 C 
ATOM     13  C   UNL     1       0.894   3.224  20.045  0.00  0.00    +0.000 C 
ENDBRANCH   8   9
ENDBRANCH   1   8
TORSDOF 7
ENDMDL
