MODEL 1
REMARK VINA RESULT:      -7.7      0.000      0.000
REMARK  Name = 
REMARK  4 active torsions:
REMARK  status: ('A' for Active; 'I' for Inactive)
REMARK    1  A    between atoms: C_2  and  C_3
REMARK    2  A    between atoms: C_4  and  N_5
REMARK    3  A    between atoms: C_6  and  C_8
REMARK    4  A    between atoms: C_10  and  C_11
REMARK                            x       y       z     vdW  Elec       q    Type
REMARK                         _______ _______ _______ _____ _____    ______ ____
ROOT
ATOM      1  N   UNL     1       4.335   4.467  16.658  0.00  0.00    +0.000 N 
ATOM      2  C   UNL     1       5.701   4.672  16.756  0.00  0.00    +0.000 C 
ATOM      3  O   UNL     1       6.334   4.731  17.804  0.00  0.00    +0.000 OA
ATOM      4  H   UNL     1       4.016   4.094  15.769  0.00  0.00    +0.000 HD
ENDROOT
BRANCH   1   6
ATOM      5  C   UNL     1       2.836   5.092  18.618  0.00  0.00    +0.000 A 
ATOM      6  C   UNL     1       3.541   4.261  17.761  0.00  0.00    +0.000 A 
ATOM      7  S   UNL     1       3.357   2.592  18.134  0.00  0.00    +0.000 S 
ATOM      8  C   UNL     1       2.461   2.978  19.489  0.00  0.00    +0.000 A 
ATOM      9  C   UNL     1       2.192   4.315  19.614  0.00  0.00    +0.000 A 
ATOM     10  C   UNL     1       1.268   4.560  20.752  0.00  0.00    +0.000 C 
ATOM     11  C   UNL     1       1.359   3.220  21.542  0.00  0.00    +0.000 C 
ATOM     12  C   UNL     1       1.846   2.131  20.538  0.00  0.00    +0.000 C 
BRANCH   5  14
ATOM     13  N   UNL     1       2.545   7.660  18.413  0.00  0.00    +0.000 NA
ATOM     14  C   UNL     1       2.672   6.506  18.462  0.00  0.00    +0.000 C 
ENDBRANCH   5  14
ENDBRANCH   1   6
BRANCH   2  15
ATOM     15  C   UNL     1       6.357   4.716  15.443  0.00  0.00    +0.000 A 
ATOM     16  C   UNL     1       5.989   4.039  14.251  0.00  0.00    +0.000 A 
ATOM     17  C   UNL     1       6.932   4.420  13.329  0.00  0.00    +0.000 A 
ATOM     18  O   UNL     1       7.808   5.277  13.917  0.00  0.00    +0.000 OA
ATOM     19  N   UNL     1       7.442   5.486  15.234  0.00  0.00    +0.000 NA
BRANCH  17  20
ATOM     20  C   UNL     1       7.002   3.973  11.881  0.00  0.00    +0.000 C 
ATOM     21  C   UNL     1       7.194   2.496  11.605  0.00  0.00    +0.000 C 
ATOM     22  C   UNL     1       5.870   3.123  11.340  0.00  0.00    +0.000 C 
ENDBRANCH  17  20
ENDBRANCH   2  15
TORSDOF 4
ENDMDL
MODEL 2
REMARK VINA RESULT:      -7.4      1.627      1.711
REMARK  Name = 
REMARK  4 active torsions:
REMARK  status: ('A' for Active; 'I' for Inactive)
REMARK    1  A    between atoms: C_2  and  C_3
REMARK    2  A    between atoms: C_4  and  N_5
REMARK    3  A    between atoms: C_6  and  C_8
REMARK    4  A    between atoms: C_10  and  C_11
REMARK                            x       y       z     vdW  Elec       q    Type
REMARK                         _______ _______ _______ _____ _____    ______ ____
ROOT
ATOM      1  N   UNL     1       4.479   3.826  16.448  0.00  0.00    +0.000 N 
ATOM      2  C   UNL     1       5.011   4.977  15.893  0.00  0.00    +0.000 C 
ATOM      3  O   UNL     1       4.927   6.100  16.376  0.00  0.00    +0.000 OA
ATOM      4  H   UNL     1       4.914   2.959  16.148  0.00  0.00    +0.000 HD
ENDROOT
BRANCH   1   6
ATOM      5  C   UNL     1       4.182   4.136  18.957  0.00  0.00    +0.000 A 
ATOM      6  C   UNL     1       3.820   3.827  17.655  0.00  0.00    +0.000 A 
ATOM      7  S   UNL     1       2.168   3.376  17.500  0.00  0.00    +0.000 S 
ATOM      8  C   UNL     1       1.972   3.467  19.157  0.00  0.00    +0.000 A 
ATOM      9  C   UNL     1       3.074   3.937  19.820  0.00  0.00    +0.000 A 
ATOM     10  C   UNL     1       2.775   4.133  21.262  0.00  0.00    +0.000 C 
ATOM     11  C   UNL     1       1.460   3.315  21.437  0.00  0.00    +0.000 C 
ATOM     12  C   UNL     1       0.805   3.200  20.027  0.00  0.00    +0.000 C 
BRANCH   5  14
ATOM     13  N   UNL     1       6.457   5.181  19.628  0.00  0.00    +0.000 NA
ATOM     14  C   UNL     1       5.438   4.691  19.365  0.00  0.00    +0.000 C 
ENDBRANCH   5  14
ENDBRANCH   1   6
BRANCH   2  15
ATOM     15  C   UNL     1       5.796   4.705  14.681  0.00  0.00    +0.000 A 
ATOM     16  C   UNL     1       5.477   3.842  13.600  0.00  0.00    +0.000 A 
ATOM     17  C   UNL     1       6.544   3.951  12.743  0.00  0.00    +0.000 A 
ATOM     18  O   UNL     1       7.444   4.826  13.262  0.00  0.00    +0.000 OA
ATOM     19  N   UNL     1       6.974   5.320  14.464  0.00  0.00    +0.000 NA
BRANCH  17  20
ATOM     20  C   UNL     1       6.709   3.224  11.421  0.00  0.00    +0.000 C 
ATOM     21  C   UNL     1       7.478   1.919  11.423  0.00  0.00    +0.000 C 
ATOM     22  C   UNL     1       6.000   1.897  11.242  0.00  0.00    +0.000 C 
ENDBRANCH  17  20
ENDBRANCH   2  15
TORSDOF 4
ENDMDL
MODEL 3
REMARK VINA RESULT:      -7.3      2.450      3.377
REMARK  Name = 
REMARK  4 active torsions:
REMARK  status: ('A' for Active; 'I' for Inactive)
REMARK    1  A    between atoms: C_2  and  C_3
REMARK    2  A    between atoms: C_4  and  N_5
REMARK    3  A    between atoms: C_6  and  C_8
REMARK    4  A    between atoms: C_10  and  C_11
REMARK                            x       y       z     vdW  Elec       q    Type
REMARK                         _______ _______ _______ _____ _____    ______ ____
ROOT
ATOM      1  N   UNL     1       3.961   6.436  17.096  0.00  0.00    +0.000 N 
ATOM      2  C   UNL     1       5.342   6.530  17.113  0.00  0.00    +0.000 C 
ATOM      3  O   UNL     1       6.002   7.107  17.969  0.00  0.00    +0.000 OA
ATOM      4  H   UNL     1       3.586   5.660  16.559  0.00  0.00    +0.000 HD
ENDROOT
BRANCH   1   6
ATOM      5  C   UNL     1       2.706   6.492  19.310  0.00  0.00    +0.000 A 
ATOM      6  C   UNL     1       3.176   6.963  18.094  0.00  0.00    +0.000 A 
ATOM      7  S   UNL     1       2.702   8.584  17.768  0.00  0.00    +0.000 S 
ATOM      8  C   UNL     1       1.782   8.611  19.162  0.00  0.00    +0.000 A 
ATOM      9  C   UNL     1       1.906   7.485  19.930  0.00  0.00    +0.000 A 
ATOM     10  C   UNL     1       1.182   7.646  21.218  0.00  0.00    +0.000 C 
ATOM     11  C   UNL     1       0.263   8.869  20.926  0.00  0.00    +0.000 C 
ATOM     12  C   UNL     1       0.915   9.658  19.749  0.00  0.00    +0.000 C 
BRANCH   5  14
ATOM     13  N   UNL     1       3.354   4.202  20.339  0.00  0.00    +0.000 NA
ATOM     14  C   UNL     1       3.066   5.245  19.917  0.00  0.00    +0.000 C 
ENDBRANCH   5  14
ENDBRANCH   1   6
BRANCH   2  15
ATOM     15  C   UNL     1       5.970   5.764  16.027  0.00  0.00    +0.000 A 
ATOM     16  C   UNL     1       5.380   4.785  15.185  0.00  0.00    +0.000 A 
ATOM     17  C   UNL     1       6.397   4.383  14.355  0.00  0.00    +0.000 A 
ATOM     18  O   UNL     1       7.524   5.077  14.665  0.00  0.00    +0.000 OA
ATOM     19  N   UNL     1       7.260   5.960  15.695  0.00  0.00    +0.000 NA
BRANCH  17  20
ATOM     20  C   UNL     1       6.300   3.339  13.259  0.00  0.00    +0.000 C 
ATOM     21  C   UNL     1       5.276   3.557  12.164  0.00  0.00    +0.000 C 
ATOM     22  C   UNL     1       6.722   3.733  11.858  0.00  0.00    +0.000 C 
ENDBRANCH  17  20
ENDBRANCH   2  15
TORSDOF 4
ENDMDL
MODEL 4
REMARK VINA RESULT:      -7.3      1.657      2.468
REMARK  Name = 
REMARK  4 active torsions:
REMARK  status: ('A' for Active; 'I' for Inactive)
REMARK    1  A    between atoms: C_2  and  C_3
REMARK    2  A    between atoms: C_4  and  N_5
REMARK    3  A    between atoms: C_6  and  C_8
REMARK    4  A    between atoms: C_10  and  C_11
REMARK                            x       y       z     vdW  Elec       q    Type
REMARK                         _______ _______ _______ _____ _____    ______ ____
ROOT
ATOM      1  N   UNL     1       4.556   5.103  16.188  0.00  0.00    +0.000 N 
ATOM      2  C   UNL     1       5.912   4.826  16.141  0.00  0.00    +0.000 C 
ATOM      3  O   UNL     1       6.646   4.717  17.116  0.00  0.00    +0.000 OA
ATOM      4  H   UNL     1       4.027   4.817  15.370  0.00  0.00    +0.000 HD
ENDROOT
BRANCH   1   6
ATOM      5  C   UNL     1       3.345   4.358  18.300  0.00  0.00    +0.000 A 
ATOM      6  C   UNL     1       3.875   5.244  17.374  0.00  0.00    +0.000 A 
ATOM      7  S   UNL     1       3.669   6.892  17.820  0.00  0.00    +0.000 S 
ATOM      8  C   UNL     1       2.777   6.435  19.156  0.00  0.00    +0.000 A 
ATOM      9  C   UNL     1       2.722   5.080  19.349  0.00  0.00    +0.000 A 
ATOM     10  C   UNL     1       2.045   4.760  20.633  0.00  0.00    +0.000 C 
ATOM     11  C   UNL     1       1.334   6.105  20.971  0.00  0.00    +0.000 C 
ATOM     12  C   UNL     1       2.097   7.229  20.205  0.00  0.00    +0.000 C 
BRANCH   5  14
ATOM     13  N   UNL     1       3.557   1.774  18.289  0.00  0.00    +0.000 NA
ATOM     14  C   UNL     1       3.502   2.934  18.278  0.00  0.00    +0.000 C 
ENDBRANCH   5  14
ENDBRANCH   1   6
BRANCH   2  15
ATOM     15  C   UNL     1       6.385   4.570  14.774  0.00  0.00    +0.000 A 
ATOM     16  C   UNL     1       5.825   3.707  13.796  0.00  0.00    +0.000 A 
ATOM     17  C   UNL     1       6.652   3.835  12.707  0.00  0.00    +0.000 A 
ATOM     18  O   UNL     1       7.639   4.720  13.000  0.00  0.00    +0.000 OA
ATOM     19  N   UNL     1       7.467   5.203  14.283  0.00  0.00    +0.000 NA
BRANCH  17  20
ATOM     20  C   UNL     1       6.501   3.116  11.379  0.00  0.00    +0.000 C 
ATOM     21  C   UNL     1       7.398   1.924  11.115  0.00  0.00    +0.000 C 
ATOM     22  C   UNL     1       5.952   1.704  11.389  0.00  0.00    +0.000 C 
ENDBRANCH  17  20
ENDBRANCH   2  15
TORSDOF 4
ENDMDL
MODEL 5
REMARK VINA RESULT:      -6.9      4.255      5.493
REMARK  Name = 
REMARK  4 active torsions:
REMARK  status: ('A' for Active; 'I' for Inactive)
REMARK    1  A    between atoms: C_2  and  C_3
REMARK    2  A    between atoms: C_4  and  N_5
REMARK    3  A    between atoms: C_6  and  C_8
REMARK    4  A    between atoms: C_10  and  C_11
REMARK                            x       y       z     vdW  Elec       q    Type
REMARK                         _______ _______ _______ _____ _____    ______ ____
ROOT
ATOM      1  N   UNL     1       5.895   6.460  18.472  0.00  0.00    +0.000 N 
ATOM      2  C   UNL     1       6.519   7.102  17.415  0.00  0.00    +0.000 C 
ATOM      3  O   UNL     1       6.239   6.953  16.232  0.00  0.00    +0.000 OA
ATOM      4  H   UNL     1       5.975   6.926  19.370  0.00  0.00    +0.000 HD
ENDROOT
BRANCH   1   6
ATOM      5  C   UNL     1       3.466   5.757  18.177  0.00  0.00    +0.000 A 
ATOM      6  C   UNL     1       4.839   5.599  18.290  0.00  0.00    +0.000 A 
ATOM      7  S   UNL     1       5.347   3.963  18.132  0.00  0.00    +0.000 S 
ATOM      8  C   UNL     1       3.756   3.462  18.044  0.00  0.00    +0.000 A 
ATOM      9  C   UNL     1       2.852   4.489  18.013  0.00  0.00    +0.000 A 
ATOM     10  C   UNL     1       1.478   3.972  17.783  0.00  0.00    +0.000 C 
ATOM     11  C   UNL     1       1.642   2.456  18.099  0.00  0.00    +0.000 C 
ATOM     12  C   UNL     1       3.154   2.115  17.924  0.00  0.00    +0.000 C 
BRANCH   5  14
ATOM     13  N   UNL     1       2.178   7.999  17.988  0.00  0.00    +0.000 NA
ATOM     14  C   UNL     1       2.773   7.009  18.110  0.00  0.00    +0.000 C 
ENDBRANCH   5  14
ENDBRANCH   1   6
BRANCH   2  15
ATOM     15  C   UNL     1       7.515   8.084  17.865  0.00  0.00    +0.000 A 
ATOM     16  C   UNL     1       7.631   9.451  17.498  0.00  0.00    +0.000 A 
ATOM     17  C   UNL     1       8.725   9.904  18.193  0.00  0.00    +0.000 A 
ATOM     18  O   UNL     1       9.232   8.886  18.937  0.00  0.00    +0.000 OA
ATOM     19  N   UNL     1       8.467   7.750  18.756  0.00  0.00    +0.000 NA
BRANCH  17  20
ATOM     20  C   UNL     1       9.291  11.311  18.155  0.00  0.00    +0.000 C 
ATOM     21  C   UNL     1      10.378  11.663  19.149  0.00  0.00    +0.000 C 
ATOM     22  C   UNL     1      10.729  11.492  17.713  0.00  0.00    +0.000 C 
ENDBRANCH  17  20
ENDBRANCH   2  15
TORSDOF 4
ENDMDL
MODEL 6
REMARK VINA RESULT:      -6.7      2.595      3.504
REMARK  Name = 
REMARK  4 active torsions:
REMARK  status: ('A' for Active; 'I' for Inactive)
REMARK    1  A    between atoms: C_2  and  C_3
REMARK    2  A    between atoms: C_4  and  N_5
REMARK    3  A    between atoms: C_6  and  C_8
REMARK    4  A    between atoms: C_10  and  C_11
REMARK                            x       y       z     vdW  Elec       q    Type
REMARK                         _______ _______ _______ _____ _____    ______ ____
ROOT
ATOM      1  N   UNL     1       3.498   6.138  17.291  0.00  0.00    +0.000 N 
ATOM      2  C   UNL     1       4.879   6.047  17.249  0.00  0.00    +0.000 C 
ATOM      3  O   UNL     1       5.648   6.573  18.044  0.00  0.00    +0.000 OA
ATOM      4  H   UNL     1       2.999   5.393  16.815  0.00  0.00    +0.000 HD
ENDROOT
BRANCH   1   6
ATOM      5  C   UNL     1       2.386   6.484  19.554  0.00  0.00    +0.000 A 
ATOM      6  C   UNL     1       2.836   6.817  18.287  0.00  0.00    +0.000 A 
ATOM      7  S   UNL     1       2.533   8.458  17.871  0.00  0.00    +0.000 S 
ATOM      8  C   UNL     1       1.703   8.683  19.303  0.00  0.00    +0.000 A 
ATOM      9  C   UNL     1       1.741   7.602  20.142  0.00  0.00    +0.000 A 
ATOM     10  C   UNL     1       1.115   7.930  21.449  0.00  0.00    +0.000 C 
ATOM     11  C   UNL     1       0.326   9.231  21.117  0.00  0.00    +0.000 C 
ATOM     12  C   UNL     1       0.996   9.861  19.857  0.00  0.00    +0.000 C 
BRANCH   5  14
ATOM     13  N   UNL     1       2.910   4.242  20.747  0.00  0.00    +0.000 NA
ATOM     14  C   UNL     1       2.635   5.245  20.230  0.00  0.00    +0.000 C 
ENDBRANCH   5  14
ENDBRANCH   1   6
BRANCH   2  15
ATOM     15  C   UNL     1       5.349   5.148  16.186  0.00  0.00    +0.000 A 
ATOM     16  C   UNL     1       5.480   5.419  14.798  0.00  0.00    +0.000 A 
ATOM     17  C   UNL     1       5.951   4.247  14.259  0.00  0.00    +0.000 A 
ATOM     18  O   UNL     1       6.105   3.332  15.252  0.00  0.00    +0.000 OA
ATOM     19  N   UNL     1       5.753   3.894  16.464  0.00  0.00    +0.000 NA
BRANCH  17  20
ATOM     20  C   UNL     1       6.262   3.995  12.796  0.00  0.00    +0.000 C 
ATOM     21  C   UNL     1       6.285   2.559  12.315  0.00  0.00    +0.000 C 
ATOM     22  C   UNL     1       5.157   3.445  11.915  0.00  0.00    +0.000 C 
ENDBRANCH  17  20
ENDBRANCH   2  15
TORSDOF 4
ENDMDL
MODEL 7
REMARK VINA RESULT:      -6.6      4.936      9.143
REMARK  Name = 
REMARK  4 active torsions:
REMARK  status: ('A' for Active; 'I' for Inactive)
REMARK    1  A    between atoms: C_2  and  C_3
REMARK    2  A    between atoms: C_4  and  N_5
REMARK    3  A    between atoms: C_6  and  C_8
REMARK    4  A    between atoms: C_10  and  C_11
REMARK                            x       y       z     vdW  Elec       q    Type
REMARK                         _______ _______ _______ _____ _____    ______ ____
ROOT
ATOM      1  N   UNL     1       2.164   7.594  20.175  0.00  0.00    +0.000 N 
ATOM      2  C   UNL     1       1.396   8.677  19.783  0.00  0.00    +0.000 C 
ATOM      3  O   UNL     1       1.104   8.956  18.626  0.00  0.00    +0.000 OA
ATOM      4  H   UNL     1       2.029   7.291  21.134  0.00  0.00    +0.000 HD
ENDROOT
BRANCH   1   6
ATOM      5  C   UNL     1       2.486   5.312  19.095  0.00  0.00    +0.000 A 
ATOM      6  C   UNL     1       2.654   6.676  19.277  0.00  0.00    +0.000 A 
ATOM      7  S   UNL     1       3.676   7.395  18.095  0.00  0.00    +0.000 S 
ATOM      8  C   UNL     1       3.991   5.895  17.432  0.00  0.00    +0.000 A 
ATOM      9  C   UNL     1       3.265   4.877  17.993  0.00  0.00    +0.000 A 
ATOM     10  C   UNL     1       3.485   3.607  17.254  0.00  0.00    +0.000 C 
ATOM     11  C   UNL     1       4.769   3.926  16.431  0.00  0.00    +0.000 C 
ATOM     12  C   UNL     1       4.856   5.478  16.306  0.00  0.00    +0.000 C 
BRANCH   5  14
ATOM     13  N   UNL     1       0.777   3.842  20.376  0.00  0.00    +0.000 NA
ATOM     14  C   UNL     1       1.575   4.478  19.822  0.00  0.00    +0.000 C 
ENDBRANCH   5  14
ENDBRANCH   1   6
BRANCH   2  15
ATOM     15  C   UNL     1       0.863   9.430  20.926  0.00  0.00    +0.000 A 
ATOM     16  C   UNL     1       0.007  10.563  20.913  0.00  0.00    +0.000 A 
ATOM     17  C   UNL     1      -0.179  10.873  22.238  0.00  0.00    +0.000 A 
ATOM     18  O   UNL     1       0.508   9.984  23.003  0.00  0.00    +0.000 OA
ATOM     19  N   UNL     1       1.144   9.064  22.191  0.00  0.00    +0.000 NA
BRANCH  17  20
ATOM     20  C   UNL     1      -1.016  12.015  22.782  0.00  0.00    +0.000 C 
ATOM     21  C   UNL     1      -2.244  12.427  21.997  0.00  0.00    +0.000 C 
ATOM     22  C   UNL     1      -2.410  11.702  23.287  0.00  0.00    +0.000 C 
ENDBRANCH  17  20
ENDBRANCH   2  15
TORSDOF 4
ENDMDL
MODEL 8
REMARK VINA RESULT:      -6.5      3.855      8.417
REMARK  Name = 
REMARK  4 active torsions:
REMARK  status: ('A' for Active; 'I' for Inactive)
REMARK    1  A    between atoms: C_2  and  C_3
REMARK    2  A    between atoms: C_4  and  N_5
REMARK    3  A    between atoms: C_6  and  C_8
REMARK    4  A    between atoms: C_10  and  C_11
REMARK                            x       y       z     vdW  Elec       q    Type
REMARK                         _______ _______ _______ _____ _____    ______ ____
ROOT
ATOM      1  N   UNL     1       2.798   7.050  18.751  0.00  0.00    +0.000 N 
ATOM      2  C   UNL     1       2.256   8.251  18.323  0.00  0.00    +0.000 C 
ATOM      3  O   UNL     1       2.485   8.785  17.244  0.00  0.00    +0.000 OA
ATOM      4  H   UNL     1       2.269   6.568  19.470  0.00  0.00    +0.000 HD
ENDROOT
BRANCH   1   6
ATOM      5  C   UNL     1       3.592   5.016  17.443  0.00  0.00    +0.000 A 
ATOM      6  C   UNL     1       3.639   6.300  17.964  0.00  0.00    +0.000 A 
ATOM      7  S   UNL     1       5.048   7.169  17.495  0.00  0.00    +0.000 S 
ATOM      8  C   UNL     1       5.643   5.815  16.720  0.00  0.00    +0.000 A 
ATOM      9  C   UNL     1       4.771   4.760  16.698  0.00  0.00    +0.000 A 
ATOM     10  C   UNL     1       5.307   3.653  15.864  0.00  0.00    +0.000 C 
ATOM     11  C   UNL     1       6.811   4.039  15.736  0.00  0.00    +0.000 C 
ATOM     12  C   UNL     1       6.911   5.574  15.993  0.00  0.00    +0.000 C 
BRANCH   5  14
ATOM     13  N   UNL     1       1.526   3.457  17.594  0.00  0.00    +0.000 NA
ATOM     14  C   UNL     1       2.477   4.121  17.530  0.00  0.00    +0.000 C 
ENDBRANCH   5  14
ENDBRANCH   1   6
BRANCH   2  15
ATOM     15  C   UNL     1       1.273   8.792  19.271  0.00  0.00    +0.000 A 
ATOM     16  C   UNL     1       1.022   8.385  20.607  0.00  0.00    +0.000 A 
ATOM     17  C   UNL     1       0.009   9.207  21.036  0.00  0.00    +0.000 A 
ATOM     18  O   UNL     1      -0.326  10.060  20.032  0.00  0.00    +0.000 OA
ATOM     19  N   UNL     1       0.476   9.823  18.932  0.00  0.00    +0.000 NA
BRANCH  17  20
ATOM     20  C   UNL     1      -0.643   9.187  22.405  0.00  0.00    +0.000 C 
ATOM     21  C   UNL     1       0.226   9.499  23.607  0.00  0.00    +0.000 C 
ATOM     22  C   UNL     1      -0.779  10.499  23.151  0.00  0.00    +0.000 C 
ENDBRANCH  17  20
ENDBRANCH   2  15
TORSDOF 4
ENDMDL
MODEL 9
REMARK VINA RESULT:      -6.5      4.141      8.528
REMARK  Name = 
REMARK  4 active torsions:
REMARK  status: ('A' for Active; 'I' for Inactive)
REMARK    1  A    between atoms: C_2  and  C_3
REMARK    2  A    between atoms: C_4  and  N_5
REMARK    3  A    between atoms: C_6  and  C_8
REMARK    4  A    between atoms: C_10  and  C_11
REMARK                            x       y       z     vdW  Elec       q    Type
REMARK                         _______ _______ _______ _____ _____    ______ ____
ROOT
ATOM      1  N   UNL     1       2.914   7.112  18.949  0.00  0.00    +0.000 N 
ATOM      2  C   UNL     1       2.215   8.233  18.532  0.00  0.00    +0.000 C 
ATOM      3  O   UNL     1       2.193   8.667  17.387  0.00  0.00    +0.000 OA
ATOM      4  H   UNL     1       2.569   6.677  19.799  0.00  0.00    +0.000 HD
ENDROOT
BRANCH   1   6
ATOM      5  C   UNL     1       3.456   5.075  17.522  0.00  0.00    +0.000 A 
ATOM      6  C   UNL     1       3.638   6.331  18.079  0.00  0.00    +0.000 A 
ATOM      7  S   UNL     1       5.074   7.108  17.541  0.00  0.00    +0.000 S 
ATOM      8  C   UNL     1       5.508   5.744  16.681  0.00  0.00    +0.000 A 
ATOM      9  C   UNL     1       4.557   4.759  16.687  0.00  0.00    +0.000 A 
ATOM     10  C   UNL     1       4.948   3.647  15.782  0.00  0.00    +0.000 C 
ATOM     11  C   UNL     1       6.465   3.924  15.560  0.00  0.00    +0.000 C 
ATOM     12  C   UNL     1       6.700   5.436  15.858  0.00  0.00    +0.000 C 
BRANCH   5  14
ATOM     13  N   UNL     1       1.300   3.664  17.809  0.00  0.00    +0.000 NA
ATOM     14  C   UNL     1       2.283   4.263  17.659  0.00  0.00    +0.000 C 
ENDBRANCH   5  14
ENDBRANCH   1   6
BRANCH   2  15
ATOM     15  C   UNL     1       1.398   8.815  19.605  0.00  0.00    +0.000 A 
ATOM     16  C   UNL     1       0.535   9.941  19.542  0.00  0.00    +0.000 A 
ATOM     17  C   UNL     1       0.025  10.058  20.812  0.00  0.00    +0.000 A 
ATOM     18  O   UNL     1       0.536   9.067  21.589  0.00  0.00    +0.000 OA
ATOM     19  N   UNL     1       1.377   8.271  20.836  0.00  0.00    +0.000 NA
BRANCH  17  20
ATOM     20  C   UNL     1      -0.956  11.113  21.290  0.00  0.00    +0.000 C 
ATOM     21  C   UNL     1      -1.184  11.241  22.782  0.00  0.00    +0.000 C 
ATOM     22  C   UNL     1      -0.411  12.294  22.067  0.00  0.00    +0.000 C 
ENDBRANCH  17  20
ENDBRANCH   2  15
TORSDOF 4
ENDMDL
