MODEL 1
REMARK VINA RESULT:      -7.7      0.000      0.000
REMARK  Name = 
REMARK  7 active torsions:
REMARK  status: ('A' for Active; 'I' for Inactive)
REMARK    1  A    between atoms: C_1  and  O_2
REMARK    2  A    between atoms: O_2  and  C_3
REMARK    3  A    between atoms: C_6  and  C_7
REMARK    4  A    between atoms: N_12  and  C_13
REMARK    5  A    between atoms: C_16  and  O_17
REMARK    6  A    between atoms: C_21  and  O_22
REMARK    7  A    between atoms: O_22  and  C_23
REMARK                            x       y       z     vdW  Elec       q    Type
REMARK                         _______ _______ _______ _____ _____    ______ ____
ROOT
ATOM      1  C   UNL     1       2.435   4.388  19.397  0.00  0.00    +0.000 C 
ATOM      2  S   UNL     1       1.637   3.731  20.896  0.00  0.00    +0.000 S 
ATOM      3  C   UNL     1       2.899   2.479  21.135  0.00  0.00    +0.000 C 
ATOM      4  C   UNL     1       4.076   2.836  20.256  0.00  0.00    +0.000 C 
ATOM      5  O   UNL     1       5.092   2.151  20.256  0.00  0.00    +0.000 OA
ATOM      6  N   UNL     1       3.822   3.953  19.443  0.00  0.00    +0.000 N 
ENDROOT
BRANCH   1  10
ATOM      7  C   UNL     1       1.795   8.710  19.139  0.00  0.00    +0.000 A 
ATOM      8  C   UNL     1       2.214   7.989  18.009  0.00  0.00    +0.000 A 
ATOM      9  C   UNL     1       2.376   6.596  18.054  0.00  0.00    +0.000 A 
ATOM     10  C   UNL     1       2.186   5.885  19.245  0.00  0.00    +0.000 A 
ATOM     11  C   UNL     1       1.792   6.624  20.371  0.00  0.00    +0.000 A 
ATOM     12  C   UNL     1       1.599   8.015  20.338  0.00  0.00    +0.000 A 
BRANCH   7  14
ATOM     13  C   UNL     1       0.348  10.543  18.643  0.00  0.00    +0.000 C 
ATOM     14  O   UNL     1       1.595  10.061  19.125  0.00  0.00    +0.000 OA
ENDBRANCH   7  14
BRANCH  12  15
ATOM     15  O   UNL     1       1.200   8.499  21.556  0.00  0.00    +0.000 OA
ATOM     16  C   UNL     1      -0.188   8.660  21.802  0.00  0.00    +0.000 C 
ENDBRANCH  12  15
ENDBRANCH   1  10
BRANCH   6  17
ATOM     17  C   UNL     1       4.782   4.338  18.463  0.00  0.00    +0.000 A 
ATOM     18  C   UNL     1       4.732   3.877  17.141  0.00  0.00    +0.000 A 
ATOM     19  C   UNL     1       5.676   4.301  16.197  0.00  0.00    +0.000 A 
ATOM     20  C   UNL     1       6.674   5.190  16.576  0.00  0.00    +0.000 A 
ATOM     21  C   UNL     1       6.757   5.641  17.885  0.00  0.00    +0.000 A 
ATOM     22  C   UNL     1       5.822   5.206  18.826  0.00  0.00    +0.000 A 
BRANCH  20  23
ATOM     23  O   UNL     1       7.601   5.643  15.686  0.00  0.00    +0.000 OA
ATOM     24  H   UNL     1       8.470   5.656  16.121  0.00  0.00    +0.000 HD
ENDBRANCH  20  23
ENDBRANCH   6  17
TORSDOF 5
ENDMDL
MODEL 2
REMARK VINA RESULT:      -7.7      0.111      1.010
REMARK  Name = 
REMARK  7 active torsions:
REMARK  status: ('A' for Active; 'I' for Inactive)
REMARK    1  A    between atoms: C_1  and  O_2
REMARK    2  A    between atoms: O_2  and  C_3
REMARK    3  A    between atoms: C_6  and  C_7
REMARK    4  A    between atoms: N_12  and  C_13
REMARK    5  A    between atoms: C_16  and  O_17
REMARK    6  A    between atoms: C_21  and  O_22
REMARK    7  A    between atoms: O_22  and  C_23
REMARK                            x       y       z     vdW  Elec       q    Type
REMARK                         _______ _______ _______ _____ _____    ______ ____
ROOT
ATOM      1  C   UNL     1       2.441   4.462  19.314  0.00  0.00    +0.000 C 
ATOM      2  S   UNL     1       1.626   3.778  20.792  0.00  0.00    +0.000 S 
ATOM      3  C   UNL     1       2.892   2.531  21.031  0.00  0.00    +0.000 C 
ATOM      4  C   UNL     1       4.080   2.907  20.175  0.00  0.00    +0.000 C 
ATOM      5  O   UNL     1       5.099   2.228  20.180  0.00  0.00    +0.000 OA
ATOM      6  N   UNL     1       3.830   4.034  19.374  0.00  0.00    +0.000 N 
ENDROOT
BRANCH   1  10
ATOM      7  C   UNL     1       1.782   8.783  19.108  0.00  0.00    +0.000 A 
ATOM      8  C   UNL     1       2.199   8.077  17.968  0.00  0.00    +0.000 A 
ATOM      9  C   UNL     1       2.368   6.684  17.997  0.00  0.00    +0.000 A 
ATOM     10  C   UNL     1       2.186   5.959  19.180  0.00  0.00    +0.000 A 
ATOM     11  C   UNL     1       1.793   6.684  20.317  0.00  0.00    +0.000 A 
ATOM     12  C   UNL     1       1.593   8.074  20.300  0.00  0.00    +0.000 A 
BRANCH   7  14
ATOM     13  C   UNL     1       0.307  10.613  18.684  0.00  0.00    +0.000 C 
ATOM     14  O   UNL     1       1.576  10.133  19.110  0.00  0.00    +0.000 OA
ENDBRANCH   7  14
BRANCH  12  15
ATOM     15  O   UNL     1       1.198   8.542  21.525  0.00  0.00    +0.000 OA
ATOM     16  C   UNL     1      -0.191   8.645  21.797  0.00  0.00    +0.000 C 
ENDBRANCH  12  15
ENDBRANCH   1  10
BRANCH   6  17
ATOM     17  C   UNL     1       4.802   4.439  18.414  0.00  0.00    +0.000 A 
ATOM     18  C   UNL     1       5.853   5.309  18.732  0.00  0.00    +0.000 A 
ATOM     19  C   UNL     1       6.809   5.662  17.770  0.00  0.00    +0.000 A 
ATOM     20  C   UNL     1       6.715   5.141  16.486  0.00  0.00    +0.000 A 
ATOM     21  C   UNL     1       5.669   4.297  16.142  0.00  0.00    +0.000 A 
ATOM     22  C   UNL     1       4.711   3.958  17.100  0.00  0.00    +0.000 A 
BRANCH  20  23
ATOM     23  O   UNL     1       7.632   5.442  15.524  0.00  0.00    +0.000 OA
ATOM     24  H   UNL     1       7.844   4.632  15.031  0.00  0.00    +0.000 HD
ENDBRANCH  20  23
ENDBRANCH   6  17
TORSDOF 5
ENDMDL
MODEL 3
REMARK VINA RESULT:      -7.4      1.677      5.705
REMARK  Name = 
REMARK  7 active torsions:
REMARK  status: ('A' for Active; 'I' for Inactive)
REMARK    1  A    between atoms: C_1  and  O_2
REMARK    2  A    between atoms: O_2  and  C_3
REMARK    3  A    between atoms: C_6  and  C_7
REMARK    4  A    between atoms: N_12  and  C_13
REMARK    5  A    between atoms: C_16  and  O_17
REMARK    6  A    between atoms: C_21  and  O_22
REMARK    7  A    between atoms: O_22  and  C_23
REMARK                            x       y       z     vdW  Elec       q    Type
REMARK                         _______ _______ _______ _____ _____    ______ ____
ROOT
ATOM      1  C   UNL     1       4.106   4.197  19.426  0.00  0.00    +0.000 C 
ATOM      2  S   UNL     1       3.967   2.399  19.678  0.00  0.00    +0.000 S 
ATOM      3  C   UNL     1       2.330   2.529  20.396  0.00  0.00    +0.000 C 
ATOM      4  C   UNL     1       1.801   3.912  20.095  0.00  0.00    +0.000 C 
ATOM      5  O   UNL     1       0.679   4.249  20.452  0.00  0.00    +0.000 OA
ATOM      6  N   UNL     1       2.750   4.723  19.449  0.00  0.00    +0.000 N 
ENDROOT
BRANCH   1  10
ATOM      7  C   UNL     1       6.691   5.134  16.021  0.00  0.00    +0.000 A 
ATOM      8  C   UNL     1       5.606   4.256  15.864  0.00  0.00    +0.000 A 
ATOM      9  C   UNL     1       4.734   3.980  16.928  0.00  0.00    +0.000 A 
ATOM     10  C   UNL     1       4.951   4.523  18.200  0.00  0.00    +0.000 A 
ATOM     11  C   UNL     1       6.055   5.379  18.346  0.00  0.00    +0.000 A 
ATOM     12  C   UNL     1       6.923   5.688  17.286  0.00  0.00    +0.000 A 
BRANCH   7  14
ATOM     13  C   UNL     1       7.270   4.909  13.715  0.00  0.00    +0.000 C 
ATOM     14  O   UNL     1       7.542   5.451  15.001  0.00  0.00    +0.000 OA
ENDBRANCH   7  14
BRANCH  12  15
ATOM     15  O   UNL     1       7.909   6.555  17.675  0.00  0.00    +0.000 OA
ATOM     16  C   UNL     1       7.665   7.950  17.577  0.00  0.00    +0.000 C 
ENDBRANCH  12  15
ENDBRANCH   1  10
BRANCH   6  17
ATOM     17  C   UNL     1       2.453   6.096  19.213  0.00  0.00    +0.000 A 
ATOM     18  C   UNL     1       2.493   6.663  17.933  0.00  0.00    +0.000 A 
ATOM     19  C   UNL     1       2.164   8.010  17.733  0.00  0.00    +0.000 A 
ATOM     20  C   UNL     1       1.792   8.793  18.819  0.00  0.00    +0.000 A 
ATOM     21  C   UNL     1       1.768   8.259  20.099  0.00  0.00    +0.000 A 
ATOM     22  C   UNL     1       2.109   6.919  20.295  0.00  0.00    +0.000 A 
BRANCH  20  23
ATOM     23  O   UNL     1       1.446  10.103  18.669  0.00  0.00    +0.000 OA
ATOM     24  H   UNL     1       2.243  10.649  18.768  0.00  0.00    +0.000 HD
ENDBRANCH  20  23
ENDBRANCH   6  17
TORSDOF 5
ENDMDL
MODEL 4
REMARK VINA RESULT:      -7.4      1.707      5.724
REMARK  Name = 
REMARK  7 active torsions:
REMARK  status: ('A' for Active; 'I' for Inactive)
REMARK    1  A    between atoms: C_1  and  O_2
REMARK    2  A    between atoms: O_2  and  C_3
REMARK    3  A    between atoms: C_6  and  C_7
REMARK    4  A    between atoms: N_12  and  C_13
REMARK    5  A    between atoms: C_16  and  O_17
REMARK    6  A    between atoms: C_21  and  O_22
REMARK    7  A    between atoms: O_22  and  C_23
REMARK                            x       y       z     vdW  Elec       q    Type
REMARK                         _______ _______ _______ _____ _____    ______ ____
ROOT
ATOM      1  C   UNL     1       4.182   4.231  19.510  0.00  0.00    +0.000 C 
ATOM      2  S   UNL     1       4.097   2.436  19.805  0.00  0.00    +0.000 S 
ATOM      3  C   UNL     1       2.461   2.536  20.532  0.00  0.00    +0.000 C 
ATOM      4  C   UNL     1       1.890   3.897  20.202  0.00  0.00    +0.000 C 
ATOM      5  O   UNL     1       0.761   4.209  20.559  0.00  0.00    +0.000 OA
ATOM      6  N   UNL     1       2.812   4.718  19.530  0.00  0.00    +0.000 N 
ENDROOT
BRANCH   1  10
ATOM      7  C   UNL     1       6.718   5.157  16.066  0.00  0.00    +0.000 A 
ATOM      8  C   UNL     1       5.643   4.263  15.932  0.00  0.00    +0.000 A 
ATOM      9  C   UNL     1       4.786   3.990  17.009  0.00  0.00    +0.000 A 
ATOM     10  C   UNL     1       5.010   4.552  18.271  0.00  0.00    +0.000 A 
ATOM     11  C   UNL     1       6.104   5.424  18.394  0.00  0.00    +0.000 A 
ATOM     12  C   UNL     1       6.956   5.730  17.320  0.00  0.00    +0.000 A 
BRANCH   7  14
ATOM     13  C   UNL     1       7.257   4.933  13.750  0.00  0.00    +0.000 C 
ATOM     14  O   UNL     1       7.554   5.472  15.032  0.00  0.00    +0.000 OA
ENDBRANCH   7  14
BRANCH  12  15
ATOM     15  O   UNL     1       7.934   6.616  17.688  0.00  0.00    +0.000 OA
ATOM     16  C   UNL     1       7.677   8.006  17.560  0.00  0.00    +0.000 C 
ENDBRANCH  12  15
ENDBRANCH   1  10
BRANCH   6  17
ATOM     17  C   UNL     1       2.473   6.076  19.264  0.00  0.00    +0.000 A 
ATOM     18  C   UNL     1       2.099   6.969  20.277  0.00  0.00    +0.000 A 
ATOM     19  C   UNL     1       1.803   8.306  19.983  0.00  0.00    +0.000 A 
ATOM     20  C   UNL     1       1.882   8.753  18.669  0.00  0.00    +0.000 A 
ATOM     21  C   UNL     1       2.227   7.881  17.647  0.00  0.00    +0.000 A 
ATOM     22  C   UNL     1       2.510   6.546  17.943  0.00  0.00    +0.000 A 
BRANCH  20  23
ATOM     23  O   UNL     1       1.620  10.049  18.340  0.00  0.00    +0.000 OA
ATOM     24  H   UNL     1       0.738  10.096  17.938  0.00  0.00    +0.000 HD
ENDBRANCH  20  23
ENDBRANCH   6  17
TORSDOF 5
ENDMDL
MODEL 5
REMARK VINA RESULT:      -7.0      2.154      4.062
REMARK  Name = 
REMARK  7 active torsions:
REMARK  status: ('A' for Active; 'I' for Inactive)
REMARK    1  A    between atoms: C_1  and  O_2
REMARK    2  A    between atoms: O_2  and  C_3
REMARK    3  A    between atoms: C_6  and  C_7
REMARK    4  A    between atoms: N_12  and  C_13
REMARK    5  A    between atoms: C_16  and  O_17
REMARK    6  A    between atoms: C_21  and  O_22
REMARK    7  A    between atoms: O_22  and  C_23
REMARK                            x       y       z     vdW  Elec       q    Type
REMARK                         _______ _______ _______ _____ _____    ______ ____
ROOT
ATOM      1  C   UNL     1       3.981   6.275  18.128  0.00  0.00    +0.000 C 
ATOM      2  S   UNL     1       4.806   6.616  16.541  0.00  0.00    +0.000 S 
ATOM      3  C   UNL     1       5.090   4.878  16.204  0.00  0.00    +0.000 C 
ATOM      4  C   UNL     1       4.228   4.077  17.153  0.00  0.00    +0.000 C 
ATOM      5  O   UNL     1       4.213   2.853  17.109  0.00  0.00    +0.000 OA
ATOM      6  N   UNL     1       3.547   4.888  18.077  0.00  0.00    +0.000 N 
ENDROOT
BRANCH   1  10
ATOM      7  C   UNL     1       0.997   9.293  19.195  0.00  0.00    +0.000 A 
ATOM      8  C   UNL     1       1.553   9.273  17.905  0.00  0.00    +0.000 A 
ATOM      9  C   UNL     1       2.473   8.285  17.525  0.00  0.00    +0.000 A 
ATOM     10  C   UNL     1       2.916   7.320  18.437  0.00  0.00    +0.000 A 
ATOM     11  C   UNL     1       2.369   7.369  19.730  0.00  0.00    +0.000 A 
ATOM     12  C   UNL     1       1.427   8.334  20.121  0.00  0.00    +0.000 A 
BRANCH   7  14
ATOM     13  C   UNL     1      -1.112  10.348  18.820  0.00  0.00    +0.000 C 
ATOM     14  O   UNL     1       0.075  10.219  19.592  0.00  0.00    +0.000 OA
ENDBRANCH   7  14
BRANCH  12  15
ATOM     15  O   UNL     1       1.035   8.161  21.421  0.00  0.00    +0.000 OA
ATOM     16  C   UNL     1       1.378   9.155  22.374  0.00  0.00    +0.000 C 
ENDBRANCH  12  15
ENDBRANCH   1  10
BRANCH   6  17
ATOM     17  C   UNL     1       2.796   4.277  19.123  0.00  0.00    +0.000 A 
ATOM     18  C   UNL     1       1.442   3.949  18.981  0.00  0.00    +0.000 A 
ATOM     19  C   UNL     1       0.742   3.321  20.020  0.00  0.00    +0.000 A 
ATOM     20  C   UNL     1       1.401   3.019  21.206  0.00  0.00    +0.000 A 
ATOM     21  C   UNL     1       2.735   3.357  21.377  0.00  0.00    +0.000 A 
ATOM     22  C   UNL     1       3.426   3.993  20.344  0.00  0.00    +0.000 A 
BRANCH  20  23
ATOM     23  O   UNL     1       0.765   2.393  22.235  0.00  0.00    +0.000 OA
ATOM     24  H   UNL     1      -0.035   1.962  21.892  0.00  0.00    +0.000 HD
ENDBRANCH  20  23
ENDBRANCH   6  17
TORSDOF 5
ENDMDL
MODEL 6
REMARK VINA RESULT:      -6.8      1.938      5.833
REMARK  Name = 
REMARK  7 active torsions:
REMARK  status: ('A' for Active; 'I' for Inactive)
REMARK    1  A    between atoms: C_1  and  O_2
REMARK    2  A    between atoms: O_2  and  C_3
REMARK    3  A    between atoms: C_6  and  C_7
REMARK    4  A    between atoms: N_12  and  C_13
REMARK    5  A    between atoms: C_16  and  O_17
REMARK    6  A    between atoms: C_21  and  O_22
REMARK    7  A    between atoms: O_22  and  C_23
REMARK                            x       y       z     vdW  Elec       q    Type
REMARK                         _______ _______ _______ _____ _____    ______ ____
ROOT
ATOM      1  C   UNL     1       4.000   3.651  18.920  0.00  0.00    +0.000 C 
ATOM      2  S   UNL     1       4.029   2.058  18.039  0.00  0.00    +0.000 S 
ATOM      3  C   UNL     1       2.250   1.859  18.143  0.00  0.00    +0.000 C 
ATOM      4  C   UNL     1       1.657   3.192  18.539  0.00  0.00    +0.000 C 
ATOM      5  O   UNL     1       0.446   3.335  18.650  0.00  0.00    +0.000 OA
ATOM      6  N   UNL     1       2.641   4.158  18.812  0.00  0.00    +0.000 N 
ENDROOT
BRANCH   1  10
ATOM      7  C   UNL     1       7.089   6.363  17.419  0.00  0.00    +0.000 A 
ATOM      8  C   UNL     1       6.988   6.100  18.795  0.00  0.00    +0.000 A 
ATOM      9  C   UNL     1       6.039   5.195  19.294  0.00  0.00    +0.000 A 
ATOM     10  C   UNL     1       5.119   4.570  18.444  0.00  0.00    +0.000 A 
ATOM     11  C   UNL     1       5.218   4.864  17.074  0.00  0.00    +0.000 A 
ATOM     12  C   UNL     1       6.179   5.746  16.553  0.00  0.00    +0.000 A 
BRANCH   7  14
ATOM     13  C   UNL     1       8.169   8.492  17.497  0.00  0.00    +0.000 C 
ATOM     14  O   UNL     1       8.021   7.213  16.894  0.00  0.00    +0.000 OA
ENDBRANCH   7  14
BRANCH  12  15
ATOM     15  O   UNL     1       6.083   5.853  15.191  0.00  0.00    +0.000 OA
ATOM     16  C   UNL     1       6.731   4.880  14.386  0.00  0.00    +0.000 C 
ENDBRANCH  12  15
ENDBRANCH   1  10
BRANCH   6  17
ATOM     17  C   UNL     1       2.250   5.428  19.324  0.00  0.00    +0.000 A 
ATOM     18  C   UNL     1       1.726   5.589  20.613  0.00  0.00    +0.000 A 
ATOM     19  C   UNL     1       1.381   6.858  21.096  0.00  0.00    +0.000 A 
ATOM     20  C   UNL     1       1.561   7.972  20.286  0.00  0.00    +0.000 A 
ATOM     21  C   UNL     1       2.055   7.834  18.998  0.00  0.00    +0.000 A 
ATOM     22  C   UNL     1       2.387   6.566  18.516  0.00  0.00    +0.000 A 
BRANCH  20  23
ATOM     23  O   UNL     1       1.256   9.227  20.720  0.00  0.00    +0.000 OA
ATOM     24  H   UNL     1       1.120   9.199  21.681  0.00  0.00    +0.000 HD
ENDBRANCH  20  23
ENDBRANCH   6  17
TORSDOF 5
ENDMDL
MODEL 7
REMARK VINA RESULT:      -6.7      2.154      4.137
REMARK  Name = 
REMARK  7 active torsions:
REMARK  status: ('A' for Active; 'I' for Inactive)
REMARK    1  A    between atoms: C_1  and  O_2
REMARK    2  A    between atoms: O_2  and  C_3
REMARK    3  A    between atoms: C_6  and  C_7
REMARK    4  A    between atoms: N_12  and  C_13
REMARK    5  A    between atoms: C_16  and  O_17
REMARK    6  A    between atoms: C_21  and  O_22
REMARK    7  A    between atoms: O_22  and  C_23
REMARK                            x       y       z     vdW  Elec       q    Type
REMARK                         _______ _______ _______ _____ _____    ______ ____
ROOT
ATOM      1  C   UNL     1       4.021   6.319  18.073  0.00  0.00    +0.000 C 
ATOM      2  S   UNL     1       4.790   6.702  16.467  0.00  0.00    +0.000 S 
ATOM      3  C   UNL     1       5.129   4.978  16.109  0.00  0.00    +0.000 C 
ATOM      4  C   UNL     1       4.323   4.138  17.074  0.00  0.00    +0.000 C 
ATOM      5  O   UNL     1       4.352   2.915  17.019  0.00  0.00    +0.000 OA
ATOM      6  N   UNL     1       3.637   4.917  18.022  0.00  0.00    +0.000 N 
ENDROOT
BRANCH   1  10
ATOM      7  C   UNL     1       0.957   9.217  19.242  0.00  0.00    +0.000 A 
ATOM      8  C   UNL     1       1.470   9.219  17.935  0.00  0.00    +0.000 A 
ATOM      9  C   UNL     1       2.416   8.268  17.522  0.00  0.00    +0.000 A 
ATOM     10  C   UNL     1       2.925   7.321  18.418  0.00  0.00    +0.000 A 
ATOM     11  C   UNL     1       2.420   7.348  19.728  0.00  0.00    +0.000 A 
ATOM     12  C   UNL     1       1.454   8.276  20.151  0.00  0.00    +0.000 A 
BRANCH   7  14
ATOM     13  C   UNL     1       0.371  11.482  19.723  0.00  0.00    +0.000 C 
ATOM     14  O   UNL     1       0.013  10.106  19.670  0.00  0.00    +0.000 OA
ENDBRANCH   7  14
BRANCH  12  15
ATOM     15  O   UNL     1       1.112   8.087  21.464  0.00  0.00    +0.000 OA
ATOM     16  C   UNL     1       1.432   9.101  22.404  0.00  0.00    +0.000 C 
ENDBRANCH  12  15
ENDBRANCH   1  10
BRANCH   6  17
ATOM     17  C   UNL     1       2.937   4.271  19.082  0.00  0.00    +0.000 A 
ATOM     18  C   UNL     1       3.565   3.896  20.276  0.00  0.00    +0.000 A 
ATOM     19  C   UNL     1       2.838   3.290  21.310  0.00  0.00    +0.000 A 
ATOM     20  C   UNL     1       1.478   3.060  21.148  0.00  0.00    +0.000 A 
ATOM     21  C   UNL     1       0.840   3.401  19.965  0.00  0.00    +0.000 A 
ATOM     22  C   UNL     1       1.571   3.993  18.932  0.00  0.00    +0.000 A 
BRANCH  20  23
ATOM     23  O   UNL     1       0.728   2.491  22.134  0.00  0.00    +0.000 OA
ATOM     24  H   UNL     1       0.014   1.976  21.724  0.00  0.00    +0.000 HD
ENDBRANCH  20  23
ENDBRANCH   6  17
TORSDOF 5
ENDMDL
MODEL 8
REMARK VINA RESULT:      -6.7      1.935      5.848
REMARK  Name = 
REMARK  7 active torsions:
REMARK  status: ('A' for Active; 'I' for Inactive)
REMARK    1  A    between atoms: C_1  and  O_2
REMARK    2  A    between atoms: O_2  and  C_3
REMARK    3  A    between atoms: C_6  and  C_7
REMARK    4  A    between atoms: N_12  and  C_13
REMARK    5  A    between atoms: C_16  and  O_17
REMARK    6  A    between atoms: C_21  and  O_22
REMARK    7  A    between atoms: O_22  and  C_23
REMARK                            x       y       z     vdW  Elec       q    Type
REMARK                         _______ _______ _______ _____ _____    ______ ____
ROOT
ATOM      1  C   UNL     1       3.999   3.697  18.928  0.00  0.00    +0.000 C 
ATOM      2  S   UNL     1       3.995   2.101  18.051  0.00  0.00    +0.000 S 
ATOM      3  C   UNL     1       2.215   1.929  18.173  0.00  0.00    +0.000 C 
ATOM      4  C   UNL     1       1.646   3.272  18.572  0.00  0.00    +0.000 C 
ATOM      5  O   UNL     1       0.438   3.433  18.694  0.00  0.00    +0.000 OA
ATOM      6  N   UNL     1       2.647   4.224  18.832  0.00  0.00    +0.000 N 
ENDROOT
BRANCH   1  10
ATOM      7  C   UNL     1       7.112   6.361  17.391  0.00  0.00    +0.000 A 
ATOM      8  C   UNL     1       7.025   6.096  18.767  0.00  0.00    +0.000 A 
ATOM      9  C   UNL     1       6.068   5.206  19.278  0.00  0.00    +0.000 A 
ATOM     10  C   UNL     1       5.127   4.599  18.438  0.00  0.00    +0.000 A 
ATOM     11  C   UNL     1       5.212   4.894  17.068  0.00  0.00    +0.000 A 
ATOM     12  C   UNL     1       6.180   5.761  16.536  0.00  0.00    +0.000 A 
BRANCH   7  14
ATOM     13  C   UNL     1       8.203   8.485  17.434  0.00  0.00    +0.000 C 
ATOM     14  O   UNL     1       8.051   7.196  16.854  0.00  0.00    +0.000 OA
ENDBRANCH   7  14
BRANCH  12  15
ATOM     15  O   UNL     1       6.067   5.872  15.176  0.00  0.00    +0.000 OA
ATOM     16  C   UNL     1       6.682   4.887  14.359  0.00  0.00    +0.000 C 
ENDBRANCH  12  15
ENDBRANCH   1  10
BRANCH   6  17
ATOM     17  C   UNL     1       2.280   5.501  19.346  0.00  0.00    +0.000 A 
ATOM     18  C   UNL     1       2.418   6.678  18.599  0.00  0.00    +0.000 A 
ATOM     19  C   UNL     1       2.017   7.914  19.124  0.00  0.00    +0.000 A 
ATOM     20  C   UNL     1       1.475   7.972  20.402  0.00  0.00    +0.000 A 
ATOM     21  C   UNL     1       1.352   6.823  21.169  0.00  0.00    +0.000 A 
ATOM     22  C   UNL     1       1.763   5.595  20.646  0.00  0.00    +0.000 A 
BRANCH  20  23
ATOM     23  O   UNL     1       1.056   9.148  20.946  0.00  0.00    +0.000 OA
ATOM     24  H   UNL     1       1.228   9.864  20.313  0.00  0.00    +0.000 HD
ENDBRANCH  20  23
ENDBRANCH   6  17
TORSDOF 5
ENDMDL
MODEL 9
REMARK VINA RESULT:      -6.6      0.840      1.984
REMARK  Name = 
REMARK  7 active torsions:
REMARK  status: ('A' for Active; 'I' for Inactive)
REMARK    1  A    between atoms: C_1  and  O_2
REMARK    2  A    between atoms: O_2  and  C_3
REMARK    3  A    between atoms: C_6  and  C_7
REMARK    4  A    between atoms: N_12  and  C_13
REMARK    5  A    between atoms: C_16  and  O_17
REMARK    6  A    between atoms: C_21  and  O_22
REMARK    7  A    between atoms: O_22  and  C_23
REMARK                            x       y       z     vdW  Elec       q    Type
REMARK                         _______ _______ _______ _____ _____    ______ ____
ROOT
ATOM      1  C   UNL     1       2.446   4.200  19.789  0.00  0.00    +0.000 C 
ATOM      2  S   UNL     1       1.695   3.416  21.251  0.00  0.00    +0.000 S 
ATOM      3  C   UNL     1       2.956   2.144  21.336  0.00  0.00    +0.000 C 
ATOM      4  C   UNL     1       4.105   2.572  20.453  0.00  0.00    +0.000 C 
ATOM      5  O   UNL     1       5.116   1.887  20.359  0.00  0.00    +0.000 OA
ATOM      6  N   UNL     1       3.831   3.758  19.750  0.00  0.00    +0.000 N 
ENDROOT
BRANCH   1  10
ATOM      7  C   UNL     1       1.701   8.506  19.565  0.00  0.00    +0.000 A 
ATOM      8  C   UNL     1       1.316   7.781  20.704  0.00  0.00    +0.000 A 
ATOM      9  C   UNL     1       1.589   6.410  20.820  0.00  0.00    +0.000 A 
ATOM     10  C   UNL     1       2.202   5.705  19.777  0.00  0.00    +0.000 A 
ATOM     11  C   UNL     1       2.559   6.440  18.636  0.00  0.00    +0.000 A 
ATOM     12  C   UNL     1       2.317   7.818  18.513  0.00  0.00    +0.000 A 
BRANCH   7  14
ATOM     13  C   UNL     1       0.195  10.269  18.993  0.00  0.00    +0.000 C 
ATOM     14  O   UNL     1       1.481   9.848  19.431  0.00  0.00    +0.000 OA
ENDBRANCH   7  14
BRANCH  12  15
ATOM     15  O   UNL     1       2.771   8.307  17.317  0.00  0.00    +0.000 OA
ATOM     16  C   UNL     1       3.907   7.700  16.721  0.00  0.00    +0.000 C 
ENDBRANCH  12  15
ENDBRANCH   1  10
BRANCH   6  17
ATOM     17  C   UNL     1       4.761   4.224  18.776  0.00  0.00    +0.000 A 
ATOM     18  C   UNL     1       4.681   3.856  17.426  0.00  0.00    +0.000 A 
ATOM     19  C   UNL     1       5.595   4.359  16.490  0.00  0.00    +0.000 A 
ATOM     20  C   UNL     1       6.591   5.233  16.906  0.00  0.00    +0.000 A 
ATOM     21  C   UNL     1       6.704   5.591  18.241  0.00  0.00    +0.000 A 
ATOM     22  C   UNL     1       5.799   5.079  19.173  0.00  0.00    +0.000 A 
BRANCH  20  23
ATOM     23  O   UNL     1       7.489   5.760  16.027  0.00  0.00    +0.000 OA
ATOM     24  H   UNL     1       8.381   5.674  16.403  0.00  0.00    +0.000 HD
ENDBRANCH  20  23
ENDBRANCH   6  17
TORSDOF 5
ENDMDL
