MODEL 1
REMARK VINA RESULT:      -7.5      0.000      0.000
REMARK  Name = 
REMARK  4 active torsions:
REMARK  status: ('A' for Active; 'I' for Inactive)
REMARK    1  A    between atoms: C_2  and  C_4
REMARK    2  A    between atoms: C_4  and  C_5
REMARK    3  A    between atoms: CA_6  and  C_7
REMARK    4  A    between atoms: C_7  and  OXT_9
REMARK                            x       y       z     vdW  Elec       q    Type
REMARK                         _______ _______ _______ _____ _____    ______ ____
ROOT
ATOM      1  C   UNL     1       5.303   4.157  17.100  0.00  0.00    +0.000 A 
ATOM      2  CA  UNL     1       6.179   4.557  18.110  0.00  0.00    +0.000 A 
ATOM      3  N   UNL     1       5.478   4.488  19.294  0.00  0.00    +0.000 N 
ATOM      4  C   UNL     1       4.187   4.072  19.083  0.00  0.00    +0.000 A 
ATOM      5  C   UNL     1       3.143   3.873  19.997  0.00  0.00    +0.000 A 
ATOM      6  C   UNL     1       1.930   3.395  19.494  0.00  0.00    +0.000 A 
ATOM      7 CL   UNL     1       0.618   3.135  20.578  0.00  0.00    +0.000 Cl
ATOM      8  C   UNL     1       1.766   3.122  18.140  0.00  0.00    +0.000 A 
ATOM      9  C   UNL     1       2.819   3.336  17.242  0.00  0.00    +0.000 A 
ATOM     10  C   UNL     1       4.053   3.827  17.719  0.00  0.00    +0.000 A 
ATOM     11  H   UNL     1       5.867   4.650  20.213  0.00  0.00    +0.000 HD
ENDROOT
BRANCH   2  12
ATOM     12  C   UNL     1       7.583   4.885  17.993  0.00  0.00    +0.000 C 
ATOM     13  O   UNL     1       8.477   4.080  17.766  0.00  0.00    +0.000 OA
BRANCH  12  14
ATOM     14  OXT UNL     1       7.829   6.202  18.171  0.00  0.00    +0.000 OA
ATOM     15  HXT UNL     1       7.184   6.790  17.741  0.00  0.00    +0.000 HD
ENDBRANCH  12  14
ENDBRANCH   2  12
BRANCH   1  16
ATOM     16  C   UNL     1       5.590   4.096  15.624  0.00  0.00    +0.000 C 
BRANCH  16  18
ATOM     17  N   UNL     1       7.326   5.366  14.465  0.00  0.00    +0.000 N 
ATOM     18  C   UNL     1       6.099   5.407  15.059  0.00  0.00    +0.000 C 
ATOM     19  O   UNL     1       5.480   6.464  15.153  0.00  0.00    +0.000 OA
ATOM     20  H   UNL     1       7.735   6.231  14.142  0.00  0.00    +0.000 HD
ATOM     21  H   UNL     1       7.922   4.541  14.529  0.00  0.00    +0.000 HD
ENDBRANCH  16  18
ENDBRANCH   1  16
TORSDOF 4
ENDMDL
MODEL 2
REMARK VINA RESULT:      -7.5      0.969      1.245
REMARK  Name = 
REMARK  4 active torsions:
REMARK  status: ('A' for Active; 'I' for Inactive)
REMARK    1  A    between atoms: C_2  and  C_4
REMARK    2  A    between atoms: C_4  and  C_5
REMARK    3  A    between atoms: CA_6  and  C_7
REMARK    4  A    between atoms: C_7  and  OXT_9
REMARK                            x       y       z     vdW  Elec       q    Type
REMARK                         _______ _______ _______ _____ _____    ______ ____
ROOT
ATOM      1  C   UNL     1       5.227   4.950  17.254  0.00  0.00    +0.000 A 
ATOM      2  CA  UNL     1       6.184   4.843  18.263  0.00  0.00    +0.000 A 
ATOM      3  N   UNL     1       5.549   4.294  19.356  0.00  0.00    +0.000 N 
ATOM      4  C   UNL     1       4.223   4.056  19.091  0.00  0.00    +0.000 A 
ATOM      5  C   UNL     1       3.222   3.519  19.912  0.00  0.00    +0.000 A 
ATOM      6  C   UNL     1       1.953   3.349  19.352  0.00  0.00    +0.000 A 
ATOM      7 CL   UNL     1       0.690   2.692  20.322  0.00  0.00    +0.000 Cl
ATOM      8  C   UNL     1       1.694   3.694  18.030  0.00  0.00    +0.000 A 
ATOM      9  C   UNL     1       2.706   4.237  17.229  0.00  0.00    +0.000 A 
ATOM     10  C   UNL     1       3.995   4.429  17.770  0.00  0.00    +0.000 A 
ATOM     11  H   UNL     1       6.000   4.029  20.222  0.00  0.00    +0.000 HD
ENDROOT
BRANCH   2  12
ATOM     12  C   UNL     1       7.598   5.139  18.185  0.00  0.00    +0.000 C 
ATOM     13  O   UNL     1       8.110   6.208  18.488  0.00  0.00    +0.000 OA
BRANCH  12  14
ATOM     14  OXT UNL     1       8.326   4.097  17.724  0.00  0.00    +0.000 OA
ATOM     15  HXT UNL     1       9.243   4.323  17.491  0.00  0.00    +0.000 HD
ENDBRANCH  12  14
ENDBRANCH   2  12
BRANCH   1  16
ATOM     16  C   UNL     1       5.425   5.522  15.876  0.00  0.00    +0.000 C 
BRANCH  16  18
ATOM     17  N   UNL     1       6.153   3.528  14.667  0.00  0.00    +0.000 N 
ATOM     18  C   UNL     1       6.479   4.789  15.070  0.00  0.00    +0.000 C 
ATOM     19  O   UNL     1       7.582   5.266  14.817  0.00  0.00    +0.000 OA
ATOM     20  H   UNL     1       6.855   2.976  14.193  0.00  0.00    +0.000 HD
ATOM     21  H   UNL     1       5.317   3.057  15.011  0.00  0.00    +0.000 HD
ENDBRANCH  16  18
ENDBRANCH   1  16
TORSDOF 4
ENDMDL
MODEL 3
REMARK VINA RESULT:      -7.3      1.107      1.280
REMARK  Name = 
REMARK  4 active torsions:
REMARK  status: ('A' for Active; 'I' for Inactive)
REMARK    1  A    between atoms: C_2  and  C_4
REMARK    2  A    between atoms: C_4  and  C_5
REMARK    3  A    between atoms: CA_6  and  C_7
REMARK    4  A    between atoms: C_7  and  OXT_9
REMARK                            x       y       z     vdW  Elec       q    Type
REMARK                         _______ _______ _______ _____ _____    ______ ____
ROOT
ATOM      1  C   UNL     1       5.996   4.529  17.705  0.00  0.00    +0.000 A 
ATOM      2  CA  UNL     1       6.279   5.277  18.848  0.00  0.00    +0.000 A 
ATOM      3  N   UNL     1       5.167   5.199  19.658  0.00  0.00    +0.000 N 
ATOM      4  C   UNL     1       4.181   4.443  19.076  0.00  0.00    +0.000 A 
ATOM      5  C   UNL     1       2.900   4.116  19.544  0.00  0.00    +0.000 A 
ATOM      6  C   UNL     1       2.118   3.279  18.745  0.00  0.00    +0.000 A 
ATOM      7 CL   UNL     1       0.537   2.849  19.279  0.00  0.00    +0.000 Cl
ATOM      8  C   UNL     1       2.591   2.785  17.534  0.00  0.00    +0.000 A 
ATOM      9  C   UNL     1       3.870   3.131  17.080  0.00  0.00    +0.000 A 
ATOM     10  C   UNL     1       4.680   3.982  17.861  0.00  0.00    +0.000 A 
ATOM     11  H   UNL     1       5.096   5.584  20.591  0.00  0.00    +0.000 HD
ENDROOT
BRANCH   2  12
ATOM     12  C   UNL     1       7.520   5.931  19.199  0.00  0.00    +0.000 C 
ATOM     13  O   UNL     1       8.059   6.814  18.545  0.00  0.00    +0.000 OA
BRANCH  12  14
ATOM     14  OXT UNL     1       8.053   5.459  20.348  0.00  0.00    +0.000 OA
ATOM     15  HXT UNL     1       7.404   5.309  21.057  0.00  0.00    +0.000 HD
ENDBRANCH  12  14
ENDBRANCH   2  12
BRANCH   1  16
ATOM     16  C   UNL     1       6.885   4.335  16.507  0.00  0.00    +0.000 C 
BRANCH  16  18
ATOM     17  N   UNL     1       7.602   5.402  14.429  0.00  0.00    +0.000 N 
ATOM     18  C   UNL     1       6.677   5.383  15.431  0.00  0.00    +0.000 C 
ATOM     19  O   UNL     1       5.762   6.202  15.459  0.00  0.00    +0.000 OA
ATOM     20  H   UNL     1       7.544   6.132  13.733  0.00  0.00    +0.000 HD
ATOM     21  H   UNL     1       8.455   4.846  14.480  0.00  0.00    +0.000 HD
ENDBRANCH  16  18
ENDBRANCH   1  16
TORSDOF 4
ENDMDL
MODEL 4
REMARK VINA RESULT:      -7.3      1.327      1.451
REMARK  Name = 
REMARK  4 active torsions:
REMARK  status: ('A' for Active; 'I' for Inactive)
REMARK    1  A    between atoms: C_2  and  C_4
REMARK    2  A    between atoms: C_4  and  C_5
REMARK    3  A    between atoms: CA_6  and  C_7
REMARK    4  A    between atoms: C_7  and  OXT_9
REMARK                            x       y       z     vdW  Elec       q    Type
REMARK                         _______ _______ _______ _____ _____    ______ ____
ROOT
ATOM      1  C   UNL     1       5.212   5.498  17.048  0.00  0.00    +0.000 A 
ATOM      2  CA  UNL     1       6.036   5.942  18.083  0.00  0.00    +0.000 A 
ATOM      3  N   UNL     1       5.452   5.529  19.260  0.00  0.00    +0.000 N 
ATOM      4  C   UNL     1       4.283   4.851  19.023  0.00  0.00    +0.000 A 
ATOM      5  C   UNL     1       3.377   4.272  19.923  0.00  0.00    +0.000 A 
ATOM      6  C   UNL     1       2.279   3.597  19.385  0.00  0.00    +0.000 A 
ATOM      7 CL   UNL     1       1.139   2.869  20.452  0.00  0.00    +0.000 Cl
ATOM      8  C   UNL     1       2.092   3.498  18.011  0.00  0.00    +0.000 A 
ATOM      9  C   UNL     1       3.004   4.091  17.128  0.00  0.00    +0.000 A 
ATOM     10  C   UNL     1       4.118   4.788  17.642  0.00  0.00    +0.000 A 
ATOM     11  H   UNL     1       5.853   5.641  20.182  0.00  0.00    +0.000 HD
ENDROOT
BRANCH   2  12
ATOM     12  C   UNL     1       7.314   6.612  17.979  0.00  0.00    +0.000 C 
ATOM     13  O   UNL     1       7.661   7.324  17.046  0.00  0.00    +0.000 OA
BRANCH  12  14
ATOM     14  OXT UNL     1       8.122   6.365  19.035  0.00  0.00    +0.000 OA
ATOM     15  HXT UNL     1       8.955   5.918  18.804  0.00  0.00    +0.000 HD
ENDBRANCH  12  14
ENDBRANCH   2  12
BRANCH   1  16
ATOM     16  C   UNL     1       5.406   5.729  15.574  0.00  0.00    +0.000 C 
BRANCH  16  18
ATOM     17  N   UNL     1       7.618   5.342  14.612  0.00  0.00    +0.000 N 
ATOM     18  C   UNL     1       6.418   4.789  14.949  0.00  0.00    +0.000 C 
ATOM     19  O   UNL     1       6.179   3.608  14.713  0.00  0.00    +0.000 OA
ATOM     20  H   UNL     1       8.293   4.769  14.124  0.00  0.00    +0.000 HD
ATOM     21  H   UNL     1       7.769   6.349  14.643  0.00  0.00    +0.000 HD
ENDBRANCH  16  18
ENDBRANCH   1  16
TORSDOF 4
ENDMDL
MODEL 5
REMARK VINA RESULT:      -7.2      1.639      3.168
REMARK  Name = 
REMARK  4 active torsions:
REMARK  status: ('A' for Active; 'I' for Inactive)
REMARK    1  A    between atoms: C_2  and  C_4
REMARK    2  A    between atoms: C_4  and  C_5
REMARK    3  A    between atoms: CA_6  and  C_7
REMARK    4  A    between atoms: C_7  and  OXT_9
REMARK                            x       y       z     vdW  Elec       q    Type
REMARK                         _______ _______ _______ _____ _____    ______ ____
ROOT
ATOM      1  C   UNL     1       6.283   4.388  17.240  0.00  0.00    +0.000 A 
ATOM      2  CA  UNL     1       5.921   4.324  15.894  0.00  0.00    +0.000 A 
ATOM      3  N   UNL     1       4.560   4.114  15.859  0.00  0.00    +0.000 N 
ATOM      4  C   UNL     1       4.038   4.031  17.126  0.00  0.00    +0.000 A 
ATOM      5  C   UNL     1       2.717   3.819  17.544  0.00  0.00    +0.000 A 
ATOM      6  C   UNL     1       2.469   3.826  18.920  0.00  0.00    +0.000 A 
ATOM      7 CL   UNL     1       0.861   3.572  19.482  0.00  0.00    +0.000 Cl
ATOM      8  C   UNL     1       3.492   4.038  19.838  0.00  0.00    +0.000 A 
ATOM      9  C   UNL     1       4.807   4.239  19.399  0.00  0.00    +0.000 A 
ATOM     10  C   UNL     1       5.089   4.228  18.016  0.00  0.00    +0.000 A 
ATOM     11  H   UNL     1       3.993   4.093  15.021  0.00  0.00    +0.000 HD
ENDROOT
BRANCH   2  12
ATOM     12  C   UNL     1       6.760   4.536  14.735  0.00  0.00    +0.000 C 
ATOM     13  O   UNL     1       7.568   5.446  14.608  0.00  0.00    +0.000 OA
BRANCH  12  14
ATOM     14  OXT UNL     1       6.558   3.613  13.768  0.00  0.00    +0.000 OA
ATOM     15  HXT UNL     1       7.090   2.804  13.871  0.00  0.00    +0.000 HD
ENDBRANCH  12  14
ENDBRANCH   2  12
BRANCH   1  16
ATOM     16  C   UNL     1       7.669   4.571  17.797  0.00  0.00    +0.000 C 
BRANCH  16  18
ATOM     17  N   UNL     1       8.098   5.623  19.959  0.00  0.00    +0.000 N 
ATOM     18  C   UNL     1       7.815   5.822  18.640  0.00  0.00    +0.000 C 
ATOM     19  O   UNL     1       7.652   6.955  18.195  0.00  0.00    +0.000 OA
ATOM     20  H   UNL     1       8.128   6.426  20.573  0.00  0.00    +0.000 HD
ATOM     21  H   UNL     1       8.067   4.694  20.377  0.00  0.00    +0.000 HD
ENDBRANCH  16  18
ENDBRANCH   1  16
TORSDOF 4
ENDMDL
MODEL 6
REMARK VINA RESULT:      -7.2      1.256      1.498
REMARK  Name = 
REMARK  4 active torsions:
REMARK  status: ('A' for Active; 'I' for Inactive)
REMARK    1  A    between atoms: C_2  and  C_4
REMARK    2  A    between atoms: C_4  and  C_5
REMARK    3  A    between atoms: CA_6  and  C_7
REMARK    4  A    between atoms: C_7  and  OXT_9
REMARK                            x       y       z     vdW  Elec       q    Type
REMARK                         _______ _______ _______ _____ _____    ______ ____
ROOT
ATOM      1  C   UNL     1       5.222   5.367  17.950  0.00  0.00    +0.000 A 
ATOM      2  CA  UNL     1       6.150   4.559  18.608  0.00  0.00    +0.000 A 
ATOM      3  N   UNL     1       5.448   3.497  19.134  0.00  0.00    +0.000 N 
ATOM      4  C   UNL     1       4.109   3.598  18.851  0.00  0.00    +0.000 A 
ATOM      5  C   UNL     1       3.048   2.750  19.197  0.00  0.00    +0.000 A 
ATOM      6  C   UNL     1       1.776   3.085  18.726  0.00  0.00    +0.000 A 
ATOM      7 CL   UNL     1       0.440   2.073  19.124  0.00  0.00    +0.000 Cl
ATOM      8  C   UNL     1       1.570   4.215  17.941  0.00  0.00    +0.000 A 
ATOM      9  C   UNL     1       2.643   5.055  17.615  0.00  0.00    +0.000 A 
ATOM     10  C   UNL     1       3.937   4.746  18.084  0.00  0.00    +0.000 A 
ATOM     11  H   UNL     1       5.858   2.703  19.609  0.00  0.00    +0.000 HD
ENDROOT
BRANCH   2  12
ATOM     12  C   UNL     1       7.587   4.714  18.659  0.00  0.00    +0.000 C 
ATOM     13  O   UNL     1       8.198   5.327  19.524  0.00  0.00    +0.000 OA
BRANCH  12  14
ATOM     14  OXT UNL     1       8.216   4.107  17.627  0.00  0.00    +0.000 OA
ATOM     15  HXT UNL     1       8.191   4.610  16.794  0.00  0.00    +0.000 HD
ENDBRANCH  12  14
ENDBRANCH   2  12
BRANCH   1  16
ATOM     16  C   UNL     1       5.494   6.667  17.242  0.00  0.00    +0.000 C 
BRANCH  16  18
ATOM     17  N   UNL     1       6.690   5.716  15.336  0.00  0.00    +0.000 N 
ATOM     18  C   UNL     1       5.658   6.509  15.743  0.00  0.00    +0.000 C 
ATOM     19  O   UNL     1       4.943   7.082  14.926  0.00  0.00    +0.000 OA
ATOM     20  H   UNL     1       6.882   5.644  14.346  0.00  0.00    +0.000 HD
ATOM     21  H   UNL     1       7.391   5.374  15.992  0.00  0.00    +0.000 HD
ENDBRANCH  16  18
ENDBRANCH   1  16
TORSDOF 4
ENDMDL
MODEL 7
REMARK VINA RESULT:      -7.1      4.323      5.294
REMARK  Name = 
REMARK  4 active torsions:
REMARK  status: ('A' for Active; 'I' for Inactive)
REMARK    1  A    between atoms: C_2  and  C_4
REMARK    2  A    between atoms: C_4  and  C_5
REMARK    3  A    between atoms: CA_6  and  C_7
REMARK    4  A    between atoms: C_7  and  OXT_9
REMARK                            x       y       z     vdW  Elec       q    Type
REMARK                         _______ _______ _______ _____ _____    ______ ____
ROOT
ATOM      1  C   UNL     1       3.314   4.281  19.462  0.00  0.00    +0.000 A 
ATOM      2  CA  UNL     1       2.473   4.231  20.574  0.00  0.00    +0.000 A 
ATOM      3  N   UNL     1       1.883   5.472  20.681  0.00  0.00    +0.000 N 
ATOM      4  C   UNL     1       2.319   6.316  19.692  0.00  0.00    +0.000 A 
ATOM      5  C   UNL     1       1.986   7.653  19.435  0.00  0.00    +0.000 A 
ATOM      6  C   UNL     1       2.561   8.256  18.313  0.00  0.00    +0.000 A 
ATOM      7 CL   UNL     1       2.180   9.897  17.956  0.00  0.00    +0.000 Cl
ATOM      8  C   UNL     1       3.428   7.556  17.481  0.00  0.00    +0.000 A 
ATOM      9  C   UNL     1       3.755   6.223  17.760  0.00  0.00    +0.000 A 
ATOM     10  C   UNL     1       3.197   5.591  18.891  0.00  0.00    +0.000 A 
ATOM     11  H   UNL     1       1.168   5.722  21.352  0.00  0.00    +0.000 HD
ENDROOT
BRANCH   2  12
ATOM     12  C   UNL     1       2.172   3.092  21.412  0.00  0.00    +0.000 C 
ATOM     13  O   UNL     1       2.993   2.459  22.063  0.00  0.00    +0.000 OA
BRANCH  12  14
ATOM     14  OXT UNL     1       0.858   2.771  21.406  0.00  0.00    +0.000 OA
ATOM     15  HXT UNL     1       0.260   3.538  21.395  0.00  0.00    +0.000 HD
ENDBRANCH  12  14
ENDBRANCH   2  12
BRANCH   1  16
ATOM     16  C   UNL     1       4.205   3.181  18.950  0.00  0.00    +0.000 C 
BRANCH  16  18
ATOM     17  N   UNL     1       3.961   0.818  18.383  0.00  0.00    +0.000 N 
ATOM     18  C   UNL     1       3.443   2.072  18.250  0.00  0.00    +0.000 C 
ATOM     19  O   UNL     1       2.443   2.273  17.567  0.00  0.00    +0.000 OA
ATOM     20  H   UNL     1       3.529   0.061  17.871  0.00  0.00    +0.000 HD
ATOM     21  H   UNL     1       4.877   0.660  18.800  0.00  0.00    +0.000 HD
ENDBRANCH  16  18
ENDBRANCH   1  16
TORSDOF 4
ENDMDL
MODEL 8
REMARK VINA RESULT:      -7.1      1.361      1.442
REMARK  Name = 
REMARK  4 active torsions:
REMARK  status: ('A' for Active; 'I' for Inactive)
REMARK    1  A    between atoms: C_2  and  C_4
REMARK    2  A    between atoms: C_4  and  C_5
REMARK    3  A    between atoms: CA_6  and  C_7
REMARK    4  A    between atoms: C_7  and  OXT_9
REMARK                            x       y       z     vdW  Elec       q    Type
REMARK                         _______ _______ _______ _____ _____    ______ ____
ROOT
ATOM      1  C   UNL     1       5.152   5.465  16.991  0.00  0.00    +0.000 A 
ATOM      2  CA  UNL     1       5.933   5.957  18.036  0.00  0.00    +0.000 A 
ATOM      3  N   UNL     1       5.320   5.566  19.207  0.00  0.00    +0.000 N 
ATOM      4  C   UNL     1       4.174   4.855  18.954  0.00  0.00    +0.000 A 
ATOM      5  C   UNL     1       3.253   4.283  19.842  0.00  0.00    +0.000 A 
ATOM      6  C   UNL     1       2.187   3.567  19.291  0.00  0.00    +0.000 A 
ATOM      7 CL   UNL     1       1.029   2.845  20.343  0.00  0.00    +0.000 Cl
ATOM      8  C   UNL     1       2.046   3.424  17.915  0.00  0.00    +0.000 A 
ATOM      9  C   UNL     1       2.973   4.012  17.044  0.00  0.00    +0.000 A 
ATOM     10  C   UNL     1       4.055   4.748  17.571  0.00  0.00    +0.000 A 
ATOM     11  H   UNL     1       5.689   5.714  20.137  0.00  0.00    +0.000 HD
ENDROOT
BRANCH   2  12
ATOM     12  C   UNL     1       7.198   6.652  17.952  0.00  0.00    +0.000 C 
ATOM     13  O   UNL     1       8.156   6.462  18.691  0.00  0.00    +0.000 OA
BRANCH  12  14
ATOM     14  OXT UNL     1       7.227   7.568  16.958  0.00  0.00    +0.000 OA
ATOM     15  HXT UNL     1       6.527   8.241  17.015  0.00  0.00    +0.000 HD
ENDBRANCH  12  14
ENDBRANCH   2  12
BRANCH   1  16
ATOM     16  C   UNL     1       5.387   5.657  15.517  0.00  0.00    +0.000 C 
BRANCH  16  18
ATOM     17  N   UNL     1       6.273   3.522  14.724  0.00  0.00    +0.000 N 
ATOM     18  C   UNL     1       6.543   4.834  14.983  0.00  0.00    +0.000 C 
ATOM     19  O   UNL     1       7.673   5.287  14.825  0.00  0.00    +0.000 OA
ATOM     20  H   UNL     1       7.033   2.920  14.440  0.00  0.00    +0.000 HD
ATOM     21  H   UNL     1       5.394   3.093  15.010  0.00  0.00    +0.000 HD
ENDBRANCH  16  18
ENDBRANCH   1  16
TORSDOF 4
ENDMDL
MODEL 9
REMARK VINA RESULT:      -7.0      1.869      2.652
REMARK  Name = 
REMARK  4 active torsions:
REMARK  status: ('A' for Active; 'I' for Inactive)
REMARK    1  A    between atoms: C_2  and  C_4
REMARK    2  A    between atoms: C_4  and  C_5
REMARK    3  A    between atoms: CA_6  and  C_7
REMARK    4  A    between atoms: C_7  and  OXT_9
REMARK                            x       y       z     vdW  Elec       q    Type
REMARK                         _______ _______ _______ _____ _____    ______ ____
ROOT
ATOM      1  C   UNL     1       5.193   5.479  17.411  0.00  0.00    +0.000 A 
ATOM      2  CA  UNL     1       5.587   4.297  16.783  0.00  0.00    +0.000 A 
ATOM      3  N   UNL     1       4.872   3.277  17.373  0.00  0.00    +0.000 N 
ATOM      4  C   UNL     1       4.046   3.756  18.359  0.00  0.00    +0.000 A 
ATOM      5  C   UNL     1       3.162   3.073  19.205  0.00  0.00    +0.000 A 
ATOM      6  C   UNL     1       2.405   3.837  20.097  0.00  0.00    +0.000 A 
ATOM      7 CL   UNL     1       1.304   3.043  21.156  0.00  0.00    +0.000 Cl
ATOM      8  C   UNL     1       2.521   5.223  20.142  0.00  0.00    +0.000 A 
ATOM      9  C   UNL     1       3.418   5.885  19.293  0.00  0.00    +0.000 A 
ATOM     10  C   UNL     1       4.202   5.139  18.389  0.00  0.00    +0.000 A 
ATOM     11  H   UNL     1       4.889   2.308  17.083  0.00  0.00    +0.000 HD
ENDROOT
BRANCH   2  12
ATOM     12  C   UNL     1       6.486   4.141  15.661  0.00  0.00    +0.000 C 
ATOM     13  O   UNL     1       6.151   3.800  14.534  0.00  0.00    +0.000 OA
BRANCH  12  14
ATOM     14  OXT UNL     1       7.773   4.404  15.980  0.00  0.00    +0.000 OA
ATOM     15  HXT UNL     1       8.408   4.209  15.269  0.00  0.00    +0.000 HD
ENDBRANCH  12  14
ENDBRANCH   2  12
BRANCH   1  16
ATOM     16  C   UNL     1       5.715   6.864  17.141  0.00  0.00    +0.000 C 
BRANCH  16  18
ATOM     17  N   UNL     1       7.713   8.259  17.319  0.00  0.00    +0.000 N 
ATOM     18  C   UNL     1       7.105   7.100  17.701  0.00  0.00    +0.000 C 
ATOM     19  O   UNL     1       7.684   6.292  18.422  0.00  0.00    +0.000 OA
ATOM     20  H   UNL     1       8.668   8.420  17.608  0.00  0.00    +0.000 HD
ATOM     21  H   UNL     1       7.319   8.854  16.591  0.00  0.00    +0.000 HD
ENDBRANCH  16  18
ENDBRANCH   1  16
TORSDOF 4
ENDMDL
