MODEL 1
REMARK VINA RESULT:      -7.3      0.000      0.000
REMARK  Name = 
REMARK  6 active torsions:
REMARK  status: ('A' for Active; 'I' for Inactive)
REMARK    1  A    between atoms: C_1  and  C_2
REMARK    2  A    between atoms: C_5  and  C_6
REMARK    3  A    between atoms: C_7  and  N_8
REMARK    4  A    between atoms: C_9  and  C_11
REMARK    5  A    between atoms: N_13  and  N_14
REMARK    6  A    between atoms: C_15  and  S_16
REMARK                            x       y       z     vdW  Elec       q    Type
REMARK                         _______ _______ _______ _____ _____    ______ ____
ROOT
ATOM      1  C   UNL     1       0.785   9.509  21.870  0.00  0.00    +0.000 C 
ATOM      2  O   UNL     1       1.684   9.780  22.652  0.00  0.00    +0.000 OA
ATOM      3  N   UNL     1      -0.096  10.362  21.245  0.00  0.00    +0.000 N 
ATOM      4  H   UNL     1      -0.908   9.973  20.770  0.00  0.00    +0.000 HD
ENDROOT
BRANCH   3   5
ATOM      5  N   UNL     1      -0.057  11.736  21.502  0.00  0.00    +0.000 N 
ATOM      6  C   UNL     1       0.593  12.599  20.630  0.00  0.00    +0.000 A 
ATOM      7  N   UNL     1       0.608  13.883  20.764  0.00  0.00    +0.000 NA
ATOM      8  C   UNL     1      -0.070  14.429  21.861  0.00  0.00    +0.000 A 
ATOM      9  C   UNL     1      -0.082  15.822  22.007  0.00  0.00    +0.000 A 
ATOM     10  C   UNL     1      -0.765  16.416  23.081  0.00  0.00    +0.000 A 
ATOM     11  C   UNL     1      -1.416  15.624  24.018  0.00  0.00    +0.000 A 
ATOM     12  C   UNL     1      -1.414  14.236  23.886  0.00  0.00    +0.000 A 
ATOM     13  C   UNL     1      -0.751  13.655  22.798  0.00  0.00    +0.000 A 
ATOM     14  C   UNL     1      -0.801  12.200  22.581  0.00  0.00    +0.000 A 
ATOM     15  O   UNL     1      -1.511  11.493  23.297  0.00  0.00    +0.000 OA
BRANCH   6  16
ATOM     16  S   UNL     1       1.419  11.926  19.239  0.00  0.00    +0.000 S 
ATOM     17  H   UNL     1       0.383  11.248  18.739  0.00  0.00    +0.000 HD
ENDBRANCH   6  16
ENDBRANCH   3   5
BRANCH   1  19
ATOM     18  N   UNL     1       1.815   7.579  20.871  0.00  0.00    +0.000 N 
ATOM     19  C   UNL     1       0.627   8.086  21.338  0.00  0.00    +0.000 C 
ATOM     20  O   UNL     1      -0.490   7.588  21.312  0.00  0.00    +0.000 OA
ATOM     21  H   UNL     1       2.650   8.045  21.214  0.00  0.00    +0.000 HD
BRANCH  18  28
ATOM     22  C   UNL     1       1.454   2.657  20.513  0.00  0.00    +0.000 C 
ATOM     23  C   UNL     1       1.796   3.986  19.910  0.00  0.00    +0.000 A 
ATOM     24  C   UNL     1       2.180   4.092  18.568  0.00  0.00    +0.000 A 
ATOM     25  C   UNL     1       2.428   5.344  18.003  0.00  0.00    +0.000 A 
ATOM     26  C   UNL     1       2.301   6.514  18.756  0.00  0.00    +0.000 A 
ATOM     27  C   UNL     1       2.594   7.846  18.120  0.00  0.00    +0.000 C 
ATOM     28  C   UNL     1       1.951   6.408  20.113  0.00  0.00    +0.000 A 
ATOM     29  C   UNL     1       1.704   5.150  20.679  0.00  0.00    +0.000 A 
ENDBRANCH  18  28
ENDBRANCH   1  19
TORSDOF 4
ENDMDL
MODEL 2
REMARK VINA RESULT:      -7.0      2.524      3.333
REMARK  Name = 
REMARK  6 active torsions:
REMARK  status: ('A' for Active; 'I' for Inactive)
REMARK    1  A    between atoms: C_1  and  C_2
REMARK    2  A    between atoms: C_5  and  C_6
REMARK    3  A    between atoms: C_7  and  N_8
REMARK    4  A    between atoms: C_9  and  C_11
REMARK    5  A    between atoms: N_13  and  N_14
REMARK    6  A    between atoms: C_15  and  S_16
REMARK                            x       y       z     vdW  Elec       q    Type
REMARK                         _______ _______ _______ _____ _____    ______ ____
ROOT
ATOM      1  C   UNL     1       1.653   9.579  18.593  0.00  0.00    +0.000 C 
ATOM      2  O   UNL     1       2.056  10.648  18.159  0.00  0.00    +0.000 OA
ATOM      3  N   UNL     1       0.542   9.330  19.366  0.00  0.00    +0.000 N 
ATOM      4  H   UNL     1       0.442   8.418  19.806  0.00  0.00    +0.000 HD
ENDROOT
BRANCH   3   5
ATOM      5  N   UNL     1      -0.278  10.381  19.789  0.00  0.00    +0.000 N 
ATOM      6  C   UNL     1      -1.345  10.802  19.007  0.00  0.00    +0.000 A 
ATOM      7  N   UNL     1      -2.186  11.714  19.366  0.00  0.00    +0.000 NA
ATOM      8  C   UNL     1      -1.999  12.312  20.619  0.00  0.00    +0.000 A 
ATOM      9  C   UNL     1      -2.917  13.287  21.031  0.00  0.00    +0.000 A 
ATOM     10  C   UNL     1      -2.781  13.901  22.286  0.00  0.00    +0.000 A 
ATOM     11  C   UNL     1      -1.723  13.561  23.120  0.00  0.00    +0.000 A 
ATOM     12  C   UNL     1      -0.802  12.592  22.723  0.00  0.00    +0.000 A 
ATOM     13  C   UNL     1      -0.961  11.967  21.480  0.00  0.00    +0.000 A 
ATOM     14  C   UNL     1      -0.057  10.881  21.067  0.00  0.00    +0.000 A 
ATOM     15  O   UNL     1       0.782  10.444  21.854  0.00  0.00    +0.000 OA
BRANCH   6  16
ATOM     16  S   UNL     1      -1.603  10.038  17.452  0.00  0.00    +0.000 S 
ATOM     17  H   UNL     1      -2.397   9.052  17.877  0.00  0.00    +0.000 HD
ENDBRANCH   6  16
ENDBRANCH   3   5
BRANCH   1  19
ATOM     18  N   UNL     1       2.370   7.361  19.184  0.00  0.00    +0.000 N 
ATOM     19  C   UNL     1       2.313   8.272  18.158  0.00  0.00    +0.000 C 
ATOM     20  O   UNL     1       2.766   8.191  17.025  0.00  0.00    +0.000 OA
ATOM     21  H   UNL     1       1.723   7.528  19.949  0.00  0.00    +0.000 HD
BRANCH  18  28
ATOM     22  C   UNL     1       6.487   4.925  17.922  0.00  0.00    +0.000 C 
ATOM     23  C   UNL     1       5.128   4.946  18.552  0.00  0.00    +0.000 A 
ATOM     24  C   UNL     1       4.615   3.818  19.203  0.00  0.00    +0.000 A 
ATOM     25  C   UNL     1       3.377   3.876  19.844  0.00  0.00    +0.000 A 
ATOM     26  C   UNL     1       2.623   5.052  19.854  0.00  0.00    +0.000 A 
ATOM     27  C   UNL     1       1.283   5.074  20.540  0.00  0.00    +0.000 C 
ATOM     28  C   UNL     1       3.119   6.177  19.171  0.00  0.00    +0.000 A 
ATOM     29  C   UNL     1       4.360   6.116  18.526  0.00  0.00    +0.000 A 
ENDBRANCH  18  28
ENDBRANCH   1  19
TORSDOF 4
ENDMDL
MODEL 3
REMARK VINA RESULT:      -7.0      2.396      3.224
REMARK  Name = 
REMARK  6 active torsions:
REMARK  status: ('A' for Active; 'I' for Inactive)
REMARK    1  A    between atoms: C_1  and  C_2
REMARK    2  A    between atoms: C_5  and  C_6
REMARK    3  A    between atoms: C_7  and  N_8
REMARK    4  A    between atoms: C_9  and  C_11
REMARK    5  A    between atoms: N_13  and  N_14
REMARK    6  A    between atoms: C_15  and  S_16
REMARK                            x       y       z     vdW  Elec       q    Type
REMARK                         _______ _______ _______ _____ _____    ______ ____
ROOT
ATOM      1  C   UNL     1       0.684  10.469  20.832  0.00  0.00    +0.000 C 
ATOM      2  O   UNL     1       1.057  11.079  21.822  0.00  0.00    +0.000 OA
ATOM      3  N   UNL     1       0.336  10.967  19.597  0.00  0.00    +0.000 N 
ATOM      4  H   UNL     1      -0.135  10.356  18.933  0.00  0.00    +0.000 HD
ENDROOT
BRANCH   3   5
ATOM      5  N   UNL     1       0.347  12.345  19.359  0.00  0.00    +0.000 N 
ATOM      6  C   UNL     1      -0.739  13.132  19.719  0.00  0.00    +0.000 A 
ATOM      7  N   UNL     1      -0.768  14.418  19.598  0.00  0.00    +0.000 NA
ATOM      8  C   UNL     1       0.365  15.046  19.064  0.00  0.00    +0.000 A 
ATOM      9  C   UNL     1       0.355  16.441  18.948  0.00  0.00    +0.000 A 
ATOM     10  C   UNL     1       1.475  17.117  18.436  0.00  0.00    +0.000 A 
ATOM     11  C   UNL     1       2.593  16.403  18.022  0.00  0.00    +0.000 A 
ATOM     12  C   UNL     1       2.617  15.014  18.133  0.00  0.00    +0.000 A 
ATOM     13  C   UNL     1       1.505  14.351  18.668  0.00  0.00    +0.000 A 
ATOM     14  C   UNL     1       1.530  12.894  18.878  0.00  0.00    +0.000 A 
ATOM     15  O   UNL     1       2.567  12.261  18.681  0.00  0.00    +0.000 OA
BRANCH   6  16
ATOM     16  S   UNL     1      -2.147  12.357  20.414  0.00  0.00    +0.000 S 
ATOM     17  H   UNL     1      -1.501  11.394  21.076  0.00  0.00    +0.000 HD
ENDBRANCH   6  16
ENDBRANCH   3   5
BRANCH   1  19
ATOM     18  N   UNL     1       1.837   8.459  20.187  0.00  0.00    +0.000 N 
ATOM     19  C   UNL     1       0.712   8.941  20.809  0.00  0.00    +0.000 C 
ATOM     20  O   UNL     1      -0.248   8.329  21.255  0.00  0.00    +0.000 OA
ATOM     21  H   UNL     1       2.610   9.114  20.120  0.00  0.00    +0.000 HD
BRANCH  18  28
ATOM     22  C   UNL     1       1.537   3.625  21.199  0.00  0.00    +0.000 C 
ATOM     23  C   UNL     1       1.915   4.741  20.273  0.00  0.00    +0.000 A 
ATOM     24  C   UNL     1       2.397   4.479  18.986  0.00  0.00    +0.000 A 
ATOM     25  C   UNL     1       2.679   5.530  18.111  0.00  0.00    +0.000 A 
ATOM     26  C   UNL     1       2.488   6.860  18.495  0.00  0.00    +0.000 A 
ATOM     27  C   UNL     1       2.819   7.969  17.532  0.00  0.00    +0.000 C 
ATOM     28  C   UNL     1       2.037   7.127  19.799  0.00  0.00    +0.000 A 
ATOM     29  C   UNL     1       1.758   6.072  20.676  0.00  0.00    +0.000 A 
ENDBRANCH  18  28
ENDBRANCH   1  19
TORSDOF 4
ENDMDL
MODEL 4
REMARK VINA RESULT:      -6.9      2.886      3.733
REMARK  Name = 
REMARK  6 active torsions:
REMARK  status: ('A' for Active; 'I' for Inactive)
REMARK    1  A    between atoms: C_1  and  C_2
REMARK    2  A    between atoms: C_5  and  C_6
REMARK    3  A    between atoms: C_7  and  N_8
REMARK    4  A    between atoms: C_9  and  C_11
REMARK    5  A    between atoms: N_13  and  N_14
REMARK    6  A    between atoms: C_15  and  S_16
REMARK                            x       y       z     vdW  Elec       q    Type
REMARK                         _______ _______ _______ _____ _____    ______ ____
ROOT
ATOM      1  C   UNL     1       1.176   9.394  18.946  0.00  0.00    +0.000 C 
ATOM      2  O   UNL     1       1.078   9.104  20.129  0.00  0.00    +0.000 OA
ATOM      3  N   UNL     1       0.662  10.486  18.285  0.00  0.00    +0.000 N 
ATOM      4  H   UNL     1       0.666  10.494  17.268  0.00  0.00    +0.000 HD
ENDROOT
BRANCH   3   5
ATOM      5  N   UNL     1      -0.117  11.426  18.967  0.00  0.00    +0.000 N 
ATOM      6  C   UNL     1       0.459  12.583  19.478  0.00  0.00    +0.000 A 
ATOM      7  N   UNL     1      -0.210  13.527  20.052  0.00  0.00    +0.000 NA
ATOM      8  C   UNL     1      -1.596  13.363  20.168  0.00  0.00    +0.000 A 
ATOM      9  C   UNL     1      -2.336  14.389  20.769  0.00  0.00    +0.000 A 
ATOM     10  C   UNL     1      -3.731  14.279  20.891  0.00  0.00    +0.000 A 
ATOM     11  C   UNL     1      -4.384  13.141  20.434  0.00  0.00    +0.000 A 
ATOM     12  C   UNL     1      -3.660  12.112  19.832  0.00  0.00    +0.000 A 
ATOM     13  C   UNL     1      -2.273  12.243  19.694  0.00  0.00    +0.000 A 
ATOM     14  C   UNL     1      -1.491  11.214  18.989  0.00  0.00    +0.000 A 
ATOM     15  O   UNL     1      -2.063  10.282  18.425  0.00  0.00    +0.000 OA
BRANCH   6  16
ATOM     16  S   UNL     1       2.188  12.807  19.311  0.00  0.00    +0.000 S 
ATOM     17  H   UNL     1       2.561  11.634  19.829  0.00  0.00    +0.000 HD
ENDBRANCH   6  16
ENDBRANCH   3   5
BRANCH   1  19
ATOM     18  N   UNL     1       2.310   7.319  18.507  0.00  0.00    +0.000 N 
ATOM     19  C   UNL     1       2.087   8.585  18.025  0.00  0.00    +0.000 C 
ATOM     20  O   UNL     1       2.562   9.133  17.040  0.00  0.00    +0.000 OA
ATOM     21  H   UNL     1       1.632   6.989  19.188  0.00  0.00    +0.000 HD
BRANCH  18  28
ATOM     22  C   UNL     1       6.991   6.401  17.196  0.00  0.00    +0.000 C 
ATOM     23  C   UNL     1       5.571   5.950  17.357  0.00  0.00    +0.000 A 
ATOM     24  C   UNL     1       5.202   4.624  17.105  0.00  0.00    +0.000 A 
ATOM     25  C   UNL     1       3.889   4.203  17.327  0.00  0.00    +0.000 A 
ATOM     26  C   UNL     1       2.919   5.088  17.803  0.00  0.00    +0.000 A 
ATOM     27  C   UNL     1       1.508   4.605  18.013  0.00  0.00    +0.000 C 
ATOM     28  C   UNL     1       3.278   6.429  18.023  0.00  0.00    +0.000 A 
ATOM     29  C   UNL     1       4.595   6.850  17.798  0.00  0.00    +0.000 A 
ENDBRANCH  18  28
ENDBRANCH   1  19
TORSDOF 4
ENDMDL
MODEL 5
REMARK VINA RESULT:      -6.9      1.627      2.349
REMARK  Name = 
REMARK  6 active torsions:
REMARK  status: ('A' for Active; 'I' for Inactive)
REMARK    1  A    between atoms: C_1  and  C_2
REMARK    2  A    between atoms: C_5  and  C_6
REMARK    3  A    between atoms: C_7  and  N_8
REMARK    4  A    between atoms: C_9  and  C_11
REMARK    5  A    between atoms: N_13  and  N_14
REMARK    6  A    between atoms: C_15  and  S_16
REMARK                            x       y       z     vdW  Elec       q    Type
REMARK                         _______ _______ _______ _____ _____    ______ ____
ROOT
ATOM      1  C   UNL     1       0.915   9.689  21.652  0.00  0.00    +0.000 C 
ATOM      2  O   UNL     1       1.779   9.958  22.473  0.00  0.00    +0.000 OA
ATOM      3  N   UNL     1       0.119  10.548  20.930  0.00  0.00    +0.000 N 
ATOM      4  H   UNL     1      -0.682  10.175  20.427  0.00  0.00    +0.000 HD
ENDROOT
BRANCH   3   5
ATOM      5  N   UNL     1       0.216  11.931  21.117  0.00  0.00    +0.000 N 
ATOM      6  C   UNL     1      -0.506  12.559  22.123  0.00  0.00    +0.000 A 
ATOM      7  N   UNL     1      -0.410  13.817  22.401  0.00  0.00    +0.000 NA
ATOM      8  C   UNL     1       0.473  14.586  21.632  0.00  0.00    +0.000 A 
ATOM      9  C   UNL     1       0.603  15.947  21.937  0.00  0.00    +0.000 A 
ATOM     10  C   UNL     1       1.490  16.755  21.205  0.00  0.00    +0.000 A 
ATOM     11  C   UNL     1       2.228  16.213  20.161  0.00  0.00    +0.000 A 
ATOM     12  C   UNL     1       2.109  14.860  19.847  0.00  0.00    +0.000 A 
ATOM     13  C   UNL     1       1.241  14.058  20.598  0.00  0.00    +0.000 A 
ATOM     14  C   UNL     1       1.155  12.610  20.348  0.00  0.00    +0.000 A 
ATOM     15  O   UNL     1       1.921  12.075  19.547  0.00  0.00    +0.000 OA
BRANCH   6  16
ATOM     16  S   UNL     1      -1.590  11.598  23.108  0.00  0.00    +0.000 S 
ATOM     17  H   UNL     1      -0.773  10.558  23.292  0.00  0.00    +0.000 HD
ENDBRANCH   6  16
ENDBRANCH   3   5
BRANCH   1  19
ATOM     18  N   UNL     1       1.884   7.684  20.744  0.00  0.00    +0.000 N 
ATOM     19  C   UNL     1       0.714   8.248  21.187  0.00  0.00    +0.000 C 
ATOM     20  O   UNL     1      -0.418   7.784  21.184  0.00  0.00    +0.000 OA
ATOM     21  H   UNL     1       2.734   8.140  21.064  0.00  0.00    +0.000 HD
BRANCH  18  28
ATOM     22  C   UNL     1       1.305   2.773  20.591  0.00  0.00    +0.000 C 
ATOM     23  C   UNL     1       1.723   4.056  19.939  0.00  0.00    +0.000 A 
ATOM     24  C   UNL     1       2.142   4.086  18.604  0.00  0.00    +0.000 A 
ATOM     25  C   UNL     1       2.461   5.299  17.992  0.00  0.00    +0.000 A 
ATOM     26  C   UNL     1       2.370   6.505  18.690  0.00  0.00    +0.000 A 
ATOM     27  C   UNL     1       2.740   7.794  18.004  0.00  0.00    +0.000 C 
ATOM     28  C   UNL     1       1.984   6.476  20.041  0.00  0.00    +0.000 A 
ATOM     29  C   UNL     1       1.667   5.257  20.655  0.00  0.00    +0.000 A 
ENDBRANCH  18  28
ENDBRANCH   1  19
TORSDOF 4
ENDMDL
MODEL 6
REMARK VINA RESULT:      -6.8      2.682      3.614
REMARK  Name = 
REMARK  6 active torsions:
REMARK  status: ('A' for Active; 'I' for Inactive)
REMARK    1  A    between atoms: C_1  and  C_2
REMARK    2  A    between atoms: C_5  and  C_6
REMARK    3  A    between atoms: C_7  and  N_8
REMARK    4  A    between atoms: C_9  and  C_11
REMARK    5  A    between atoms: N_13  and  N_14
REMARK    6  A    between atoms: C_15  and  S_16
REMARK                            x       y       z     vdW  Elec       q    Type
REMARK                         _______ _______ _______ _____ _____    ______ ____
ROOT
ATOM      1  C   UNL     1       1.158   9.256  18.911  0.00  0.00    +0.000 C 
ATOM      2  O   UNL     1       0.988   8.881  20.061  0.00  0.00    +0.000 OA
ATOM      3  N   UNL     1       0.691  10.399  18.303  0.00  0.00    +0.000 N 
ATOM      4  H   UNL     1       0.755  10.481  17.291  0.00  0.00    +0.000 HD
ENDROOT
BRANCH   3   5
ATOM      5  N   UNL     1      -0.123  11.294  19.004  0.00  0.00    +0.000 N 
ATOM      6  C   UNL     1      -1.504  11.252  18.862  0.00  0.00    +0.000 A 
ATOM      7  N   UNL     1      -2.320  11.997  19.532  0.00  0.00    +0.000 NA
ATOM      8  C   UNL     1      -1.770  12.900  20.450  0.00  0.00    +0.000 A 
ATOM      9  C   UNL     1      -2.644  13.697  21.199  0.00  0.00    +0.000 A 
ATOM     10  C   UNL     1      -2.140  14.605  22.145  0.00  0.00    +0.000 A 
ATOM     11  C   UNL     1      -0.769  14.732  22.330  0.00  0.00    +0.000 A 
ATOM     12  C   UNL     1       0.113  13.944  21.592  0.00  0.00    +0.000 A 
ATOM     13  C   UNL     1      -0.400  13.025  20.668  0.00  0.00    +0.000 A 
ATOM     14  C   UNL     1       0.498  12.119  19.935  0.00  0.00    +0.000 A 
ATOM     15  O   UNL     1       1.700  12.091  20.202  0.00  0.00    +0.000 OA
BRANCH   6  16
ATOM     16  S   UNL     1      -2.200  10.105  17.737  0.00  0.00    +0.000 S 
ATOM     17  H   UNL     1      -2.010  10.821  16.626  0.00  0.00    +0.000 HD
ENDBRANCH   6  16
ENDBRANCH   3   5
BRANCH   1  19
ATOM     18  N   UNL     1       2.362   7.231  18.428  0.00  0.00    +0.000 N 
ATOM     19  C   UNL     1       2.119   8.508  17.988  0.00  0.00    +0.000 C 
ATOM     20  O   UNL     1       2.608   9.106  17.040  0.00  0.00    +0.000 OA
ATOM     21  H   UNL     1       1.674   6.856  19.075  0.00  0.00    +0.000 HD
BRANCH  18  28
ATOM     22  C   UNL     1       7.095   6.504  17.185  0.00  0.00    +0.000 C 
ATOM     23  C   UNL     1       5.689   6.002  17.308  0.00  0.00    +0.000 A 
ATOM     24  C   UNL     1       5.369   4.671  17.016  0.00  0.00    +0.000 A 
ATOM     25  C   UNL     1       4.068   4.201  17.203  0.00  0.00    +0.000 A 
ATOM     26  C   UNL     1       3.060   5.040  17.682  0.00  0.00    +0.000 A 
ATOM     27  C   UNL     1       1.663   4.505  17.853  0.00  0.00    +0.000 C 
ATOM     28  C   UNL     1       3.368   6.386  17.941  0.00  0.00    +0.000 A 
ATOM     29  C   UNL     1       4.674   6.857  17.751  0.00  0.00    +0.000 A 
ENDBRANCH  18  28
ENDBRANCH   1  19
TORSDOF 4
ENDMDL
MODEL 7
REMARK VINA RESULT:      -6.8      1.711      1.840
REMARK  Name = 
REMARK  6 active torsions:
REMARK  status: ('A' for Active; 'I' for Inactive)
REMARK    1  A    between atoms: C_1  and  C_2
REMARK    2  A    between atoms: C_5  and  C_6
REMARK    3  A    between atoms: C_7  and  N_8
REMARK    4  A    between atoms: C_9  and  C_11
REMARK    5  A    between atoms: N_13  and  N_14
REMARK    6  A    between atoms: C_15  and  S_16
REMARK                            x       y       z     vdW  Elec       q    Type
REMARK                         _______ _______ _______ _____ _____    ______ ____
ROOT
ATOM      1  C   UNL     1       0.709  10.040  21.113  0.00  0.00    +0.000 C 
ATOM      2  O   UNL     1       1.335  10.619  21.988  0.00  0.00    +0.000 OA
ATOM      3  N   UNL     1       0.047  10.576  20.032  0.00  0.00    +0.000 N 
ATOM      4  H   UNL     1      -0.585   9.985  19.497  0.00  0.00    +0.000 HD
ENDROOT
BRANCH   3   5
ATOM      5  N   UNL     1       0.001  11.961  19.845  0.00  0.00    +0.000 N 
ATOM      6  C   UNL     1       0.900  12.588  18.991  0.00  0.00    +0.000 A 
ATOM      7  N   UNL     1       0.870  13.849  18.713  0.00  0.00    +0.000 NA
ATOM      8  C   UNL     1      -0.128  14.623  19.319  0.00  0.00    +0.000 A 
ATOM      9  C   UNL     1      -0.186  15.988  19.009  0.00  0.00    +0.000 A 
ATOM     10  C   UNL     1      -1.180  16.801  19.577  0.00  0.00    +0.000 A 
ATOM     11  C   UNL     1      -2.101  16.261  20.466  0.00  0.00    +0.000 A 
ATOM     12  C   UNL     1      -2.056  14.904  20.782  0.00  0.00    +0.000 A 
ATOM     13  C   UNL     1      -1.076  14.097  20.192  0.00  0.00    +0.000 A 
ATOM     14  C   UNL     1      -1.053  12.646  20.438  0.00  0.00    +0.000 A 
ATOM     15  O   UNL     1      -1.957  12.115  21.083  0.00  0.00    +0.000 OA
BRANCH   6  16
ATOM     16  S   UNL     1       2.132  11.620  18.208  0.00  0.00    +0.000 S 
ATOM     17  H   UNL     1       1.913  10.489  18.883  0.00  0.00    +0.000 HD
ENDBRANCH   6  16
ENDBRANCH   3   5
BRANCH   1  19
ATOM     18  N   UNL     1       1.862   8.043  20.429  0.00  0.00    +0.000 N 
ATOM     19  C   UNL     1       0.724   8.514  21.033  0.00  0.00    +0.000 C 
ATOM     20  O   UNL     1      -0.255   7.896  21.427  0.00  0.00    +0.000 OA
ATOM     21  H   UNL     1       2.644   8.692  20.409  0.00  0.00    +0.000 HD
BRANCH  18  28
ATOM     22  C   UNL     1       1.453   3.178  21.233  0.00  0.00    +0.000 C 
ATOM     23  C   UNL     1       1.887   4.324  20.370  0.00  0.00    +0.000 A 
ATOM     24  C   UNL     1       2.422   4.106  19.095  0.00  0.00    +0.000 A 
ATOM     25  C   UNL     1       2.756   5.186  18.276  0.00  0.00    +0.000 A 
ATOM     26  C   UNL     1       2.566   6.502  18.704  0.00  0.00    +0.000 A 
ATOM     27  C   UNL     1       2.955   7.643  17.802  0.00  0.00    +0.000 C 
ATOM     28  C   UNL     1       2.062   6.725  19.997  0.00  0.00    +0.000 A 
ATOM     29  C   UNL     1       1.730   5.640  20.818  0.00  0.00    +0.000 A 
ENDBRANCH  18  28
ENDBRANCH   1  19
TORSDOF 4
ENDMDL
MODEL 8
REMARK VINA RESULT:      -6.8      2.148      2.638
REMARK  Name = 
REMARK  6 active torsions:
REMARK  status: ('A' for Active; 'I' for Inactive)
REMARK    1  A    between atoms: C_1  and  C_2
REMARK    2  A    between atoms: C_5  and  C_6
REMARK    3  A    between atoms: C_7  and  N_8
REMARK    4  A    between atoms: C_9  and  C_11
REMARK    5  A    between atoms: N_13  and  N_14
REMARK    6  A    between atoms: C_15  and  S_16
REMARK                            x       y       z     vdW  Elec       q    Type
REMARK                         _______ _______ _______ _____ _____    ______ ____
ROOT
ATOM      1  C   UNL     1       0.402  10.361  21.258  0.00  0.00    +0.000 C 
ATOM      2  O   UNL     1       1.344  10.974  21.737  0.00  0.00    +0.000 OA
ATOM      3  N   UNL     1      -0.747  10.859  20.688  0.00  0.00    +0.000 N 
ATOM      4  H   UNL     1      -1.523  10.227  20.506  0.00  0.00    +0.000 HD
ENDROOT
BRANCH   3   5
ATOM      5  N   UNL     1      -0.972  12.239  20.636  0.00  0.00    +0.000 N 
ATOM      6  C   UNL     1      -1.616  12.889  21.680  0.00  0.00    +0.000 A 
ATOM      7  N   UNL     1      -1.792  14.167  21.734  0.00  0.00    +0.000 NA
ATOM      8  C   UNL     1      -1.306  14.935  20.668  0.00  0.00    +0.000 A 
ATOM      9  C   UNL     1      -1.470  16.325  20.724  0.00  0.00    +0.000 A 
ATOM     10  C   UNL     1      -0.983  17.137  19.687  0.00  0.00    +0.000 A 
ATOM     11  C   UNL     1      -0.352  16.566  18.589  0.00  0.00    +0.000 A 
ATOM     12  C   UNL     1      -0.181  15.184  18.520  0.00  0.00    +0.000 A 
ATOM     13  C   UNL     1      -0.649  14.384  19.571  0.00  0.00    +0.000 A 
ATOM     14  C   UNL     1      -0.409  12.932  19.570  0.00  0.00    +0.000 A 
ATOM     15  O   UNL     1       0.294  12.423  18.697  0.00  0.00    +0.000 OA
BRANCH   6  16
ATOM     16  S   UNL     1      -2.201  11.939  23.030  0.00  0.00    +0.000 S 
ATOM     17  H   UNL     1      -3.117  11.236  22.358  0.00  0.00    +0.000 HD
ENDBRANCH   6  16
ENDBRANCH   3   5
BRANCH   1  19
ATOM     18  N   UNL     1       1.640   8.453  20.476  0.00  0.00    +0.000 N 
ATOM     19  C   UNL     1       0.475   8.844  21.087  0.00  0.00    +0.000 C 
ATOM     20  O   UNL     1      -0.487   8.168  21.423  0.00  0.00    +0.000 OA
ATOM     21  H   UNL     1       2.397   9.129  20.511  0.00  0.00    +0.000 HD
BRANCH  18  28
ATOM     22  C   UNL     1       1.561   3.539  21.052  0.00  0.00    +0.000 C 
ATOM     23  C   UNL     1       1.882   4.749  20.228  0.00  0.00    +0.000 A 
ATOM     24  C   UNL     1       2.365   4.625  18.920  0.00  0.00    +0.000 A 
ATOM     25  C   UNL     1       2.593   5.761  18.142  0.00  0.00    +0.000 A 
ATOM     26  C   UNL     1       2.347   7.041  18.644  0.00  0.00    +0.000 A 
ATOM     27  C   UNL     1       2.621   8.246  17.784  0.00  0.00    +0.000 C 
ATOM     28  C   UNL     1       1.896   7.171  19.970  0.00  0.00    +0.000 A 
ATOM     29  C   UNL     1       1.670   6.030  20.750  0.00  0.00    +0.000 A 
ENDBRANCH  18  28
ENDBRANCH   1  19
TORSDOF 4
ENDMDL
MODEL 9
REMARK VINA RESULT:      -6.8      2.515      3.389
REMARK  Name = 
REMARK  6 active torsions:
REMARK  status: ('A' for Active; 'I' for Inactive)
REMARK    1  A    between atoms: C_1  and  C_2
REMARK    2  A    between atoms: C_5  and  C_6
REMARK    3  A    between atoms: C_7  and  N_8
REMARK    4  A    between atoms: C_9  and  C_11
REMARK    5  A    between atoms: N_13  and  N_14
REMARK    6  A    between atoms: C_15  and  S_16
REMARK                            x       y       z     vdW  Elec       q    Type
REMARK                         _______ _______ _______ _____ _____    ______ ____
ROOT
ATOM      1  C   UNL     1       1.208  10.073  19.346  0.00  0.00    +0.000 C 
ATOM      2  O   UNL     1       1.722  11.181  19.296  0.00  0.00    +0.000 OA
ATOM      3  N   UNL     1       0.098   9.672  20.054  0.00  0.00    +0.000 N 
ATOM      4  H   UNL     1      -0.097   8.678  20.145  0.00  0.00    +0.000 HD
ENDROOT
BRANCH   3   5
ATOM      5  N   UNL     1      -0.579  10.574  20.881  0.00  0.00    +0.000 N 
ATOM      6  C   UNL     1      -0.317  10.613  22.245  0.00  0.00    +0.000 A 
ATOM      7  N   UNL     1      -0.849  11.467  23.055  0.00  0.00    +0.000 NA
ATOM      8  C   UNL     1      -1.746  12.399  22.520  0.00  0.00    +0.000 A 
ATOM      9  C   UNL     1      -2.313  13.345  23.385  0.00  0.00    +0.000 A 
ATOM     10  C   UNL     1      -3.203  14.312  22.890  0.00  0.00    +0.000 A 
ATOM     11  C   UNL     1      -3.544  14.325  21.543  0.00  0.00    +0.000 A 
ATOM     12  C   UNL     1      -2.987  13.390  20.671  0.00  0.00    +0.000 A 
ATOM     13  C   UNL     1      -2.081  12.446  21.169  0.00  0.00    +0.000 A 
ATOM     14  C   UNL     1      -1.410  11.500  20.262  0.00  0.00    +0.000 A 
ATOM     15  O   UNL     1      -1.563  11.600  19.045  0.00  0.00    +0.000 OA
BRANCH   6  16
ATOM     16  S   UNL     1       0.825   9.468  22.916  0.00  0.00    +0.000 S 
ATOM     17  H   UNL     1       1.931  10.185  22.698  0.00  0.00    +0.000 HD
ENDBRANCH   6  16
ENDBRANCH   3   5
BRANCH   1  19
ATOM     18  N   UNL     1       2.109   7.853  19.135  0.00  0.00    +0.000 N 
ATOM     19  C   UNL     1       1.695   8.954  18.427  0.00  0.00    +0.000 C 
ATOM     20  O   UNL     1       1.737   9.159  17.222  0.00  0.00    +0.000 OA
ATOM     21  H   UNL     1       1.758   7.793  20.087  0.00  0.00    +0.000 HD
BRANCH  18  28
ATOM     22  C   UNL     1       5.441   6.100  15.926  0.00  0.00    +0.000 C 
ATOM     23  C   UNL     1       4.448   5.875  17.025  0.00  0.00    +0.000 A 
ATOM     24  C   UNL     1       4.269   4.607  17.589  0.00  0.00    +0.000 A 
ATOM     25  C   UNL     1       3.390   4.429  18.659  0.00  0.00    +0.000 A 
ATOM     26  C   UNL     1       2.672   5.502  19.190  0.00  0.00    +0.000 A 
ATOM     27  C   UNL     1       1.719   5.271  20.332  0.00  0.00    +0.000 C 
ATOM     28  C   UNL     1       2.822   6.771  18.602  0.00  0.00    +0.000 A 
ATOM     29  C   UNL     1       3.702   6.947  17.527  0.00  0.00    +0.000 A 
ENDBRANCH  18  28
ENDBRANCH   1  19
TORSDOF 4
ENDMDL
