MODEL 1
REMARK VINA RESULT:      -7.4      0.000      0.000
REMARK  Name = 
REMARK  3 active torsions:
REMARK  status: ('A' for Active; 'I' for Inactive)
REMARK    1  A    between atoms: S_2  and  C_4
REMARK    2  A    between atoms: S_2  and  C_12
REMARK    3  A    between atoms: C_5  and  C_6
REMARK                            x       y       z     vdW  Elec       q    Type
REMARK                         _______ _______ _______ _____ _____    ______ ____
ROOT
ATOM      1  O   UNL     1       5.674   5.775  18.565  0.00  0.00    +0.000 OA
ATOM      2  S   UNL     1       4.543   5.990  17.685  0.00  0.00    +0.000 S 
ATOM      3  O   UNL     1       3.749   7.203  17.784  0.00  0.00    +0.000 OA
ENDROOT
BRANCH   2   4
ATOM      4  C   UNL     1       3.437   4.619  17.969  0.00  0.00    +0.000 A 
ATOM      5  C   UNL     1       2.057   4.851  17.951  0.00  0.00    +0.000 A 
ATOM      6  C   UNL     1       1.176   3.790  18.165  0.00  0.00    +0.000 A 
ATOM      7  C   UNL     1       1.673   2.505  18.377  0.00  0.00    +0.000 A 
ATOM      8  C   UNL     1       3.049   2.286  18.371  0.00  0.00    +0.000 A 
ATOM      9  F   UNL     1       3.514   1.045  18.563  0.00  0.00    +0.000 F 
ATOM     10  C   UNL     1       3.943   3.331  18.170  0.00  0.00    +0.000 A 
ENDBRANCH   2   4
BRANCH   2  11
ATOM     11  C   UNL     1       5.055   5.782  16.045  0.00  0.00    +0.000 C 
ATOM     12  C   UNL     1       6.049   4.933  15.738  0.00  0.00    +0.000 C 
BRANCH  12  13
ATOM     13  C   UNL     1       6.501   4.718  14.356  0.00  0.00    +0.000 A 
ATOM     14  C   UNL     1       5.896   3.764  13.544  0.00  0.00    +0.000 A 
ATOM     15  C   UNL     1       6.382   3.577  12.250  0.00  0.00    +0.000 A 
ATOM     16  C   UNL     1       7.444   4.352  11.801  0.00  0.00    +0.000 A 
ATOM     17  C   UNL     1       7.977   5.290  12.668  0.00  0.00    +0.000 A 
ATOM     18  N   UNL     1       7.535   5.482  13.930  0.00  0.00    +0.000 NA
ENDBRANCH  12  13
ENDBRANCH   2  11
TORSDOF 3
ENDMDL
MODEL 2
REMARK VINA RESULT:      -7.4      2.666      6.460
REMARK  Name = 
REMARK  3 active torsions:
REMARK  status: ('A' for Active; 'I' for Inactive)
REMARK    1  A    between atoms: S_2  and  C_4
REMARK    2  A    between atoms: S_2  and  C_12
REMARK    3  A    between atoms: C_5  and  C_6
REMARK                            x       y       z     vdW  Elec       q    Type
REMARK                         _______ _______ _______ _____ _____    ______ ____
ROOT
ATOM      1  O   UNL     1       6.255   6.552  16.209  0.00  0.00    +0.000 OA
ATOM      2  S   UNL     1       6.617   5.150  16.151  0.00  0.00    +0.000 S 
ATOM      3  O   UNL     1       7.818   4.668  16.812  0.00  0.00    +0.000 OA
ENDROOT
BRANCH   2   4
ATOM      4  C   UNL     1       6.785   4.761  14.418  0.00  0.00    +0.000 A 
ATOM      5  C   UNL     1       7.733   5.457  13.660  0.00  0.00    +0.000 A 
ATOM      6  C   UNL     1       7.883   5.164  12.303  0.00  0.00    +0.000 A 
ATOM      7  C   UNL     1       7.102   4.169  11.716  0.00  0.00    +0.000 A 
ATOM      8  C   UNL     1       6.177   3.471  12.489  0.00  0.00    +0.000 A 
ATOM      9  F   UNL     1       5.441   2.508  11.917  0.00  0.00    +0.000 F 
ATOM     10  C   UNL     1       6.005   3.755  13.839  0.00  0.00    +0.000 A 
ENDBRANCH   2   4
BRANCH   2  11
ATOM     11  C   UNL     1       5.268   4.196  16.664  0.00  0.00    +0.000 C 
ATOM     12  C   UNL     1       4.455   4.626  17.643  0.00  0.00    +0.000 C 
BRANCH  12  13
ATOM     13  C   UNL     1       3.291   3.851  18.095  0.00  0.00    +0.000 A 
ATOM     14  C   UNL     1       2.004   4.375  18.011  0.00  0.00    +0.000 A 
ATOM     15  C   UNL     1       0.936   3.611  18.483  0.00  0.00    +0.000 A 
ATOM     16  C   UNL     1       1.179   2.349  19.010  0.00  0.00    +0.000 A 
ATOM     17  C   UNL     1       2.486   1.898  19.042  0.00  0.00    +0.000 A 
ATOM     18  N   UNL     1       3.540   2.621  18.605  0.00  0.00    +0.000 NA
ENDBRANCH  12  13
ENDBRANCH   2  11
TORSDOF 3
ENDMDL
MODEL 3
REMARK VINA RESULT:      -7.4      2.624      6.286
REMARK  Name = 
REMARK  3 active torsions:
REMARK  status: ('A' for Active; 'I' for Inactive)
REMARK    1  A    between atoms: S_2  and  C_4
REMARK    2  A    between atoms: S_2  and  C_12
REMARK    3  A    between atoms: C_5  and  C_6
REMARK                            x       y       z     vdW  Elec       q    Type
REMARK                         _______ _______ _______ _____ _____    ______ ____
ROOT
ATOM      1  O   UNL     1       7.368   6.582  16.370  0.00  0.00    +0.000 OA
ATOM      2  S   UNL     1       7.068   5.167  16.269  0.00  0.00    +0.000 S 
ATOM      3  O   UNL     1       7.937   4.180  16.887  0.00  0.00    +0.000 OA
ENDROOT
BRANCH   2   4
ATOM      4  C   UNL     1       7.024   4.803  14.523  0.00  0.00    +0.000 A 
ATOM      5  C   UNL     1       7.864   5.520  13.664  0.00  0.00    +0.000 A 
ATOM      6  C   UNL     1       7.849   5.245  12.295  0.00  0.00    +0.000 A 
ATOM      7  C   UNL     1       7.011   4.248  11.795  0.00  0.00    +0.000 A 
ATOM      8  C   UNL     1       6.197   3.529  12.666  0.00  0.00    +0.000 A 
ATOM      9  F   UNL     1       5.406   2.565  12.176  0.00  0.00    +0.000 F 
ATOM     10  C   UNL     1       6.190   3.794  14.031  0.00  0.00    +0.000 A 
ENDBRANCH   2   4
BRANCH   2  11
ATOM     11  C   UNL     1       5.441   4.896  16.793  0.00  0.00    +0.000 C 
ATOM     12  C   UNL     1       5.077   3.715  17.320  0.00  0.00    +0.000 C 
BRANCH  12  13
ATOM     13  C   UNL     1       3.709   3.452  17.790  0.00  0.00    +0.000 A 
ATOM     14  C   UNL     1       3.389   2.264  18.439  0.00  0.00    +0.000 A 
ATOM     15  C   UNL     1       2.070   2.050  18.838  0.00  0.00    +0.000 A 
ATOM     16  C   UNL     1       1.115   3.028  18.590  0.00  0.00    +0.000 A 
ATOM     17  C   UNL     1       1.520   4.187  17.953  0.00  0.00    +0.000 A 
ATOM     18  N   UNL     1       2.788   4.415  17.545  0.00  0.00    +0.000 NA
ENDBRANCH  12  13
ENDBRANCH   2  11
TORSDOF 3
ENDMDL
MODEL 4
REMARK VINA RESULT:      -7.4      1.377      1.741
REMARK  Name = 
REMARK  3 active torsions:
REMARK  status: ('A' for Active; 'I' for Inactive)
REMARK    1  A    between atoms: S_2  and  C_4
REMARK    2  A    between atoms: S_2  and  C_12
REMARK    3  A    between atoms: C_5  and  C_6
REMARK                            x       y       z     vdW  Elec       q    Type
REMARK                         _______ _______ _______ _____ _____    ______ ____
ROOT
ATOM      1  O   UNL     1       6.226   4.472  19.454  0.00  0.00    +0.000 OA
ATOM      2  S   UNL     1       5.377   4.982  18.396  0.00  0.00    +0.000 S 
ATOM      3  O   UNL     1       5.005   6.386  18.357  0.00  0.00    +0.000 OA
ENDROOT
BRANCH   2   4
ATOM      4  C   UNL     1       3.862   4.045  18.492  0.00  0.00    +0.000 A 
ATOM      5  C   UNL     1       3.786   2.816  17.825  0.00  0.00    +0.000 A 
ATOM      6  C   UNL     1       2.612   2.065  17.892  0.00  0.00    +0.000 A 
ATOM      7  C   UNL     1       1.529   2.533  18.637  0.00  0.00    +0.000 A 
ATOM      8  C   UNL     1       1.628   3.747  19.312  0.00  0.00    +0.000 A 
ATOM      9  F   UNL     1       0.586   4.180  20.034  0.00  0.00    +0.000 F 
ATOM     10  C   UNL     1       2.785   4.514  19.249  0.00  0.00    +0.000 A 
ENDBRANCH   2   4
BRANCH   2  11
ATOM     11  C   UNL     1       6.050   4.533  16.866  0.00  0.00    +0.000 C 
ATOM     12  C   UNL     1       5.557   5.039  15.723  0.00  0.00    +0.000 C 
BRANCH  12  13
ATOM     13  C   UNL     1       6.112   4.693  14.407  0.00  0.00    +0.000 A 
ATOM     14  C   UNL     1       5.516   3.720  13.610  0.00  0.00    +0.000 A 
ATOM     15  C   UNL     1       6.100   3.407  12.383  0.00  0.00    +0.000 A 
ATOM     16  C   UNL     1       7.248   4.078  11.982  0.00  0.00    +0.000 A 
ATOM     17  C   UNL     1       7.767   5.042  12.827  0.00  0.00    +0.000 A 
ATOM     18  N   UNL     1       7.229   5.357  14.026  0.00  0.00    +0.000 NA
ENDBRANCH  12  13
ENDBRANCH   2  11
TORSDOF 3
ENDMDL
MODEL 5
REMARK VINA RESULT:      -7.3      3.963      6.676
REMARK  Name = 
REMARK  3 active torsions:
REMARK  status: ('A' for Active; 'I' for Inactive)
REMARK    1  A    between atoms: S_2  and  C_4
REMARK    2  A    between atoms: S_2  and  C_12
REMARK    3  A    between atoms: C_5  and  C_6
REMARK                            x       y       z     vdW  Elec       q    Type
REMARK                         _______ _______ _______ _____ _____    ______ ____
ROOT
ATOM      1  O   UNL     1       6.572   3.704  15.384  0.00  0.00    +0.000 OA
ATOM      2  S   UNL     1       5.699   4.738  15.903  0.00  0.00    +0.000 S 
ATOM      3  O   UNL     1       5.064   5.689  15.006  0.00  0.00    +0.000 OA
ENDROOT
BRANCH   2   4
ATOM      4  C   UNL     1       6.690   5.683  17.046  0.00  0.00    +0.000 A 
ATOM      5  C   UNL     1       7.278   5.025  18.133  0.00  0.00    +0.000 A 
ATOM      6  C   UNL     1       8.061   5.745  19.036  0.00  0.00    +0.000 A 
ATOM      7  C   UNL     1       8.269   7.111  18.840  0.00  0.00    +0.000 A 
ATOM      8  C   UNL     1       7.696   7.747  17.742  0.00  0.00    +0.000 A 
ATOM      9  F   UNL     1       7.913   9.056  17.559  0.00  0.00    +0.000 F 
ATOM     10  C   UNL     1       6.903   7.049  16.838  0.00  0.00    +0.000 A 
ENDBRANCH   2   4
BRANCH   2  11
ATOM     11  C   UNL     1       4.490   4.009  16.902  0.00  0.00    +0.000 C 
ATOM     12  C   UNL     1       3.572   4.762  17.531  0.00  0.00    +0.000 C 
BRANCH  12  13
ATOM     13  C   UNL     1       2.521   4.177  18.375  0.00  0.00    +0.000 A 
ATOM     14  C   UNL     1       2.238   4.699  19.634  0.00  0.00    +0.000 A 
ATOM     15  C   UNL     1       1.252   4.088  20.409  0.00  0.00    +0.000 A 
ATOM     16  C   UNL     1       0.571   2.987  19.904  0.00  0.00    +0.000 A 
ATOM     17  C   UNL     1       0.903   2.542  18.637  0.00  0.00    +0.000 A 
ATOM     18  N   UNL     1       1.862   3.106  17.871  0.00  0.00    +0.000 NA
ENDBRANCH  12  13
ENDBRANCH   2  11
TORSDOF 3
ENDMDL
MODEL 6
REMARK VINA RESULT:      -7.2      2.581      3.054
REMARK  Name = 
REMARK  3 active torsions:
REMARK  status: ('A' for Active; 'I' for Inactive)
REMARK    1  A    between atoms: S_2  and  C_4
REMARK    2  A    between atoms: S_2  and  C_12
REMARK    3  A    between atoms: C_5  and  C_6
REMARK                            x       y       z     vdW  Elec       q    Type
REMARK                         _______ _______ _______ _____ _____    ______ ____
ROOT
ATOM      1  O   UNL     1       4.142   3.137  18.010  0.00  0.00    +0.000 OA
ATOM      2  S   UNL     1       5.017   4.267  18.251  0.00  0.00    +0.000 S 
ATOM      3  O   UNL     1       5.971   4.243  19.348  0.00  0.00    +0.000 OA
ENDROOT
BRANCH   2   4
ATOM      4  C   UNL     1       3.944   5.665  18.523  0.00  0.00    +0.000 A 
ATOM      5  C   UNL     1       3.903   6.681  17.561  0.00  0.00    +0.000 A 
ATOM      6  C   UNL     1       3.065   7.781  17.753  0.00  0.00    +0.000 A 
ATOM      7  C   UNL     1       2.262   7.853  18.891  0.00  0.00    +0.000 A 
ATOM      8  C   UNL     1       2.298   6.824  19.829  0.00  0.00    +0.000 A 
ATOM      9  F   UNL     1       1.513   6.899  20.912  0.00  0.00    +0.000 F 
ATOM     10  C   UNL     1       3.134   5.726  19.661  0.00  0.00    +0.000 A 
ENDBRANCH   2   4
BRANCH   2  11
ATOM     11  C   UNL     1       5.851   4.658  16.786  0.00  0.00    +0.000 C 
ATOM     12  C   UNL     1       5.647   3.943  15.667  0.00  0.00    +0.000 C 
BRANCH  12  13
ATOM     13  C   UNL     1       6.325   4.255  14.401  0.00  0.00    +0.000 A 
ATOM     14  C   UNL     1       5.986   3.594  13.224  0.00  0.00    +0.000 A 
ATOM     15  C   UNL     1       6.681   3.905  12.055  0.00  0.00    +0.000 A 
ATOM     16  C   UNL     1       7.680   4.870  12.091  0.00  0.00    +0.000 A 
ATOM     17  C   UNL     1       7.942   5.491  13.298  0.00  0.00    +0.000 A 
ATOM     18  N   UNL     1       7.294   5.200  14.448  0.00  0.00    +0.000 NA
ENDBRANCH  12  13
ENDBRANCH   2  11
TORSDOF 3
ENDMDL
MODEL 7
REMARK VINA RESULT:      -7.0      4.027      6.617
REMARK  Name = 
REMARK  3 active torsions:
REMARK  status: ('A' for Active; 'I' for Inactive)
REMARK    1  A    between atoms: S_2  and  C_4
REMARK    2  A    between atoms: S_2  and  C_12
REMARK    3  A    between atoms: C_5  and  C_6
REMARK                            x       y       z     vdW  Elec       q    Type
REMARK                         _______ _______ _______ _____ _____    ______ ____
ROOT
ATOM      1  O   UNL     1       6.376   3.709  15.654  0.00  0.00    +0.000 OA
ATOM      2  S   UNL     1       5.702   4.967  15.911  0.00  0.00    +0.000 S 
ATOM      3  O   UNL     1       5.426   5.894  14.826  0.00  0.00    +0.000 OA
ENDROOT
BRANCH   2   4
ATOM      4  C   UNL     1       6.722   5.833  17.091  0.00  0.00    +0.000 A 
ATOM      5  C   UNL     1       7.275   5.117  18.158  0.00  0.00    +0.000 A 
ATOM      6  C   UNL     1       8.080   5.776  19.089  0.00  0.00    +0.000 A 
ATOM      7  C   UNL     1       8.343   7.137  18.941  0.00  0.00    +0.000 A 
ATOM      8  C   UNL     1       7.802   7.832  17.861  0.00  0.00    +0.000 A 
ATOM      9  F   UNL     1       8.071   9.137  17.723  0.00  0.00    +0.000 F 
ATOM     10  C   UNL     1       6.989   7.196  16.930  0.00  0.00    +0.000 A 
ENDBRANCH   2   4
BRANCH   2  11
ATOM     11  C   UNL     1       4.235   4.656  16.775  0.00  0.00    +0.000 C 
ATOM     12  C   UNL     1       4.225   3.837  17.840  0.00  0.00    +0.000 C 
BRANCH  12  13
ATOM     13  C   UNL     1       3.003   3.561  18.607  0.00  0.00    +0.000 A 
ATOM     14  C   UNL     1       1.990   2.764  18.081  0.00  0.00    +0.000 A 
ATOM     15  C   UNL     1       0.836   2.558  18.838  0.00  0.00    +0.000 A 
ATOM     16  C   UNL     1       0.731   3.140  20.095  0.00  0.00    +0.000 A 
ATOM     17  C   UNL     1       1.791   3.904  20.549  0.00  0.00    +0.000 A 
ATOM     18  N   UNL     1       2.914   4.131  19.833  0.00  0.00    +0.000 NA
ENDBRANCH  12  13
ENDBRANCH   2  11
TORSDOF 3
ENDMDL
MODEL 8
REMARK VINA RESULT:      -7.0      3.799      6.578
REMARK  Name = 
REMARK  3 active torsions:
REMARK  status: ('A' for Active; 'I' for Inactive)
REMARK    1  A    between atoms: S_2  and  C_4
REMARK    2  A    between atoms: S_2  and  C_12
REMARK    3  A    between atoms: C_5  and  C_6
REMARK                            x       y       z     vdW  Elec       q    Type
REMARK                         _______ _______ _______ _____ _____    ______ ____
ROOT
ATOM      1  O   UNL     1       6.379   3.420  15.577  0.00  0.00    +0.000 OA
ATOM      2  S   UNL     1       5.530   4.487  16.071  0.00  0.00    +0.000 S 
ATOM      3  O   UNL     1       4.838   5.369  15.146  0.00  0.00    +0.000 OA
ENDROOT
BRANCH   2   4
ATOM      4  C   UNL     1       6.578   5.513  17.086  0.00  0.00    +0.000 A 
ATOM      5  C   UNL     1       6.653   6.883  16.809  0.00  0.00    +0.000 A 
ATOM      6  C   UNL     1       7.463   7.703  17.595  0.00  0.00    +0.000 A 
ATOM      7  C   UNL     1       8.178   7.158  18.661  0.00  0.00    +0.000 A 
ATOM      8  C   UNL     1       8.077   5.797  18.937  0.00  0.00    +0.000 A 
ATOM      9  F   UNL     1       8.760   5.287  19.971  0.00  0.00    +0.000 F 
ATOM     10  C   UNL     1       7.284   4.961  18.159  0.00  0.00    +0.000 A 
ENDBRANCH   2   4
BRANCH   2  11
ATOM     11  C   UNL     1       4.384   3.827  17.187  0.00  0.00    +0.000 C 
ATOM     12  C   UNL     1       4.041   4.500  18.298  0.00  0.00    +0.000 C 
BRANCH  12  13
ATOM     13  C   UNL     1       3.061   3.979  19.261  0.00  0.00    +0.000 A 
ATOM     14  C   UNL     1       1.721   4.350  19.193  0.00  0.00    +0.000 A 
ATOM     15  C   UNL     1       0.837   3.852  20.150  0.00  0.00    +0.000 A 
ATOM     16  C   UNL     1       1.308   2.993  21.134  0.00  0.00    +0.000 A 
ATOM     17  C   UNL     1       2.651   2.662  21.120  0.00  0.00    +0.000 A 
ATOM     18  N   UNL     1       3.532   3.139  20.214  0.00  0.00    +0.000 NA
ENDBRANCH  12  13
ENDBRANCH   2  11
TORSDOF 3
ENDMDL
MODEL 9
REMARK VINA RESULT:      -6.9      3.357      6.629
REMARK  Name = 
REMARK  3 active torsions:
REMARK  status: ('A' for Active; 'I' for Inactive)
REMARK    1  A    between atoms: S_2  and  C_4
REMARK    2  A    between atoms: S_2  and  C_12
REMARK    3  A    between atoms: C_5  and  C_6
REMARK                            x       y       z     vdW  Elec       q    Type
REMARK                         _______ _______ _______ _____ _____    ______ ____
ROOT
ATOM      1  O   UNL     1       7.334   6.759  17.673  0.00  0.00    +0.000 OA
ATOM      2  S   UNL     1       6.953   5.361  17.737  0.00  0.00    +0.000 S 
ATOM      3  O   UNL     1       7.827   4.385  18.365  0.00  0.00    +0.000 OA
ENDROOT
BRANCH   2   4
ATOM      4  C   UNL     1       6.720   4.842  16.046  0.00  0.00    +0.000 A 
ATOM      5  C   UNL     1       5.692   3.939  15.754  0.00  0.00    +0.000 A 
ATOM      6  C   UNL     1       5.490   3.525  14.437  0.00  0.00    +0.000 A 
ATOM      7  C   UNL     1       6.300   4.026  13.418  0.00  0.00    +0.000 A 
ATOM      8  C   UNL     1       7.305   4.941  13.722  0.00  0.00    +0.000 A 
ATOM      9  F   UNL     1       8.069   5.425  12.734  0.00  0.00    +0.000 F 
ATOM     10  C   UNL     1       7.529   5.358  15.029  0.00  0.00    +0.000 A 
ENDBRANCH   2   4
BRANCH   2  11
ATOM     11  C   UNL     1       5.374   5.237  18.434  0.00  0.00    +0.000 C 
ATOM     12  C   UNL     1       5.006   4.137  19.111  0.00  0.00    +0.000 C 
BRANCH  12  13
ATOM     13  C   UNL     1       3.680   4.002  19.729  0.00  0.00    +0.000 A 
ATOM     14  C   UNL     1       2.850   5.107  19.895  0.00  0.00    +0.000 A 
ATOM     15  C   UNL     1       1.613   4.930  20.516  0.00  0.00    +0.000 A 
ATOM     16  C   UNL     1       1.236   3.662  20.940  0.00  0.00    +0.000 A 
ATOM     17  C   UNL     1       2.114   2.616  20.722  0.00  0.00    +0.000 A 
ATOM     18  N   UNL     1       3.323   2.760  20.136  0.00  0.00    +0.000 NA
ENDBRANCH  12  13
ENDBRANCH   2  11
TORSDOF 3
ENDMDL
