MODEL 1
REMARK VINA RESULT:      -7.7      0.000      0.000
REMARK  Name = 
REMARK  10 active torsions:
REMARK  status: ('A' for Active; 'I' for Inactive)
REMARK    1  A    between atoms: C_1  and  C_2
REMARK    2  A    between atoms: C_2  and  N_3
REMARK    3  A    between atoms: N_3  and  C_4
REMARK    4  A    between atoms: N_3  and  S_6
REMARK    5  A    between atoms: C_4  and  C_5
REMARK    6  A    between atoms: S_6  and  C_9
REMARK    7  A    between atoms: C_12  and  C_13
REMARK    8  A    between atoms: C_16  and  S_17
REMARK    9  A    between atoms: S_17  and  C_18
REMARK   10  A    between atoms: C_18  and  C_19
REMARK                            x       y       z     vdW  Elec       q    Type
REMARK                         _______ _______ _______ _____ _____    ______ ____
ROOT
ATOM      1  C   UNL     1       1.215   8.434  20.495  0.00  0.00    +0.000 A 
ATOM      2  N   UNL     1       0.387   8.415  21.520  0.00  0.00    +0.000 NA
ATOM      3  N   UNL     1      -0.048   9.710  21.700  0.00  0.00    +0.000 NA
ATOM      4  C   UNL     1       0.541  10.438  20.774  0.00  0.00    +0.000 A 
ATOM      5  O   UNL     1       1.349   9.687  19.951  0.00  0.00    +0.000 OA
ENDROOT
BRANCH   1   9
ATOM      6  C   UNL     1       3.456   5.155  18.896  0.00  0.00    +0.000 A 
ATOM      7  C   UNL     1       2.743   5.013  20.086  0.00  0.00    +0.000 A 
ATOM      8  C   UNL     1       2.002   6.093  20.576  0.00  0.00    +0.000 A 
ATOM      9  C   UNL     1       1.967   7.328  19.900  0.00  0.00    +0.000 A 
ATOM     10  C   UNL     1       2.682   7.445  18.697  0.00  0.00    +0.000 A 
ATOM     11  C   UNL     1       3.428   6.366  18.197  0.00  0.00    +0.000 A 
BRANCH   6  12
ATOM     12  S   UNL     1       4.499   3.816  18.349  0.00  0.00    +0.000 S 
ATOM     13  O   UNL     1       3.682   2.960  17.516  0.00  0.00    +0.000 OA
ATOM     14  O   UNL     1       5.191   3.290  19.510  0.00  0.00    +0.000 OA
BRANCH  12  15
ATOM     15  N   UNL     1       5.674   4.577  17.349  0.00  0.00    +0.000 NA
BRANCH  15  17
ATOM     16  C   UNL     1       7.343   6.335  18.016  0.00  0.00    +0.000 C 
ATOM     17  C   UNL     1       6.970   4.860  18.032  0.00  0.00    +0.000 C 
ENDBRANCH  15  17
BRANCH  15  18
ATOM     18  C   UNL     1       5.790   3.970  15.985  0.00  0.00    +0.000 C 
ATOM     19  C   UNL     1       5.609   4.966  14.850  0.00  0.00    +0.000 C 
ENDBRANCH  15  18
ENDBRANCH  12  15
ENDBRANCH   6  12
ENDBRANCH   1   9
BRANCH   4  20
ATOM     20  S   UNL     1       0.275  12.144  20.563  0.00  0.00    +0.000 S 
BRANCH  20  21
ATOM     21  C   UNL     1      -0.525  12.153  18.923  0.00  0.00    +0.000 C 
BRANCH  21  22
ATOM     22  C   UNL     1      -2.050  12.087  19.015  0.00  0.00    +0.000 C 
ATOM     23  O   UNL     1      -2.683  12.732  19.854  0.00  0.00    +0.000 OA
ATOM     24  N   UNL     1      -2.711  11.283  18.095  0.00  0.00    +0.000 N 
ATOM     25  C   UNL     1      -2.111  10.502  17.006  0.00  0.00    +0.000 C 
ATOM     26  C   UNL     1      -2.780  10.855  15.667  0.00  0.00    +0.000 C 
ATOM     27  O   UNL     1      -4.208  10.714  15.739  0.00  0.00    +0.000 OA
ATOM     28  C   UNL     1      -4.759  11.556  16.766  0.00  0.00    +0.000 C 
ATOM     29  C   UNL     1      -4.174  11.195  18.134  0.00  0.00    +0.000 C 
ENDBRANCH  21  22
ENDBRANCH  20  21
ENDBRANCH   4  20
TORSDOF 8
ENDMDL
MODEL 2
REMARK VINA RESULT:      -7.5      1.681      2.544
REMARK  Name = 
REMARK  10 active torsions:
REMARK  status: ('A' for Active; 'I' for Inactive)
REMARK    1  A    between atoms: C_1  and  C_2
REMARK    2  A    between atoms: C_2  and  N_3
REMARK    3  A    between atoms: N_3  and  C_4
REMARK    4  A    between atoms: N_3  and  S_6
REMARK    5  A    between atoms: C_4  and  C_5
REMARK    6  A    between atoms: S_6  and  C_9
REMARK    7  A    between atoms: C_12  and  C_13
REMARK    8  A    between atoms: C_16  and  S_17
REMARK    9  A    between atoms: S_17  and  C_18
REMARK   10  A    between atoms: C_18  and  C_19
REMARK                            x       y       z     vdW  Elec       q    Type
REMARK                         _______ _______ _______ _____ _____    ______ ____
ROOT
ATOM      1  C   UNL     1       1.192   9.065  19.322  0.00  0.00    +0.000 A 
ATOM      2  N   UNL     1       0.890   9.679  20.449  0.00  0.00    +0.000 NA
ATOM      3  N   UNL     1      -0.019  10.663  20.131  0.00  0.00    +0.000 NA
ATOM      4  C   UNL     1      -0.215  10.591  18.831  0.00  0.00    +0.000 A 
ATOM      5  O   UNL     1       0.510   9.578  18.246  0.00  0.00    +0.000 OA
ENDROOT
BRANCH   1   9
ATOM      6  C   UNL     1       3.879   5.830  18.521  0.00  0.00    +0.000 A 
ATOM      7  C   UNL     1       3.745   6.881  17.615  0.00  0.00    +0.000 A 
ATOM      8  C   UNL     1       2.875   7.936  17.909  0.00  0.00    +0.000 A 
ATOM      9  C   UNL     1       2.122   7.958  19.099  0.00  0.00    +0.000 A 
ATOM     10  C   UNL     1       2.283   6.896  20.004  0.00  0.00    +0.000 A 
ATOM     11  C   UNL     1       3.153   5.833  19.717  0.00  0.00    +0.000 A 
BRANCH   6  12
ATOM     12  S   UNL     1       4.889   4.430  18.077  0.00  0.00    +0.000 S 
ATOM     13  O   UNL     1       4.057   3.541  17.294  0.00  0.00    +0.000 OA
ATOM     14  O   UNL     1       5.556   3.964  19.278  0.00  0.00    +0.000 OA
BRANCH  12  15
ATOM     15  N   UNL     1       6.094   5.089  17.041  0.00  0.00    +0.000 NA
BRANCH  15  17
ATOM     16  C   UNL     1       7.464   7.118  17.612  0.00  0.00    +0.000 C 
ATOM     17  C   UNL     1       7.296   5.613  17.754  0.00  0.00    +0.000 C 
ENDBRANCH  15  17
BRANCH  15  18
ATOM     18  C   UNL     1       6.383   4.246  15.837  0.00  0.00    +0.000 C 
ATOM     19  C   UNL     1       5.739   4.759  14.558  0.00  0.00    +0.000 C 
ENDBRANCH  15  18
ENDBRANCH  12  15
ENDBRANCH   6  12
ENDBRANCH   1   9
BRANCH   4  20
ATOM     20  S   UNL     1      -1.322  11.608  17.956  0.00  0.00    +0.000 S 
BRANCH  20  21
ATOM     21  C   UNL     1      -2.797  10.534  17.914  0.00  0.00    +0.000 C 
BRANCH  21  22
ATOM     22  C   UNL     1      -3.971  11.180  17.178  0.00  0.00    +0.000 C 
ATOM     23  O   UNL     1      -4.168  10.996  15.974  0.00  0.00    +0.000 OA
ATOM     24  N   UNL     1      -4.835  11.971  17.924  0.00  0.00    +0.000 N 
ATOM     25  C   UNL     1      -4.770  12.240  19.366  0.00  0.00    +0.000 C 
ATOM     26  C   UNL     1      -6.116  11.903  20.029  0.00  0.00    +0.000 C 
ATOM     27  O   UNL     1      -7.206  12.577  19.381  0.00  0.00    +0.000 OA
ATOM     28  C   UNL     1      -7.277  12.222  17.989  0.00  0.00    +0.000 C 
ATOM     29  C   UNL     1      -5.982  12.603  17.266  0.00  0.00    +0.000 C 
ENDBRANCH  21  22
ENDBRANCH  20  21
ENDBRANCH   4  20
TORSDOF 8
ENDMDL
MODEL 3
REMARK VINA RESULT:      -7.3      6.522     10.213
REMARK  Name = 
REMARK  10 active torsions:
REMARK  status: ('A' for Active; 'I' for Inactive)
REMARK    1  A    between atoms: C_1  and  C_2
REMARK    2  A    between atoms: C_2  and  N_3
REMARK    3  A    between atoms: N_3  and  C_4
REMARK    4  A    between atoms: N_3  and  S_6
REMARK    5  A    between atoms: C_4  and  C_5
REMARK    6  A    between atoms: S_6  and  C_9
REMARK    7  A    between atoms: C_12  and  C_13
REMARK    8  A    between atoms: C_16  and  S_17
REMARK    9  A    between atoms: S_17  and  C_18
REMARK   10  A    between atoms: C_18  and  C_19
REMARK                            x       y       z     vdW  Elec       q    Type
REMARK                         _______ _______ _______ _____ _____    ______ ____
ROOT
ATOM      1  C   UNL     1       8.223   8.993  18.086  0.00  0.00    +0.000 A 
ATOM      2  N   UNL     1       7.342   8.771  17.131  0.00  0.00    +0.000 NA
ATOM      3  N   UNL     1       7.065   7.423  17.154  0.00  0.00    +0.000 NA
ATOM      4  C   UNL     1       7.795   6.904  18.121  0.00  0.00    +0.000 A 
ATOM      5  O   UNL     1       8.547   7.852  18.776  0.00  0.00    +0.000 OA
ENDROOT
BRANCH   1   9
ATOM      6  C   UNL     1      10.062  12.642  19.364  0.00  0.00    +0.000 A 
ATOM      7  C   UNL     1      10.198  11.477  20.119  0.00  0.00    +0.000 A 
ATOM      8  C   UNL     1       9.604  10.294  19.669  0.00  0.00    +0.000 A 
ATOM      9  C   UNL     1       8.862  10.251  18.473  0.00  0.00    +0.000 A 
ATOM     10  C   UNL     1       8.748  11.433  17.722  0.00  0.00    +0.000 A 
ATOM     11  C   UNL     1       9.341  12.626  18.166  0.00  0.00    +0.000 A 
BRANCH   6  12
ATOM     12  S   UNL     1      10.711  14.171  20.011  0.00  0.00    +0.000 S 
ATOM     13  O   UNL     1      12.133  14.171  19.744  0.00  0.00    +0.000 OA
ATOM     14  O   UNL     1      10.204  14.333  21.361  0.00  0.00    +0.000 OA
BRANCH  12  15
ATOM     15  N   UNL     1       9.980  15.387  19.037  0.00  0.00    +0.000 NA
BRANCH  15  17
ATOM     16  C   UNL     1       8.112  17.047  18.765  0.00  0.00    +0.000 C 
ATOM     17  C   UNL     1       8.871  16.126  19.708  0.00  0.00    +0.000 C 
ENDBRANCH  15  17
BRANCH  15  18
ATOM     18  C   UNL     1      10.965  16.242  18.300  0.00  0.00    +0.000 C 
ATOM     19  C   UNL     1      11.100  15.894  16.826  0.00  0.00    +0.000 C 
ENDBRANCH  15  18
ENDBRANCH  12  15
ENDBRANCH   6  12
ENDBRANCH   1   9
BRANCH   4  20
ATOM     20  S   UNL     1       7.759   5.225  18.572  0.00  0.00    +0.000 S 
BRANCH  20  21
ATOM     21  C   UNL     1       6.143   4.731  17.883  0.00  0.00    +0.000 C 
BRANCH  21  22
ATOM     22  C   UNL     1       5.026   4.765  18.928  0.00  0.00    +0.000 C 
ATOM     23  O   UNL     1       5.024   5.578  19.855  0.00  0.00    +0.000 OA
ATOM     24  N   UNL     1       3.988   3.854  18.782  0.00  0.00    +0.000 N 
ATOM     25  C   UNL     1       3.817   2.867  17.709  0.00  0.00    +0.000 C 
ATOM     26  C   UNL     1       2.432   3.022  17.060  0.00  0.00    +0.000 C 
ATOM     27  O   UNL     1       1.383   2.974  18.040  0.00  0.00    +0.000 OA
ATOM     28  C   UNL     1       1.549   4.008  19.026  0.00  0.00    +0.000 C 
ATOM     29  C   UNL     1       2.888   3.854  19.751  0.00  0.00    +0.000 C 
ENDBRANCH  21  22
ENDBRANCH  20  21
ENDBRANCH   4  20
TORSDOF 8
ENDMDL
MODEL 4
REMARK VINA RESULT:      -7.2      1.873      2.420
REMARK  Name = 
REMARK  10 active torsions:
REMARK  status: ('A' for Active; 'I' for Inactive)
REMARK    1  A    between atoms: C_1  and  C_2
REMARK    2  A    between atoms: C_2  and  N_3
REMARK    3  A    between atoms: N_3  and  C_4
REMARK    4  A    between atoms: N_3  and  S_6
REMARK    5  A    between atoms: C_4  and  C_5
REMARK    6  A    between atoms: S_6  and  C_9
REMARK    7  A    between atoms: C_12  and  C_13
REMARK    8  A    between atoms: C_16  and  S_17
REMARK    9  A    between atoms: S_17  and  C_18
REMARK   10  A    between atoms: C_18  and  C_19
REMARK                            x       y       z     vdW  Elec       q    Type
REMARK                         _______ _______ _______ _____ _____    ______ ____
ROOT
ATOM      1  C   UNL     1       0.962   9.390  19.464  0.00  0.00    +0.000 A 
ATOM      2  N   UNL     1       0.422   9.671  20.633  0.00  0.00    +0.000 NA
ATOM      3  N   UNL     1      -0.371  10.781  20.446  0.00  0.00    +0.000 NA
ATOM      4  C   UNL     1      -0.266  11.110  19.174  0.00  0.00    +0.000 A 
ATOM      5  O   UNL     1       0.553  10.252  18.477  0.00  0.00    +0.000 OA
ENDROOT
BRANCH   1   9
ATOM      6  C   UNL     1       3.658   6.275  18.300  0.00  0.00    +0.000 A 
ATOM      7  C   UNL     1       3.499   7.409  17.504  0.00  0.00    +0.000 A 
ATOM      8  C   UNL     1       2.626   8.421  17.917  0.00  0.00    +0.000 A 
ATOM      9  C   UNL     1       1.896   8.319  19.116  0.00  0.00    +0.000 A 
ATOM     10  C   UNL     1       2.082   7.175  19.909  0.00  0.00    +0.000 A 
ATOM     11  C   UNL     1       2.955   6.153  19.503  0.00  0.00    +0.000 A 
BRANCH   6  12
ATOM     12  S   UNL     1       4.671   4.935  17.702  0.00  0.00    +0.000 S 
ATOM     13  O   UNL     1       3.798   4.040  16.973  0.00  0.00    +0.000 OA
ATOM     14  O   UNL     1       5.475   4.456  18.811  0.00  0.00    +0.000 OA
BRANCH  12  15
ATOM     15  N   UNL     1       5.738   5.681  16.577  0.00  0.00    +0.000 NA
BRANCH  15  17
ATOM     16  C   UNL     1       7.523   7.093  17.645  0.00  0.00    +0.000 C 
ATOM     17  C   UNL     1       7.158   5.750  17.031  0.00  0.00    +0.000 C 
ENDBRANCH  15  17
BRANCH  15  18
ATOM     18  C   UNL     1       5.540   5.224  15.164  0.00  0.00    +0.000 C 
ATOM     19  C   UNL     1       6.582   4.223  14.689  0.00  0.00    +0.000 C 
ENDBRANCH  15  18
ENDBRANCH  12  15
ENDBRANCH   6  12
ENDBRANCH   1   9
BRANCH   4  20
ATOM     20  S   UNL     1      -1.123  12.432  18.438  0.00  0.00    +0.000 S 
BRANCH  20  21
ATOM     21  C   UNL     1      -2.778  11.686  18.245  0.00  0.00    +0.000 C 
BRANCH  21  22
ATOM     22  C   UNL     1      -3.730  12.074  19.377  0.00  0.00    +0.000 C 
ATOM     23  O   UNL     1      -3.323  12.544  20.441  0.00  0.00    +0.000 OA
ATOM     24  N   UNL     1      -5.090  11.899  19.155  0.00  0.00    +0.000 N 
ATOM     25  C   UNL     1      -5.734  11.407  17.930  0.00  0.00    +0.000 C 
ATOM     26  C   UNL     1      -6.808  12.402  17.458  0.00  0.00    +0.000 C 
ATOM     27  O   UNL     1      -7.746  12.700  18.505  0.00  0.00    +0.000 OA
ATOM     28  C   UNL     1      -7.079  13.252  19.654  0.00  0.00    +0.000 C 
ATOM     29  C   UNL     1      -6.045  12.266  20.205  0.00  0.00    +0.000 C 
ENDBRANCH  21  22
ENDBRANCH  20  21
ENDBRANCH   4  20
TORSDOF 8
ENDMDL
MODEL 5
REMARK VINA RESULT:      -7.0      3.226      4.847
REMARK  Name = 
REMARK  10 active torsions:
REMARK  status: ('A' for Active; 'I' for Inactive)
REMARK    1  A    between atoms: C_1  and  C_2
REMARK    2  A    between atoms: C_2  and  N_3
REMARK    3  A    between atoms: N_3  and  C_4
REMARK    4  A    between atoms: N_3  and  S_6
REMARK    5  A    between atoms: C_4  and  C_5
REMARK    6  A    between atoms: S_6  and  C_9
REMARK    7  A    between atoms: C_12  and  C_13
REMARK    8  A    between atoms: C_16  and  S_17
REMARK    9  A    between atoms: S_17  and  C_18
REMARK   10  A    between atoms: C_18  and  C_19
REMARK                            x       y       z     vdW  Elec       q    Type
REMARK                         _______ _______ _______ _____ _____    ______ ____
ROOT
ATOM      1  C   UNL     1       0.965   9.870  20.597  0.00  0.00    +0.000 A 
ATOM      2  N   UNL     1       1.156  10.411  21.784  0.00  0.00    +0.000 NA
ATOM      3  N   UNL     1       0.526  11.635  21.767  0.00  0.00    +0.000 NA
ATOM      4  C   UNL     1      -0.011  11.767  20.570  0.00  0.00    +0.000 A 
ATOM      5  O   UNL     1       0.210  10.667  19.773  0.00  0.00    +0.000 OA
ENDROOT
BRANCH   1   9
ATOM      6  C   UNL     1       2.289   6.140  18.967  0.00  0.00    +0.000 A 
ATOM      7  C   UNL     1       2.279   7.292  18.183  0.00  0.00    +0.000 A 
ATOM      8  C   UNL     1       1.860   8.502  18.745  0.00  0.00    +0.000 A 
ATOM      9  C   UNL     1       1.439   8.584  20.086  0.00  0.00    +0.000 A 
ATOM     10  C   UNL     1       1.470   7.413  20.862  0.00  0.00    +0.000 A 
ATOM     11  C   UNL     1       1.888   6.194  20.306  0.00  0.00    +0.000 A 
BRANCH   6  12
ATOM     12  S   UNL     1       2.699   4.580  18.206  0.00  0.00    +0.000 S 
ATOM     13  O   UNL     1       4.008   4.734  17.609  0.00  0.00    +0.000 OA
ATOM     14  O   UNL     1       1.560   4.160  17.412  0.00  0.00    +0.000 OA
BRANCH  12  15
ATOM     15  N   UNL     1       2.837   3.487  19.528  0.00  0.00    +0.000 NA
BRANCH  15  17
ATOM     16  C   UNL     1       1.466   2.675  21.473  0.00  0.00    +0.000 C 
ATOM     17  C   UNL     1       1.541   2.892  19.969  0.00  0.00    +0.000 C 
ENDBRANCH  15  17
BRANCH  15  18
ATOM     18  C   UNL     1       3.972   2.520  19.396  0.00  0.00    +0.000 C 
ATOM     19  C   UNL     1       3.687   1.360  18.455  0.00  0.00    +0.000 C 
ENDBRANCH  15  18
ENDBRANCH  12  15
ENDBRANCH   6  12
ENDBRANCH   1   9
BRANCH   4  20
ATOM     20  S   UNL     1      -0.956  13.139  20.074  0.00  0.00    +0.000 S 
BRANCH  20  21
ATOM     21  C   UNL     1      -0.241  13.455  18.425  0.00  0.00    +0.000 C 
BRANCH  21  22
ATOM     22  C   UNL     1       1.256  13.763  18.484  0.00  0.00    +0.000 C 
ATOM     23  O   UNL     1       2.110  12.894  18.293  0.00  0.00    +0.000 OA
ATOM     24  N   UNL     1       1.627  15.076  18.741  0.00  0.00    +0.000 N 
ATOM     25  C   UNL     1       0.738  16.229  18.934  0.00  0.00    +0.000 C 
ATOM     26  C   UNL     1       1.126  17.365  17.973  0.00  0.00    +0.000 C 
ATOM     27  O   UNL     1       2.518  17.703  18.092  0.00  0.00    +0.000 OA
ATOM     28  C   UNL     1       3.351  16.563  17.818  0.00  0.00    +0.000 C 
ATOM     29  C   UNL     1       3.050  15.425  18.797  0.00  0.00    +0.000 C 
ENDBRANCH  21  22
ENDBRANCH  20  21
ENDBRANCH   4  20
TORSDOF 8
ENDMDL
MODEL 6
REMARK VINA RESULT:      -7.0      3.039      4.309
REMARK  Name = 
REMARK  10 active torsions:
REMARK  status: ('A' for Active; 'I' for Inactive)
REMARK    1  A    between atoms: C_1  and  C_2
REMARK    2  A    between atoms: C_2  and  N_3
REMARK    3  A    between atoms: N_3  and  C_4
REMARK    4  A    between atoms: N_3  and  S_6
REMARK    5  A    between atoms: C_4  and  C_5
REMARK    6  A    between atoms: S_6  and  C_9
REMARK    7  A    between atoms: C_12  and  C_13
REMARK    8  A    between atoms: C_16  and  S_17
REMARK    9  A    between atoms: S_17  and  C_18
REMARK   10  A    between atoms: C_18  and  C_19
REMARK                            x       y       z     vdW  Elec       q    Type
REMARK                         _______ _______ _______ _____ _____    ______ ____
ROOT
ATOM      1  C   UNL     1       1.428   8.729  20.653  0.00  0.00    +0.000 A 
ATOM      2  N   UNL     1       1.201   8.871  21.943  0.00  0.00    +0.000 NA
ATOM      3  N   UNL     1       0.716  10.147  22.122  0.00  0.00    +0.000 NA
ATOM      4  C   UNL     1       0.678  10.707  20.930  0.00  0.00    +0.000 A 
ATOM      5  O   UNL     1       1.099   9.853  19.936  0.00  0.00    +0.000 OA
ENDROOT
BRANCH   1   9
ATOM      6  C   UNL     1       3.049   5.292  18.682  0.00  0.00    +0.000 A 
ATOM      7  C   UNL     1       2.526   5.189  19.971  0.00  0.00    +0.000 A 
ATOM      8  C   UNL     1       1.984   6.323  20.584  0.00  0.00    +0.000 A 
ATOM      9  C   UNL     1       1.962   7.572  19.934  0.00  0.00    +0.000 A 
ATOM     10  C   UNL     1       2.483   7.650  18.632  0.00  0.00    +0.000 A 
ATOM     11  C   UNL     1       3.029   6.517  18.008  0.00  0.00    +0.000 A 
BRANCH   6  12
ATOM     12  S   UNL     1       3.854   3.874  17.962  0.00  0.00    +0.000 S 
ATOM     13  O   UNL     1       2.997   3.400  16.896  0.00  0.00    +0.000 OA
ATOM     14  O   UNL     1       4.258   2.995  19.043  0.00  0.00    +0.000 OA
BRANCH  12  15
ATOM     15  N   UNL     1       5.287   4.513  17.255  0.00  0.00    +0.000 NA
BRANCH  15  17
ATOM     16  C   UNL     1       7.146   6.081  17.892  0.00  0.00    +0.000 C 
ATOM     17  C   UNL     1       6.370   4.819  18.235  0.00  0.00    +0.000 C 
ENDBRANCH  15  17
BRANCH  15  18
ATOM     18  C   UNL     1       5.727   3.788  16.021  0.00  0.00    +0.000 C 
ATOM     19  C   UNL     1       5.675   4.634  14.758  0.00  0.00    +0.000 C 
ENDBRANCH  15  18
ENDBRANCH  12  15
ENDBRANCH   6  12
ENDBRANCH   1   9
BRANCH   4  20
ATOM     20  S   UNL     1       0.092  12.317  20.630  0.00  0.00    +0.000 S 
BRANCH  20  21
ATOM     21  C   UNL     1       1.649  13.263  20.750  0.00  0.00    +0.000 C 
BRANCH  21  22
ATOM     22  C   UNL     1       2.283  13.522  19.383  0.00  0.00    +0.000 C 
ATOM     23  O   UNL     1       2.115  12.759  18.429  0.00  0.00    +0.000 OA
ATOM     24  N   UNL     1       3.045  14.674  19.241  0.00  0.00    +0.000 N 
ATOM     25  C   UNL     1       3.293  15.706  20.257  0.00  0.00    +0.000 C 
ATOM     26  C   UNL     1       2.919  17.092  19.708  0.00  0.00    +0.000 C 
ATOM     27  O   UNL     1       3.581  17.361  18.462  0.00  0.00    +0.000 OA
ATOM     28  C   UNL     1       3.247  16.370  17.475  0.00  0.00    +0.000 C 
ATOM     29  C   UNL     1       3.665  14.975  17.947  0.00  0.00    +0.000 C 
ENDBRANCH  21  22
ENDBRANCH  20  21
ENDBRANCH   4  20
TORSDOF 8
ENDMDL
MODEL 7
REMARK VINA RESULT:      -7.0      1.079      1.254
REMARK  Name = 
REMARK  10 active torsions:
REMARK  status: ('A' for Active; 'I' for Inactive)
REMARK    1  A    between atoms: C_1  and  C_2
REMARK    2  A    between atoms: C_2  and  N_3
REMARK    3  A    between atoms: N_3  and  C_4
REMARK    4  A    between atoms: N_3  and  S_6
REMARK    5  A    between atoms: C_4  and  C_5
REMARK    6  A    between atoms: S_6  and  C_9
REMARK    7  A    between atoms: C_12  and  C_13
REMARK    8  A    between atoms: C_16  and  S_17
REMARK    9  A    between atoms: S_17  and  C_18
REMARK   10  A    between atoms: C_18  and  C_19
REMARK                            x       y       z     vdW  Elec       q    Type
REMARK                         _______ _______ _______ _____ _____    ______ ____
ROOT
ATOM      1  C   UNL     1       1.267   8.806  20.739  0.00  0.00    +0.000 A 
ATOM      2  N   UNL     1       1.018   8.908  22.029  0.00  0.00    +0.000 NA
ATOM      3  N   UNL     1       0.458  10.151  22.227  0.00  0.00    +0.000 NA
ATOM      4  C   UNL     1       0.400  10.731  21.045  0.00  0.00    +0.000 A 
ATOM      5  O   UNL     1       0.880   9.923  20.040  0.00  0.00    +0.000 OA
ENDROOT
BRANCH   1   9
ATOM      6  C   UNL     1       3.103   5.506  18.723  0.00  0.00    +0.000 A 
ATOM      7  C   UNL     1       2.546   5.341  19.990  0.00  0.00    +0.000 A 
ATOM      8  C   UNL     1       1.935   6.431  20.619  0.00  0.00    +0.000 A 
ATOM      9  C   UNL     1       1.875   7.696  20.005  0.00  0.00    +0.000 A 
ATOM     10  C   UNL     1       2.430   7.837  18.722  0.00  0.00    +0.000 A 
ATOM     11  C   UNL     1       3.046   6.749  18.084  0.00  0.00    +0.000 A 
BRANCH   6  12
ATOM     12  S   UNL     1       3.993   4.148  17.987  0.00  0.00    +0.000 S 
ATOM     13  O   UNL     1       3.100   3.527  17.032  0.00  0.00    +0.000 OA
ATOM     14  O   UNL     1       4.593   3.377  19.060  0.00  0.00    +0.000 OA
BRANCH  12  15
ATOM     15  N   UNL     1       5.272   4.901  17.117  0.00  0.00    +0.000 NA
BRANCH  15  17
ATOM     16  C   UNL     1       7.208   5.860  18.402  0.00  0.00    +0.000 C 
ATOM     17  C   UNL     1       6.630   4.651  17.683  0.00  0.00    +0.000 C 
ENDBRANCH  15  17
BRANCH  15  18
ATOM     18  C   UNL     1       5.161   4.751  15.631  0.00  0.00    +0.000 C 
ATOM     19  C   UNL     1       6.279   3.927  15.010  0.00  0.00    +0.000 C 
ENDBRANCH  15  18
ENDBRANCH  12  15
ENDBRANCH   6  12
ENDBRANCH   1   9
BRANCH   4  20
ATOM     20  S   UNL     1      -0.275  12.310  20.769  0.00  0.00    +0.000 S 
BRANCH  20  21
ATOM     21  C   UNL     1      -1.540  11.913  19.514  0.00  0.00    +0.000 C 
BRANCH  21  22
ATOM     22  C   UNL     1      -2.931  12.412  19.906  0.00  0.00    +0.000 C 
ATOM     23  O   UNL     1      -3.102  13.209  20.831  0.00  0.00    +0.000 OA
ATOM     24  N   UNL     1      -4.008  11.950  19.161  0.00  0.00    +0.000 N 
ATOM     25  C   UNL     1      -3.965  11.049  18.002  0.00  0.00    +0.000 C 
ATOM     26  C   UNL     1      -4.703  11.681  16.811  0.00  0.00    +0.000 C 
ATOM     27  O   UNL     1      -6.038  12.075  17.167  0.00  0.00    +0.000 OA
ATOM     28  C   UNL     1      -6.026  13.017  18.253  0.00  0.00    +0.000 C 
ATOM     29  C   UNL     1      -5.361  12.407  19.491  0.00  0.00    +0.000 C 
ENDBRANCH  21  22
ENDBRANCH  20  21
ENDBRANCH   4  20
TORSDOF 8
ENDMDL
MODEL 8
REMARK VINA RESULT:      -7.0      1.724      2.804
REMARK  Name = 
REMARK  10 active torsions:
REMARK  status: ('A' for Active; 'I' for Inactive)
REMARK    1  A    between atoms: C_1  and  C_2
REMARK    2  A    between atoms: C_2  and  N_3
REMARK    3  A    between atoms: N_3  and  C_4
REMARK    4  A    between atoms: N_3  and  S_6
REMARK    5  A    between atoms: C_4  and  C_5
REMARK    6  A    between atoms: S_6  and  C_9
REMARK    7  A    between atoms: C_12  and  C_13
REMARK    8  A    between atoms: C_16  and  S_17
REMARK    9  A    between atoms: S_17  and  C_18
REMARK   10  A    between atoms: C_18  and  C_19
REMARK                            x       y       z     vdW  Elec       q    Type
REMARK                         _______ _______ _______ _____ _____    ______ ____
ROOT
ATOM      1  C   UNL     1       1.177   9.246  19.508  0.00  0.00    +0.000 A 
ATOM      2  N   UNL     1       1.105   9.967  20.609  0.00  0.00    +0.000 NA
ATOM      3  N   UNL     1       0.225  10.994  20.354  0.00  0.00    +0.000 NA
ATOM      4  C   UNL     1      -0.187  10.838  19.112  0.00  0.00    +0.000 A 
ATOM      5  O   UNL     1       0.363   9.729  18.513  0.00  0.00    +0.000 OA
ENDROOT
BRANCH   1   9
ATOM      6  C   UNL     1       3.488   5.766  18.576  0.00  0.00    +0.000 A 
ATOM      7  C   UNL     1       3.405   6.824  17.672  0.00  0.00    +0.000 A 
ATOM      8  C   UNL     1       2.659   7.958  18.009  0.00  0.00    +0.000 A 
ATOM      9  C   UNL     1       1.981   8.054  19.239  0.00  0.00    +0.000 A 
ATOM     10  C   UNL     1       2.089   6.982  20.140  0.00  0.00    +0.000 A 
ATOM     11  C   UNL     1       2.835   5.839  19.811  0.00  0.00    +0.000 A 
BRANCH   6  12
ATOM     12  S   UNL     1       4.331   4.274  18.084  0.00  0.00    +0.000 S 
ATOM     13  O   UNL     1       3.857   3.940  16.757  0.00  0.00    +0.000 OA
ATOM     14  O   UNL     1       4.227   3.324  19.175  0.00  0.00    +0.000 OA
BRANCH  12  15
ATOM     15  N   UNL     1       5.982   4.741  17.962  0.00  0.00    +0.000 NA
BRANCH  15  17
ATOM     16  C   UNL     1       7.084   4.472  15.718  0.00  0.00    +0.000 C 
ATOM     17  C   UNL     1       6.341   5.397  16.670  0.00  0.00    +0.000 C 
ENDBRANCH  15  17
BRANCH  15  18
ATOM     18  C   UNL     1       6.511   5.417  19.190  0.00  0.00    +0.000 C 
ATOM     19  C   UNL     1       7.865   6.081  18.994  0.00  0.00    +0.000 C 
ENDBRANCH  15  18
ENDBRANCH  12  15
ENDBRANCH   6  12
ENDBRANCH   1   9
BRANCH   4  20
ATOM     20  S   UNL     1      -1.351  11.872  18.337  0.00  0.00    +0.000 S 
BRANCH  20  21
ATOM     21  C   UNL     1      -2.699  10.679  18.029  0.00  0.00    +0.000 C 
BRANCH  21  22
ATOM     22  C   UNL     1      -3.880  11.309  17.291  0.00  0.00    +0.000 C 
ATOM     23  O   UNL     1      -4.033  11.182  16.074  0.00  0.00    +0.000 OA
ATOM     24  N   UNL     1      -4.802  12.019  18.049  0.00  0.00    +0.000 N 
ATOM     25  C   UNL     1      -4.792  12.212  19.505  0.00  0.00    +0.000 C 
ATOM     26  C   UNL     1      -6.139  11.779  20.107  0.00  0.00    +0.000 C 
ATOM     27  O   UNL     1      -7.241  12.435  19.460  0.00  0.00    +0.000 OA
ATOM     28  C   UNL     1      -7.255  12.153  18.050  0.00  0.00    +0.000 C 
ATOM     29  C   UNL     1      -5.959  12.632  17.390  0.00  0.00    +0.000 C 
ENDBRANCH  21  22
ENDBRANCH  20  21
ENDBRANCH   4  20
TORSDOF 8
ENDMDL
MODEL 9
REMARK VINA RESULT:      -7.0      6.228      9.927
REMARK  Name = 
REMARK  10 active torsions:
REMARK  status: ('A' for Active; 'I' for Inactive)
REMARK    1  A    between atoms: C_1  and  C_2
REMARK    2  A    between atoms: C_2  and  N_3
REMARK    3  A    between atoms: N_3  and  C_4
REMARK    4  A    between atoms: N_3  and  S_6
REMARK    5  A    between atoms: C_4  and  C_5
REMARK    6  A    between atoms: S_6  and  C_9
REMARK    7  A    between atoms: C_12  and  C_13
REMARK    8  A    between atoms: C_16  and  S_17
REMARK    9  A    between atoms: S_17  and  C_18
REMARK   10  A    between atoms: C_18  and  C_19
REMARK                            x       y       z     vdW  Elec       q    Type
REMARK                         _______ _______ _______ _____ _____    ______ ____
ROOT
ATOM      1  C   UNL     1       7.898   8.494  17.854  0.00  0.00    +0.000 A 
ATOM      2  N   UNL     1       7.171   8.167  16.804  0.00  0.00    +0.000 NA
ATOM      3  N   UNL     1       6.860   6.832  16.938  0.00  0.00    +0.000 NA
ATOM      4  C   UNL     1       7.416   6.426  18.061  0.00  0.00    +0.000 A 
ATOM      5  O   UNL     1       8.080   7.439  18.714  0.00  0.00    +0.000 OA
ENDROOT
BRANCH   1   9
ATOM      6  C   UNL     1       9.645  12.235  18.984  0.00  0.00    +0.000 A 
ATOM      7  C   UNL     1       9.920  11.076  19.709  0.00  0.00    +0.000 A 
ATOM      8  C   UNL     1       9.352   9.863  19.307  0.00  0.00    +0.000 A 
ATOM      9  C   UNL     1       8.500   9.784  18.190  0.00  0.00    +0.000 A 
ATOM     10  C   UNL     1       8.246  10.961  17.466  0.00  0.00    +0.000 A 
ATOM     11  C   UNL     1       8.812  12.183  17.862  0.00  0.00    +0.000 A 
BRANCH   6  12
ATOM     12  S   UNL     1      10.267  13.795  19.581  0.00  0.00    +0.000 S 
ATOM     13  O   UNL     1      10.204  14.725  18.473  0.00  0.00    +0.000 OA
ATOM     14  O   UNL     1      11.518  13.540  20.272  0.00  0.00    +0.000 OA
BRANCH  12  15
ATOM     15  N   UNL     1       9.117  14.286  20.762  0.00  0.00    +0.000 NA
BRANCH  15  17
ATOM     16  C   UNL     1       8.281  13.087  22.808  0.00  0.00    +0.000 C 
ATOM     17  C   UNL     1       9.431  13.834  22.149  0.00  0.00    +0.000 C 
ENDBRANCH  15  17
BRANCH  15  18
ATOM     18  C   UNL     1       8.696  15.718  20.636  0.00  0.00    +0.000 C 
ATOM     19  C   UNL     1       7.332  15.904  19.988  0.00  0.00    +0.000 C 
ENDBRANCH  15  18
ENDBRANCH  12  15
ENDBRANCH   6  12
ENDBRANCH   1   9
BRANCH   4  20
ATOM     20  S   UNL     1       7.268   4.812  18.691  0.00  0.00    +0.000 S 
BRANCH  20  21
ATOM     21  C   UNL     1       5.578   4.878  19.378  0.00  0.00    +0.000 C 
BRANCH  21  22
ATOM     22  C   UNL     1       4.860   3.531  19.296  0.00  0.00    +0.000 C 
ATOM     23  O   UNL     1       5.200   2.566  19.983  0.00  0.00    +0.000 OA
ATOM     24  N   UNL     1       3.780   3.436  18.428  0.00  0.00    +0.000 N 
ATOM     25  C   UNL     1       3.218   4.502  17.588  0.00  0.00    +0.000 C 
ATOM     26  C   UNL     1       1.709   4.643  17.848  0.00  0.00    +0.000 C 
ATOM     27  O   UNL     1       1.028   3.387  17.691  0.00  0.00    +0.000 OA
ATOM     28  C   UNL     1       1.560   2.396  18.588  0.00  0.00    +0.000 C 
ATOM     29  C   UNL     1       3.050   2.169  18.321  0.00  0.00    +0.000 C 
ENDBRANCH  21  22
ENDBRANCH  20  21
ENDBRANCH   4  20
TORSDOF 8
ENDMDL
