MODEL 1
REMARK VINA RESULT:      -8.5      0.000      0.000
REMARK  Name = 
REMARK  4 active torsions:
REMARK  status: ('A' for Active; 'I' for Inactive)
REMARK    1  A    between atoms: C_2  and  C_3
REMARK    2  A    between atoms: C_6  and  N_7
REMARK    3  A    between atoms: C_18  and  N_19
REMARK    4  A    between atoms: N_19  and  C_20
REMARK                            x       y       z     vdW  Elec       q    Type
REMARK                         _______ _______ _______ _____ _____    ______ ____
ROOT
ATOM      1  O   UNL     1       3.692   6.543  17.303  0.00  0.00    +0.000 OA
ATOM      2  C   UNL     1       2.792   6.109  18.030  0.00  0.00    +0.000 C 
ATOM      3  N   UNL     1       2.400   4.764  18.032  0.00  0.00    +0.000 N 
ATOM      4  C   UNL     1       1.465   4.120  18.960  0.00  0.00    +0.000 C 
ATOM      5  C   UNL     1       2.124   2.988  19.735  0.00  0.00    +0.000 C 
ATOM      6  C   UNL     1       2.799   1.990  18.802  0.00  0.00    +0.000 C 
ATOM      7  C   UNL     1       3.766   2.676  17.819  0.00  0.00    +0.000 C 
ATOM      8  C   UNL     1       3.043   3.837  17.088  0.00  0.00    +0.000 C 
ENDROOT
BRANCH   2   9
ATOM      9  C   UNL     1       2.154   7.071  18.969  0.00  0.00    +0.000 A 
ATOM     10  C   UNL     1       1.910   6.746  20.301  0.00  0.00    +0.000 A 
ATOM     11  C   UNL     1       1.509   7.734  21.204  0.00  0.00    +0.000 A 
ATOM     12  C   UNL     1       1.232   9.036  20.772  0.00  0.00    +0.000 A 
ATOM     13  C   UNL     1       1.318   9.300  19.396  0.00  0.00    +0.000 A 
ATOM     14  C   UNL     1       1.792   8.336  18.500  0.00  0.00    +0.000 A 
BRANCH  12  15
ATOM     15  N   UNL     1       0.836  10.061  21.634  0.00  0.00    +0.000 N 
ATOM     16  C   UNL     1       0.428   9.746  23.011  0.00  0.00    +0.000 C 
ATOM     17  C   UNL     1      -1.034  10.164  23.090  0.00  0.00    +0.000 C 
ATOM     18  C   UNL     1      -1.082  11.364  22.163  0.00  0.00    +0.000 C 
ATOM     19  C   UNL     1      -0.160  10.957  21.017  0.00  0.00    +0.000 C 
ENDBRANCH  12  15
ENDBRANCH   2   9
BRANCH   7  20
ATOM     20  N   UNL     1       4.930   3.210  18.525  0.00  0.00    +0.000 N 
ATOM     21  H   UNL     1       5.266   2.635  19.294  0.00  0.00    +0.000 HD
BRANCH  20  22
ATOM     22  C   UNL     1       5.757   4.224  18.087  0.00  0.00    +0.000 A 
ATOM     23  C   UNL     1       6.127   4.399  16.747  0.00  0.00    +0.000 A 
ATOM     24  C   UNL     1       6.934   5.473  16.352  0.00  0.00    +0.000 A 
ATOM     25  C   UNL     1       7.367   6.387  17.301  0.00  0.00    +0.000 A 
ATOM     26  F   UNL     1       8.141   7.414  16.925  0.00  0.00    +0.000 F 
ATOM     27  C   UNL     1       7.004   6.256  18.631  0.00  0.00    +0.000 A 
ATOM     28  C   UNL     1       6.197   5.179  19.016  0.00  0.00    +0.000 A 
ENDBRANCH  20  22
ENDBRANCH   7  20
TORSDOF 4
ENDMDL
MODEL 2
REMARK VINA RESULT:      -8.3      2.500      3.697
REMARK  Name = 
REMARK  4 active torsions:
REMARK  status: ('A' for Active; 'I' for Inactive)
REMARK    1  A    between atoms: C_2  and  C_3
REMARK    2  A    between atoms: C_6  and  N_7
REMARK    3  A    between atoms: C_18  and  N_19
REMARK    4  A    between atoms: N_19  and  C_20
REMARK                            x       y       z     vdW  Elec       q    Type
REMARK                         _______ _______ _______ _____ _____    ______ ____
ROOT
ATOM      1  O   UNL     1       1.950   4.836  17.786  0.00  0.00    +0.000 OA
ATOM      2  C   UNL     1       2.795   5.537  18.351  0.00  0.00    +0.000 C 
ATOM      3  N   UNL     1       4.113   5.113  18.566  0.00  0.00    +0.000 N 
ATOM      4  C   UNL     1       5.226   5.919  19.076  0.00  0.00    +0.000 C 
ATOM      5  C   UNL     1       6.374   5.998  18.079  0.00  0.00    +0.000 C 
ATOM      6  C   UNL     1       6.818   4.611  17.628  0.00  0.00    +0.000 C 
ATOM      7  C   UNL     1       5.640   3.764  17.111  0.00  0.00    +0.000 C 
ATOM      8  C   UNL     1       4.496   3.753  18.157  0.00  0.00    +0.000 C 
ENDROOT
BRANCH   2   9
ATOM      9  C   UNL     1       2.377   6.905  18.762  0.00  0.00    +0.000 A 
ATOM     10  C   UNL     1       2.366   7.971  17.864  0.00  0.00    +0.000 A 
ATOM     11  C   UNL     1       1.772   9.184  18.221  0.00  0.00    +0.000 A 
ATOM     12  C   UNL     1       1.282   9.395  19.514  0.00  0.00    +0.000 A 
ATOM     13  C   UNL     1       1.460   8.367  20.455  0.00  0.00    +0.000 A 
ATOM     14  C   UNL     1       1.984   7.126  20.083  0.00  0.00    +0.000 A 
BRANCH  12  15
ATOM     15  N   UNL     1       0.674  10.585  19.918  0.00  0.00    +0.000 N 
ATOM     16  C   UNL     1      -0.793  10.694  19.927  0.00  0.00    +0.000 C 
ATOM     17  C   UNL     1      -1.108  11.781  18.908  0.00  0.00    +0.000 C 
ATOM     18  C   UNL     1       0.078  12.718  19.051  0.00  0.00    +0.000 C 
ATOM     19  C   UNL     1       1.253  11.764  19.248  0.00  0.00    +0.000 C 
ENDBRANCH  12  15
ENDBRANCH   2   9
BRANCH   7  20
ATOM     20  N   UNL     1       5.129   4.303  15.851  0.00  0.00    +0.000 N 
ATOM     21  H   UNL     1       4.322   4.915  15.943  0.00  0.00    +0.000 HD
BRANCH  20  22
ATOM     22  C   UNL     1       5.780   4.296  14.635  0.00  0.00    +0.000 A 
ATOM     23  C   UNL     1       6.951   5.023  14.378  0.00  0.00    +0.000 A 
ATOM     24  C   UNL     1       7.595   4.943  13.137  0.00  0.00    +0.000 A 
ATOM     25  C   UNL     1       7.073   4.124  12.147  0.00  0.00    +0.000 A 
ATOM     26  F   UNL     1       7.688   4.049  10.958  0.00  0.00    +0.000 F 
ATOM     27  C   UNL     1       5.929   3.377  12.373  0.00  0.00    +0.000 A 
ATOM     28  C   UNL     1       5.292   3.463  13.618  0.00  0.00    +0.000 A 
ENDBRANCH  20  22
ENDBRANCH   7  20
TORSDOF 4
ENDMDL
MODEL 3
REMARK VINA RESULT:      -8.2      1.055      1.575
REMARK  Name = 
REMARK  4 active torsions:
REMARK  status: ('A' for Active; 'I' for Inactive)
REMARK    1  A    between atoms: C_2  and  C_3
REMARK    2  A    between atoms: C_6  and  N_7
REMARK    3  A    between atoms: C_18  and  N_19
REMARK    4  A    between atoms: N_19  and  C_20
REMARK                            x       y       z     vdW  Elec       q    Type
REMARK                         _______ _______ _______ _____ _____    ______ ____
ROOT
ATOM      1  O   UNL     1       3.964   6.415  17.051  0.00  0.00    +0.000 OA
ATOM      2  C   UNL     1       3.044   6.167  17.836  0.00  0.00    +0.000 C 
ATOM      3  N   UNL     1       2.624   4.863  18.128  0.00  0.00    +0.000 N 
ATOM      4  C   UNL     1       1.661   4.455  19.155  0.00  0.00    +0.000 C 
ATOM      5  C   UNL     1       2.283   3.515  20.176  0.00  0.00    +0.000 C 
ATOM      6  C   UNL     1       2.955   2.323  19.502  0.00  0.00    +0.000 C 
ATOM      7  C   UNL     1       3.952   2.758  18.414  0.00  0.00    +0.000 C 
ATOM      8  C   UNL     1       3.265   3.739  17.428  0.00  0.00    +0.000 C 
ENDROOT
BRANCH   2   9
ATOM      9  C   UNL     1       2.408   7.324  18.523  0.00  0.00    +0.000 A 
ATOM     10  C   UNL     1       2.013   8.466  17.829  0.00  0.00    +0.000 A 
ATOM     11  C   UNL     1       1.234   9.438  18.460  0.00  0.00    +0.000 A 
ATOM     12  C   UNL     1       0.931   9.347  19.823  0.00  0.00    +0.000 A 
ATOM     13  C   UNL     1       1.484   8.276  20.545  0.00  0.00    +0.000 A 
ATOM     14  C   UNL     1       2.200   7.262  19.902  0.00  0.00    +0.000 A 
BRANCH  12  15
ATOM     15  N   UNL     1       0.149  10.287  20.498  0.00  0.00    +0.000 N 
ATOM     16  C   UNL     1      -1.046  10.849  19.852  0.00  0.00    +0.000 C 
ATOM     17  C   UNL     1      -0.750  12.337  19.715  0.00  0.00    +0.000 C 
ATOM     18  C   UNL     1       0.084  12.621  20.951  0.00  0.00    +0.000 C 
ATOM     19  C   UNL     1       0.960  11.377  21.073  0.00  0.00    +0.000 C 
ENDBRANCH  12  15
ENDBRANCH   2   9
BRANCH   7  20
ATOM     20  N   UNL     1       5.114   3.418  19.008  0.00  0.00    +0.000 N 
ATOM     21  H   UNL     1       5.469   2.980  19.855  0.00  0.00    +0.000 HD
BRANCH  20  22
ATOM     22  C   UNL     1       5.917   4.362  18.402  0.00  0.00    +0.000 A 
ATOM     23  C   UNL     1       6.276   4.321  17.048  0.00  0.00    +0.000 A 
ATOM     24  C   UNL     1       7.058   5.332  16.475  0.00  0.00    +0.000 A 
ATOM     25  C   UNL     1       7.478   6.398  17.256  0.00  0.00    +0.000 A 
ATOM     26  F   UNL     1       8.228   7.364  16.709  0.00  0.00    +0.000 F 
ATOM     27  C   UNL     1       7.125   6.480  18.594  0.00  0.00    +0.000 A 
ATOM     28  C   UNL     1       6.343   5.465  19.157  0.00  0.00    +0.000 A 
ENDBRANCH  20  22
ENDBRANCH   7  20
TORSDOF 4
ENDMDL
MODEL 4
REMARK VINA RESULT:      -8.1      0.678      1.320
REMARK  Name = 
REMARK  4 active torsions:
REMARK  status: ('A' for Active; 'I' for Inactive)
REMARK    1  A    between atoms: C_2  and  C_3
REMARK    2  A    between atoms: C_6  and  N_7
REMARK    3  A    between atoms: C_18  and  N_19
REMARK    4  A    between atoms: N_19  and  C_20
REMARK                            x       y       z     vdW  Elec       q    Type
REMARK                         _______ _______ _______ _____ _____    ______ ____
ROOT
ATOM      1  O   UNL     1       3.793   6.519  17.225  0.00  0.00    +0.000 OA
ATOM      2  C   UNL     1       2.871   6.145  17.956  0.00  0.00    +0.000 C 
ATOM      3  N   UNL     1       2.493   4.801  18.074  0.00  0.00    +0.000 N 
ATOM      4  C   UNL     1       1.530   4.236  19.025  0.00  0.00    +0.000 C 
ATOM      5  C   UNL     1       2.170   3.194  19.930  0.00  0.00    +0.000 C 
ATOM      6  C   UNL     1       2.891   2.120  19.123  0.00  0.00    +0.000 C 
ATOM      7  C   UNL     1       3.887   2.721  18.115  0.00  0.00    +0.000 C 
ATOM      8  C   UNL     1       3.180   3.796  17.249  0.00  0.00    +0.000 C 
ENDROOT
BRANCH   2   9
ATOM      9  C   UNL     1       2.188   7.184  18.773  0.00  0.00    +0.000 A 
ATOM     10  C   UNL     1       2.013   7.041  20.148  0.00  0.00    +0.000 A 
ATOM     11  C   UNL     1       1.562   8.118  20.915  0.00  0.00    +0.000 A 
ATOM     12  C   UNL     1       1.170   9.319  20.313  0.00  0.00    +0.000 A 
ATOM     13  C   UNL     1       1.190   9.383  18.911  0.00  0.00    +0.000 A 
ATOM     14  C   UNL     1       1.711   8.336  18.144  0.00  0.00    +0.000 A 
BRANCH  12  15
ATOM     15  N   UNL     1       0.720  10.426  21.035  0.00  0.00    +0.000 N 
ATOM     16  C   UNL     1      -0.708  10.565  21.355  0.00  0.00    +0.000 C 
ATOM     17  C   UNL     1      -1.149  11.829  20.630  0.00  0.00    +0.000 C 
ATOM     18  C   UNL     1       0.095  12.696  20.697  0.00  0.00    +0.000 C 
ATOM     19  C   UNL     1       1.228  11.697  20.484  0.00  0.00    +0.000 C 
ENDBRANCH  12  15
ENDBRANCH   2   9
BRANCH   7  20
ATOM     20  N   UNL     1       5.018   3.337  18.808  0.00  0.00    +0.000 N 
ATOM     21  H   UNL     1       5.382   2.802  19.593  0.00  0.00    +0.000 HD
BRANCH  20  22
ATOM     22  C   UNL     1       5.790   4.382  18.344  0.00  0.00    +0.000 A 
ATOM     23  C   UNL     1       6.293   5.399  19.165  0.00  0.00    +0.000 A 
ATOM     24  C   UNL     1       7.110   6.412  18.647  0.00  0.00    +0.000 A 
ATOM     25  C   UNL     1       7.436   6.404  17.299  0.00  0.00    +0.000 A 
ATOM     26  F   UNL     1       8.215   7.374  16.802  0.00  0.00    +0.000 F 
ATOM     27  C   UNL     1       6.971   5.403  16.462  0.00  0.00    +0.000 A 
ATOM     28  C   UNL     1       6.156   4.395  16.990  0.00  0.00    +0.000 A 
ENDBRANCH  20  22
ENDBRANCH   7  20
TORSDOF 4
ENDMDL
MODEL 5
REMARK VINA RESULT:      -8.1      2.475      3.655
REMARK  Name = 
REMARK  4 active torsions:
REMARK  status: ('A' for Active; 'I' for Inactive)
REMARK    1  A    between atoms: C_2  and  C_3
REMARK    2  A    between atoms: C_6  and  N_7
REMARK    3  A    between atoms: C_18  and  N_19
REMARK    4  A    between atoms: N_19  and  C_20
REMARK                            x       y       z     vdW  Elec       q    Type
REMARK                         _______ _______ _______ _____ _____    ______ ____
ROOT
ATOM      1  O   UNL     1       2.093   4.824  17.835  0.00  0.00    +0.000 OA
ATOM      2  C   UNL     1       2.921   5.605  18.315  0.00  0.00    +0.000 C 
ATOM      3  N   UNL     1       4.265   5.260  18.511  0.00  0.00    +0.000 N 
ATOM      4  C   UNL     1       5.354   6.154  18.918  0.00  0.00    +0.000 C 
ATOM      5  C   UNL     1       6.462   6.211  17.876  0.00  0.00    +0.000 C 
ATOM      6  C   UNL     1       6.958   4.816  17.511  0.00  0.00    +0.000 C 
ATOM      7  C   UNL     1       5.807   3.879  17.101  0.00  0.00    +0.000 C 
ATOM      8  C   UNL     1       4.701   3.893  18.188  0.00  0.00    +0.000 C 
ENDROOT
BRANCH   2   9
ATOM      9  C   UNL     1       2.451   6.978  18.640  0.00  0.00    +0.000 A 
ATOM     10  C   UNL     1       2.427   7.993  17.685  0.00  0.00    +0.000 A 
ATOM     11  C   UNL     1       1.787   9.203  17.960  0.00  0.00    +0.000 A 
ATOM     12  C   UNL     1       1.259   9.468  19.229  0.00  0.00    +0.000 A 
ATOM     13  C   UNL     1       1.446   8.500  20.229  0.00  0.00    +0.000 A 
ATOM     14  C   UNL     1       2.019   7.257  19.938  0.00  0.00    +0.000 A 
BRANCH  12  15
ATOM     15  N   UNL     1       0.604  10.658  19.553  0.00  0.00    +0.000 N 
ATOM     16  C   UNL     1       1.263  11.949  19.312  0.00  0.00    +0.000 C 
ATOM     17  C   UNL     1       1.426  12.567  20.694  0.00  0.00    +0.000 C 
ATOM     18  C   UNL     1       0.194  12.067  21.424  0.00  0.00    +0.000 C 
ATOM     19  C   UNL     1       0.046  10.635  20.918  0.00  0.00    +0.000 C 
ENDBRANCH  12  15
ENDBRANCH   2   9
BRANCH   7  20
ATOM     20  N   UNL     1       5.227   4.298  15.826  0.00  0.00    +0.000 N 
ATOM     21  H   UNL     1       4.402   4.886  15.903  0.00  0.00    +0.000 HD
BRANCH  20  22
ATOM     22  C   UNL     1       5.831   4.217  14.588  0.00  0.00    +0.000 A 
ATOM     23  C   UNL     1       5.328   3.452  13.527  0.00  0.00    +0.000 A 
ATOM     24  C   UNL     1       5.960   3.443  12.277  0.00  0.00    +0.000 A 
ATOM     25  C   UNL     1       7.096   4.212  12.080  0.00  0.00    +0.000 A 
ATOM     26  F   UNL     1       7.702   4.202  10.884  0.00  0.00    +0.000 F 
ATOM     27  C   UNL     1       7.609   4.996  13.100  0.00  0.00    +0.000 A 
ATOM     28  C   UNL     1       6.971   4.999  14.346  0.00  0.00    +0.000 A 
ENDBRANCH  20  22
ENDBRANCH   7  20
TORSDOF 4
ENDMDL
MODEL 6
REMARK VINA RESULT:      -8.0      3.702      8.383
REMARK  Name = 
REMARK  4 active torsions:
REMARK  status: ('A' for Active; 'I' for Inactive)
REMARK    1  A    between atoms: C_2  and  C_3
REMARK    2  A    between atoms: C_6  and  N_7
REMARK    3  A    between atoms: C_18  and  N_19
REMARK    4  A    between atoms: N_19  and  C_20
REMARK                            x       y       z     vdW  Elec       q    Type
REMARK                         _______ _______ _______ _____ _____    ______ ____
ROOT
ATOM      1  O   UNL     1       1.408   9.485  17.361  0.00  0.00    +0.000 OA
ATOM      2  C   UNL     1       1.700   9.129  18.507  0.00  0.00    +0.000 C 
ATOM      3  N   UNL     1       1.321   9.851  19.646  0.00  0.00    +0.000 N 
ATOM      4  C   UNL     1       1.475   9.438  21.044  0.00  0.00    +0.000 C 
ATOM      5  C   UNL     1       0.136   9.352  21.762  0.00  0.00    +0.000 C 
ATOM      6  C   UNL     1      -0.657  10.648  21.622  0.00  0.00    +0.000 C 
ATOM      7  C   UNL     1      -0.799  11.085  20.153  0.00  0.00    +0.000 C 
ATOM      8  C   UNL     1       0.594  11.119  19.473  0.00  0.00    +0.000 C 
ENDROOT
BRANCH   2   9
ATOM      9  C   UNL     1       2.442   7.848  18.652  0.00  0.00    +0.000 A 
ATOM     10  C   UNL     1       2.217   6.985  19.722  0.00  0.00    +0.000 A 
ATOM     11  C   UNL     1       2.770   5.702  19.719  0.00  0.00    +0.000 A 
ATOM     12  C   UNL     1       3.648   5.297  18.708  0.00  0.00    +0.000 A 
ATOM     13  C   UNL     1       3.997   6.241  17.729  0.00  0.00    +0.000 A 
ATOM     14  C   UNL     1       3.389   7.500  17.687  0.00  0.00    +0.000 A 
BRANCH  12  15
ATOM     15  N   UNL     1       4.220   4.024  18.655  0.00  0.00    +0.000 N 
ATOM     16  C   UNL     1       4.137   3.232  17.418  0.00  0.00    +0.000 C 
ATOM     17  C   UNL     1       3.319   2.004  17.796  0.00  0.00    +0.000 C 
ATOM     18  C   UNL     1       3.724   1.773  19.240  0.00  0.00    +0.000 C 
ATOM     19  C   UNL     1       3.828   3.187  19.804  0.00  0.00    +0.000 C 
ENDBRANCH  12  15
ENDBRANCH   2   9
BRANCH   7  20
ATOM     20  N   UNL     1      -1.664  10.163  19.419  0.00  0.00    +0.000 N 
ATOM     21  H   UNL     1      -2.028   9.388  19.968  0.00  0.00    +0.000 HD
BRANCH  20  22
ATOM     22  C   UNL     1      -2.243  10.390  18.188  0.00  0.00    +0.000 A 
ATOM     23  C   UNL     1      -1.818   9.773  17.004  0.00  0.00    +0.000 A 
ATOM     24  C   UNL     1      -2.473  10.008  15.788  0.00  0.00    +0.000 A 
ATOM     25  C   UNL     1      -3.568  10.858  15.755  0.00  0.00    +0.000 A 
ATOM     26  F   UNL     1      -4.194  11.085  14.592  0.00  0.00    +0.000 F 
ATOM     27  C   UNL     1      -4.028  11.470  16.910  0.00  0.00    +0.000 A 
ATOM     28  C   UNL     1      -3.367  11.228  18.120  0.00  0.00    +0.000 A 
ENDBRANCH  20  22
ENDBRANCH   7  20
TORSDOF 4
ENDMDL
MODEL 7
REMARK VINA RESULT:      -8.0      3.881      8.596
REMARK  Name = 
REMARK  4 active torsions:
REMARK  status: ('A' for Active; 'I' for Inactive)
REMARK    1  A    between atoms: C_2  and  C_3
REMARK    2  A    between atoms: C_6  and  N_7
REMARK    3  A    between atoms: C_18  and  N_19
REMARK    4  A    between atoms: N_19  and  C_20
REMARK                            x       y       z     vdW  Elec       q    Type
REMARK                         _______ _______ _______ _____ _____    ______ ____
ROOT
ATOM      1  O   UNL     1       1.233  11.099  20.337  0.00  0.00    +0.000 OA
ATOM      2  C   UNL     1       0.621  10.251  19.681  0.00  0.00    +0.000 C 
ATOM      3  N   UNL     1      -0.719  10.406  19.302  0.00  0.00    +0.000 N 
ATOM      4  C   UNL     1      -1.485   9.544  18.396  0.00  0.00    +0.000 C 
ATOM      5  C   UNL     1      -1.997  10.307  17.183  0.00  0.00    +0.000 C 
ATOM      6  C   UNL     1      -2.772  11.555  17.594  0.00  0.00    +0.000 C 
ATOM      7  C   UNL     1      -1.969  12.445  18.559  0.00  0.00    +0.000 C 
ATOM      8  C   UNL     1      -1.450  11.601  19.752  0.00  0.00    +0.000 C 
ENDROOT
BRANCH   2   9
ATOM      9  C   UNL     1       1.382   9.049  19.247  0.00  0.00    +0.000 A 
ATOM     10  C   UNL     1       1.954   8.959  17.979  0.00  0.00    +0.000 A 
ATOM     11  C   UNL     1       2.835   7.917  17.678  0.00  0.00    +0.000 A 
ATOM     12  C   UNL     1       3.073   6.886  18.592  0.00  0.00    +0.000 A 
ATOM     13  C   UNL     1       2.353   6.903  19.798  0.00  0.00    +0.000 A 
ATOM     14  C   UNL     1       1.529   7.982  20.135  0.00  0.00    +0.000 A 
BRANCH  12  15
ATOM     15  N   UNL     1       3.950   5.828  18.342  0.00  0.00    +0.000 N 
ATOM     16  C   UNL     1       5.188   6.063  17.586  0.00  0.00    +0.000 C 
ATOM     17  C   UNL     1       5.040   5.222  16.325  0.00  0.00    +0.000 C 
ATOM     18  C   UNL     1       4.250   4.025  16.821  0.00  0.00    +0.000 C 
ATOM     19  C   UNL     1       3.257   4.644  17.800  0.00  0.00    +0.000 C 
ENDBRANCH  12  15
ENDBRANCH   2   9
BRANCH   7  20
ATOM     20  N   UNL     1      -0.829  13.054  17.875  0.00  0.00    +0.000 N 
ATOM     21  H   UNL     1      -0.866  13.014  16.860  0.00  0.00    +0.000 HD
BRANCH  20  22
ATOM     22  C   UNL     1       0.108  13.896  18.439  0.00  0.00    +0.000 A 
ATOM     23  C   UNL     1       1.490  13.677  18.371  0.00  0.00    +0.000 A 
ATOM     24  C   UNL     1       2.397  14.590  18.923  0.00  0.00    +0.000 A 
ATOM     25  C   UNL     1       1.922  15.738  19.540  0.00  0.00    +0.000 A 
ATOM     26  F   UNL     1       2.789  16.611  20.070  0.00  0.00    +0.000 F 
ATOM     27  C   UNL     1       0.562  15.996  19.608  0.00  0.00    +0.000 A 
ATOM     28  C   UNL     1      -0.336  15.078  19.052  0.00  0.00    +0.000 A 
ENDBRANCH  20  22
ENDBRANCH   7  20
TORSDOF 4
ENDMDL
MODEL 8
REMARK VINA RESULT:      -8.0      4.408     10.106
REMARK  Name = 
REMARK  4 active torsions:
REMARK  status: ('A' for Active; 'I' for Inactive)
REMARK    1  A    between atoms: C_2  and  C_3
REMARK    2  A    between atoms: C_6  and  N_7
REMARK    3  A    between atoms: C_18  and  N_19
REMARK    4  A    between atoms: N_19  and  C_20
REMARK                            x       y       z     vdW  Elec       q    Type
REMARK                         _______ _______ _______ _____ _____    ______ ____
ROOT
ATOM      1  O   UNL     1      -1.529  10.114  18.711  0.00  0.00    +0.000 OA
ATOM      2  C   UNL     1      -0.399  10.514  19.007  0.00  0.00    +0.000 C 
ATOM      3  N   UNL     1      -0.125  11.852  19.320  0.00  0.00    +0.000 N 
ATOM      4  C   UNL     1       1.135  12.397  19.836  0.00  0.00    +0.000 C 
ATOM      5  C   UNL     1       0.952  13.062  21.192  0.00  0.00    +0.000 C 
ATOM      6  C   UNL     1      -0.162  14.103  21.159  0.00  0.00    +0.000 C 
ATOM      7  C   UNL     1      -1.476  13.528  20.599  0.00  0.00    +0.000 C 
ATOM      8  C   UNL     1      -1.214  12.837  19.236  0.00  0.00    +0.000 C 
ENDROOT
BRANCH   2   9
ATOM      9  C   UNL     1       0.685   9.498  19.076  0.00  0.00    +0.000 A 
ATOM     10  C   UNL     1       1.009   8.848  20.265  0.00  0.00    +0.000 A 
ATOM     11  C   UNL     1       1.879   7.755  20.255  0.00  0.00    +0.000 A 
ATOM     12  C   UNL     1       2.530   7.362  19.080  0.00  0.00    +0.000 A 
ATOM     13  C   UNL     1       2.322   8.137  17.928  0.00  0.00    +0.000 A 
ATOM     14  C   UNL     1       1.395   9.184  17.915  0.00  0.00    +0.000 A 
BRANCH  12  15
ATOM     15  N   UNL     1       3.402   6.273  19.015  0.00  0.00    +0.000 N 
ATOM     16  C   UNL     1       4.375   6.175  17.918  0.00  0.00    +0.000 C 
ATOM     17  C   UNL     1       3.979   4.917  17.157  0.00  0.00    +0.000 C 
ATOM     18  C   UNL     1       3.455   4.018  18.261  0.00  0.00    +0.000 C 
ATOM     19  C   UNL     1       2.699   4.985  19.168  0.00  0.00    +0.000 C 
ENDBRANCH  12  15
ENDBRANCH   2   9
BRANCH   7  20
ATOM     20  N   UNL     1      -2.050  12.552  21.524  0.00  0.00    +0.000 N 
ATOM     21  H   UNL     1      -1.417  11.812  21.815  0.00  0.00    +0.000 HD
BRANCH  20  22
ATOM     22  C   UNL     1      -3.224  12.694  22.237  0.00  0.00    +0.000 A 
ATOM     23  C   UNL     1      -4.458  12.998  21.647  0.00  0.00    +0.000 A 
ATOM     24  C   UNL     1      -5.626  13.086  22.415  0.00  0.00    +0.000 A 
ATOM     25  C   UNL     1      -5.564  12.858  23.781  0.00  0.00    +0.000 A 
ATOM     26  F   UNL     1      -6.681  12.944  24.517  0.00  0.00    +0.000 F 
ATOM     27  C   UNL     1      -4.365  12.536  24.395  0.00  0.00    +0.000 A 
ATOM     28  C   UNL     1      -3.203  12.450  23.618  0.00  0.00    +0.000 A 
ENDBRANCH  20  22
ENDBRANCH   7  20
TORSDOF 4
ENDMDL
MODEL 9
REMARK VINA RESULT:      -8.0      3.851      8.458
REMARK  Name = 
REMARK  4 active torsions:
REMARK  status: ('A' for Active; 'I' for Inactive)
REMARK    1  A    between atoms: C_2  and  C_3
REMARK    2  A    between atoms: C_6  and  N_7
REMARK    3  A    between atoms: C_18  and  N_19
REMARK    4  A    between atoms: N_19  and  C_20
REMARK                            x       y       z     vdW  Elec       q    Type
REMARK                         _______ _______ _______ _____ _____    ______ ____
ROOT
ATOM      1  O   UNL     1       1.103  11.224  20.507  0.00  0.00    +0.000 OA
ATOM      2  C   UNL     1       0.556  10.334  19.847  0.00  0.00    +0.000 C 
ATOM      3  N   UNL     1      -0.759  10.437  19.377  0.00  0.00    +0.000 N 
ATOM      4  C   UNL     1      -1.442   9.520  18.458  0.00  0.00    +0.000 C 
ATOM      5  C   UNL     1      -1.893  10.223  17.186  0.00  0.00    +0.000 C 
ATOM      6  C   UNL     1      -2.725  11.462  17.497  0.00  0.00    +0.000 C 
ATOM      7  C   UNL     1      -2.010  12.411  18.475  0.00  0.00    +0.000 C 
ATOM      8  C   UNL     1      -1.548  11.628  19.731  0.00  0.00    +0.000 C 
ENDROOT
BRANCH   2   9
ATOM      9  C   UNL     1       1.375   9.139  19.510  0.00  0.00    +0.000 A 
ATOM     10  C   UNL     1       1.559   8.095  20.415  0.00  0.00    +0.000 A 
ATOM     11  C   UNL     1       2.150   6.900  19.999  0.00  0.00    +0.000 A 
ATOM     12  C   UNL     1       2.672   6.764  18.708  0.00  0.00    +0.000 A 
ATOM     13  C   UNL     1       2.632   7.888  17.866  0.00  0.00    +0.000 A 
ATOM     14  C   UNL     1       1.974   9.060  18.252  0.00  0.00    +0.000 A 
BRANCH  12  15
ATOM     15  N   UNL     1       3.266   5.589  18.241  0.00  0.00    +0.000 N 
ATOM     16  C   UNL     1       2.425   4.468  17.796  0.00  0.00    +0.000 C 
ATOM     17  C   UNL     1       2.747   3.334  18.759  0.00  0.00    +0.000 C 
ATOM     18  C   UNL     1       4.214   3.570  19.064  0.00  0.00    +0.000 C 
ATOM     19  C   UNL     1       4.311   5.090  19.154  0.00  0.00    +0.000 C 
ENDBRANCH  12  15
ENDBRANCH   2   9
BRANCH   7  20
ATOM     20  N   UNL     1      -0.844  13.025  17.842  0.00  0.00    +0.000 N 
ATOM     21  H   UNL     1      -0.806  12.932  16.831  0.00  0.00    +0.000 HD
BRANCH  20  22
ATOM     22  C   UNL     1       0.021  13.929  18.425  0.00  0.00    +0.000 A 
ATOM     23  C   UNL     1      -0.401  15.064  19.130  0.00  0.00    +0.000 A 
ATOM     24  C   UNL     1       0.521  15.924  19.739  0.00  0.00    +0.000 A 
ATOM     25  C   UNL     1       1.877  15.643  19.654  0.00  0.00    +0.000 A 
ATOM     26  F   UNL     1       2.760  16.466  20.235  0.00  0.00    +0.000 F 
ATOM     27  C   UNL     1       2.329  14.519  18.982  0.00  0.00    +0.000 A 
ATOM     28  C   UNL     1       1.398  13.666  18.377  0.00  0.00    +0.000 A 
ENDBRANCH  20  22
ENDBRANCH   7  20
TORSDOF 4
ENDMDL
