MODEL 1
REMARK VINA RESULT:      -8.3      0.000      0.000
REMARK  Name = 
REMARK  9 active torsions:
REMARK  status: ('A' for Active; 'I' for Inactive)
REMARK    1  A    between atoms: C_1  and  C_2
REMARK    2  A    between atoms: C_2  and  N_3
REMARK    3  A    between atoms: N_3  and  C_4
REMARK    4  A    between atoms: C_4  and  C_5
REMARK    5  A    between atoms: C_7  and  C_8
REMARK    6  A    between atoms: C_17  and  C_18
REMARK    7  A    between atoms: C_18  and  O_20
REMARK    8  A    between atoms: N_22  and  C_23
REMARK    9  A    between atoms: C_27  and  C_28
REMARK                            x       y       z     vdW  Elec       q    Type
REMARK                         _______ _______ _______ _____ _____    ______ ____
ROOT
ATOM      1  C   UNL     1       1.634   8.741  19.027  0.00  0.00    +0.000 A 
ATOM      2  C   UNL     1       1.912   7.437  19.498  0.00  0.00    +0.000 A 
ATOM      3  C   UNL     1       2.912   6.630  18.932  0.00  0.00    +0.000 A 
ATOM      4  C   UNL     1       3.623   7.146  17.831  0.00  0.00    +0.000 A 
ATOM      5  C   UNL     1       3.343   8.410  17.314  0.00  0.00    +0.000 A 
ATOM      6  C   UNL     1       2.365   9.192  17.915  0.00  0.00    +0.000 A 
ATOM      7  F   UNL     1       2.175  10.425  17.426  0.00  0.00    +0.000 F 
ATOM      8  C   UNL     1       4.723   6.356  17.239  0.00  0.00    +0.000 A 
ATOM      9  O   UNL     1       5.333   6.748  16.247  0.00  0.00    +0.000 OA
ATOM     10  C   UNL     1       5.111   5.091  17.895  0.00  0.00    +0.000 A 
ATOM     11  C   UNL     1       4.361   4.688  18.933  0.00  0.00    +0.000 A 
ATOM     12  N   UNL     1       3.246   5.341  19.436  0.00  0.00    +0.000 N 
ENDROOT
BRANCH   1  15
ATOM     13  C   UNL     1      -1.137  11.207  19.695  0.00  0.00    +0.000 A 
ATOM     14  C   UNL     1      -0.124  10.512  19.040  0.00  0.00    +0.000 A 
ATOM     15  C   UNL     1       0.695   9.627  19.749  0.00  0.00    +0.000 A 
ATOM     16  C   UNL     1       0.500   9.557  21.135  0.00  0.00    +0.000 A 
ATOM     17  C   UNL     1      -0.498  10.320  21.737  0.00  0.00    +0.000 A 
ATOM     18  C   UNL     1      -0.735  10.249  23.216  0.00  0.00    +0.000 C 
ATOM     19  N   UNL     1      -1.321  11.131  21.034  0.00  0.00    +0.000 NA
BRANCH  13  20
ATOM     20  C   UNL     1      -2.155  11.982  18.881  0.00  0.00    +0.000 C 
BRANCH  20  21
ATOM     21  N   UNL     1      -2.003  11.832  17.419  0.00  0.00    +0.000 NA
ATOM     22  H   UNL     1      -1.869  12.759  17.016  0.00  0.00    +0.000 HD
BRANCH  21  24
ATOM     23  C   UNL     1      -2.808  10.633  15.448  0.00  0.00    +0.000 C 
ATOM     24  C   UNL     1      -3.183  11.213  16.804  0.00  0.00    +0.000 C 
ENDBRANCH  21  24
ENDBRANCH  20  21
ENDBRANCH  13  20
ENDBRANCH   1  15
BRANCH  12  25
ATOM     25  C   UNL     1       2.630   4.798  20.665  0.00  0.00    +0.000 C 
ATOM     26  C   UNL     1       1.225   4.249  20.685  0.00  0.00    +0.000 C 
ATOM     27  C   UNL     1       2.384   3.317  20.837  0.00  0.00    +0.000 C 
ENDBRANCH  12  25
BRANCH  10  28
ATOM     28  C   UNL     1       6.265   4.274  17.465  0.00  0.00    +0.000 C 
ATOM     29  O   UNL     1       7.318   4.231  18.082  0.00  0.00    +0.000 OA
BRANCH  28  30
ATOM     30  O   UNL     1       6.068   3.578  16.328  0.00  0.00    +0.000 OA
ATOM     31  H   UNL     1       5.929   4.138  15.528  0.00  0.00    +0.000 HD
ENDBRANCH  28  30
ENDBRANCH  10  28
TORSDOF 7
ENDMDL
MODEL 2
REMARK VINA RESULT:      -8.2      2.354      3.501
REMARK  Name = 
REMARK  9 active torsions:
REMARK  status: ('A' for Active; 'I' for Inactive)
REMARK    1  A    between atoms: C_1  and  C_2
REMARK    2  A    between atoms: C_2  and  N_3
REMARK    3  A    between atoms: N_3  and  C_4
REMARK    4  A    between atoms: C_4  and  C_5
REMARK    5  A    between atoms: C_7  and  C_8
REMARK    6  A    between atoms: C_17  and  C_18
REMARK    7  A    between atoms: C_18  and  O_20
REMARK    8  A    between atoms: N_22  and  C_23
REMARK    9  A    between atoms: C_27  and  C_28
REMARK                            x       y       z     vdW  Elec       q    Type
REMARK                         _______ _______ _______ _____ _____    ______ ____
ROOT
ATOM      1  C   UNL     1       1.600   8.578  19.401  0.00  0.00    +0.000 A 
ATOM      2  C   UNL     1       2.580   7.944  18.603  0.00  0.00    +0.000 A 
ATOM      3  C   UNL     1       3.003   6.626  18.837  0.00  0.00    +0.000 A 
ATOM      4  C   UNL     1       2.445   5.945  19.936  0.00  0.00    +0.000 A 
ATOM      5  C   UNL     1       1.509   6.557  20.769  0.00  0.00    +0.000 A 
ATOM      6  C   UNL     1       1.093   7.853  20.493  0.00  0.00    +0.000 A 
ATOM      7  F   UNL     1       0.145   8.377  21.281  0.00  0.00    +0.000 F 
ATOM      8  C   UNL     1       2.817   4.537  20.187  0.00  0.00    +0.000 A 
ATOM      9  O   UNL     1       2.391   3.925  21.164  0.00  0.00    +0.000 OA
ATOM     10  C   UNL     1       3.686   3.856  19.207  0.00  0.00    +0.000 A 
ATOM     11  C   UNL     1       4.170   4.600  18.200  0.00  0.00    +0.000 A 
ATOM     12  N   UNL     1       3.942   5.953  18.004  0.00  0.00    +0.000 N 
ENDROOT
BRANCH   1  15
ATOM     13  C   UNL     1      -0.785  11.237  18.199  0.00  0.00    +0.000 A 
ATOM     14  C   UNL     1      -0.182   9.995  18.380  0.00  0.00    +0.000 A 
ATOM     15  C   UNL     1       1.054   9.901  19.028  0.00  0.00    +0.000 A 
ATOM     16  C   UNL     1       1.673  11.106  19.389  0.00  0.00    +0.000 A 
ATOM     17  C   UNL     1       1.038  12.319  19.131  0.00  0.00    +0.000 A 
ATOM     18  C   UNL     1       1.675  13.620  19.522  0.00  0.00    +0.000 C 
ATOM     19  N   UNL     1      -0.183  12.396  18.553  0.00  0.00    +0.000 NA
BRANCH  13  20
ATOM     20  C   UNL     1      -2.218  11.304  17.705  0.00  0.00    +0.000 C 
BRANCH  20  21
ATOM     21  N   UNL     1      -2.347  11.552  16.253  0.00  0.00    +0.000 NA
ATOM     22  H   UNL     1      -2.458  12.556  16.112  0.00  0.00    +0.000 HD
BRANCH  21  24
ATOM     23  C   UNL     1      -3.072  10.082  14.442  0.00  0.00    +0.000 C 
ATOM     24  C   UNL     1      -3.504  10.859  15.678  0.00  0.00    +0.000 C 
ENDBRANCH  21  24
ENDBRANCH  20  21
ENDBRANCH  13  20
ENDBRANCH   1  15
BRANCH  12  25
ATOM     25  C   UNL     1       4.465   6.564  16.764  0.00  0.00    +0.000 C 
ATOM     26  C   UNL     1       5.938   6.805  16.544  0.00  0.00    +0.000 C 
ATOM     27  C   UNL     1       5.235   5.753  15.748  0.00  0.00    +0.000 C 
ENDBRANCH  12  25
BRANCH  10  28
ATOM     28  C   UNL     1       4.033   2.421  19.289  0.00  0.00    +0.000 C 
ATOM     29  O   UNL     1       3.490   1.564  18.608  0.00  0.00    +0.000 OA
BRANCH  28  30
ATOM     30  O   UNL     1       4.999   2.127  20.182  0.00  0.00    +0.000 OA
ATOM     31  H   UNL     1       4.862   2.528  21.073  0.00  0.00    +0.000 HD
ENDBRANCH  28  30
ENDBRANCH  10  28
TORSDOF 7
ENDMDL
MODEL 3
REMARK VINA RESULT:      -7.9      3.531      7.901
REMARK  Name = 
REMARK  9 active torsions:
REMARK  status: ('A' for Active; 'I' for Inactive)
REMARK    1  A    between atoms: C_1  and  C_2
REMARK    2  A    between atoms: C_2  and  N_3
REMARK    3  A    between atoms: N_3  and  C_4
REMARK    4  A    between atoms: C_4  and  C_5
REMARK    5  A    between atoms: C_7  and  C_8
REMARK    6  A    between atoms: C_17  and  C_18
REMARK    7  A    between atoms: C_18  and  O_20
REMARK    8  A    between atoms: N_22  and  C_23
REMARK    9  A    between atoms: C_27  and  C_28
REMARK                            x       y       z     vdW  Elec       q    Type
REMARK                         _______ _______ _______ _____ _____    ______ ____
ROOT
ATOM      1  C   UNL     1       2.184   7.685  19.202  0.00  0.00    +0.000 A 
ATOM      2  C   UNL     1       1.380   8.331  20.169  0.00  0.00    +0.000 A 
ATOM      3  C   UNL     1       0.966   9.666  20.033  0.00  0.00    +0.000 A 
ATOM      4  C   UNL     1       1.412  10.377  18.903  0.00  0.00    +0.000 A 
ATOM      5  C   UNL     1       2.242   9.783  17.952  0.00  0.00    +0.000 A 
ATOM      6  C   UNL     1       2.612   8.453  18.105  0.00  0.00    +0.000 A 
ATOM      7  F   UNL     1       3.356   7.905  17.135  0.00  0.00    +0.000 F 
ATOM      8  C   UNL     1       0.954  11.766  18.688  0.00  0.00    +0.000 A 
ATOM      9  O   UNL     1       1.361  12.436  17.741  0.00  0.00    +0.000 OA
ATOM     10  C   UNL     1      -0.047  12.326  19.616  0.00  0.00    +0.000 A 
ATOM     11  C   UNL     1      -0.398  11.566  20.665  0.00  0.00    +0.000 A 
ATOM     12  N   UNL     1       0.104  10.309  20.966  0.00  0.00    +0.000 N 
ENDROOT
BRANCH   1  15
ATOM     13  C   UNL     1       3.828   4.336  18.669  0.00  0.00    +0.000 A 
ATOM     14  C   UNL     1       3.429   5.653  18.461  0.00  0.00    +0.000 A 
ATOM     15  C   UNL     1       2.463   6.235  19.289  0.00  0.00    +0.000 A 
ATOM     16  C   UNL     1       1.871   5.405  20.251  0.00  0.00    +0.000 A 
ATOM     17  C   UNL     1       2.279   4.079  20.372  0.00  0.00    +0.000 A 
ATOM     18  C   UNL     1       1.671   3.177  21.404  0.00  0.00    +0.000 C 
ATOM     19  N   UNL     1       3.254   3.542  19.603  0.00  0.00    +0.000 NA
BRANCH  13  20
ATOM     20  C   UNL     1       5.030   3.794  17.918  0.00  0.00    +0.000 C 
BRANCH  20  21
ATOM     21  N   UNL     1       6.328   4.086  18.561  0.00  0.00    +0.000 NA
ATOM     22  H   UNL     1       6.161   4.720  19.342  0.00  0.00    +0.000 HD
BRANCH  21  24
ATOM     23  C   UNL     1       7.291   6.220  17.864  0.00  0.00    +0.000 C 
ATOM     24  C   UNL     1       7.272   4.716  17.631  0.00  0.00    +0.000 C 
ENDBRANCH  21  24
ENDBRANCH  20  21
ENDBRANCH  13  20
ENDBRANCH   1  15
BRANCH  12  25
ATOM     25  C   UNL     1      -0.503   9.581  22.101  0.00  0.00    +0.000 C 
ATOM     26  C   UNL     1       0.180   9.467  23.441  0.00  0.00    +0.000 C 
ATOM     27  C   UNL     1      -1.046  10.311  23.307  0.00  0.00    +0.000 C 
ENDBRANCH  12  25
BRANCH  10  28
ATOM     28  C   UNL     1      -0.664  13.657  19.439  0.00  0.00    +0.000 C 
ATOM     29  O   UNL     1      -0.966  14.382  20.374  0.00  0.00    +0.000 OA
BRANCH  28  30
ATOM     30  O   UNL     1      -0.875  14.012  18.155  0.00  0.00    +0.000 OA
ATOM     31  H   UNL     1      -0.052  14.202  17.647  0.00  0.00    +0.000 HD
ENDBRANCH  28  30
ENDBRANCH  10  28
TORSDOF 7
ENDMDL
MODEL 4
REMARK VINA RESULT:      -7.9      1.157      1.557
REMARK  Name = 
REMARK  9 active torsions:
REMARK  status: ('A' for Active; 'I' for Inactive)
REMARK    1  A    between atoms: C_1  and  C_2
REMARK    2  A    between atoms: C_2  and  N_3
REMARK    3  A    between atoms: N_3  and  C_4
REMARK    4  A    between atoms: C_4  and  C_5
REMARK    5  A    between atoms: C_7  and  C_8
REMARK    6  A    between atoms: C_17  and  C_18
REMARK    7  A    between atoms: C_18  and  O_20
REMARK    8  A    between atoms: N_22  and  C_23
REMARK    9  A    between atoms: C_27  and  C_28
REMARK                            x       y       z     vdW  Elec       q    Type
REMARK                         _______ _______ _______ _____ _____    ______ ____
ROOT
ATOM      1  C   UNL     1       1.825   8.493  19.082  0.00  0.00    +0.000 A 
ATOM      2  C   UNL     1       2.169   7.171  19.447  0.00  0.00    +0.000 A 
ATOM      3  C   UNL     1       3.117   6.417  18.736  0.00  0.00    +0.000 A 
ATOM      4  C   UNL     1       3.703   7.007  17.600  0.00  0.00    +0.000 A 
ATOM      5  C   UNL     1       3.352   8.292  17.187  0.00  0.00    +0.000 A 
ATOM      6  C   UNL     1       2.431   9.020  17.929  0.00  0.00    +0.000 A 
ATOM      7  F   UNL     1       2.174  10.274  17.533  0.00  0.00    +0.000 F 
ATOM      8  C   UNL     1       4.746   6.274  16.853  0.00  0.00    +0.000 A 
ATOM      9  O   UNL     1       5.245   6.733  15.828  0.00  0.00    +0.000 OA
ATOM     10  C   UNL     1       5.218   4.983  17.393  0.00  0.00    +0.000 A 
ATOM     11  C   UNL     1       4.586   4.508  18.477  0.00  0.00    +0.000 A 
ATOM     12  N   UNL     1       3.520   5.109  19.129  0.00  0.00    +0.000 N 
ENDROOT
BRANCH   1  15
ATOM     13  C   UNL     1      -0.852  10.914  20.165  0.00  0.00    +0.000 A 
ATOM     14  C   UNL     1       0.101  10.273  19.379  0.00  0.00    +0.000 A 
ATOM     15  C   UNL     1       0.954   9.319  19.946  0.00  0.00    +0.000 A 
ATOM     16  C   UNL     1       0.855   9.125  21.331  0.00  0.00    +0.000 A 
ATOM     17  C   UNL     1      -0.086   9.840  22.069  0.00  0.00    +0.000 A 
ATOM     18  C   UNL     1      -0.220   9.637  23.548  0.00  0.00    +0.000 C 
ATOM     19  N   UNL     1      -0.943  10.719  21.501  0.00  0.00    +0.000 NA
BRANCH  13  20
ATOM     20  C   UNL     1      -1.913  11.770  19.499  0.00  0.00    +0.000 C 
BRANCH  20  21
ATOM     21  N   UNL     1      -1.374  12.899  18.712  0.00  0.00    +0.000 NA
ATOM     22  H   UNL     1      -0.675  12.532  18.067  0.00  0.00    +0.000 HD
BRANCH  21  24
ATOM     23  C   UNL     1       0.736  14.012  19.238  0.00  0.00    +0.000 C 
ATOM     24  C   UNL     1      -0.747  13.914  19.566  0.00  0.00    +0.000 C 
ENDBRANCH  21  24
ENDBRANCH  20  21
ENDBRANCH  13  20
ENDBRANCH   1  15
BRANCH  12  25
ATOM     25  C   UNL     1       3.042   4.487  20.381  0.00  0.00    +0.000 C 
ATOM     26  C   UNL     1       1.599   4.097  20.586  0.00  0.00    +0.000 C 
ATOM     27  C   UNL     1       2.637   3.032  20.435  0.00  0.00    +0.000 C 
ENDBRANCH  12  25
BRANCH  10  28
ATOM     28  C   UNL     1       6.333   4.214  16.801  0.00  0.00    +0.000 C 
ATOM     29  O   UNL     1       7.508   4.475  17.010  0.00  0.00    +0.000 OA
BRANCH  28  30
ATOM     30  O   UNL     1       5.953   3.198  16.001  0.00  0.00    +0.000 OA
ATOM     31  H   UNL     1       5.263   2.611  16.392  0.00  0.00    +0.000 HD
ENDBRANCH  28  30
ENDBRANCH  10  28
TORSDOF 7
ENDMDL
MODEL 5
REMARK VINA RESULT:      -7.9      0.838      1.037
REMARK  Name = 
REMARK  9 active torsions:
REMARK  status: ('A' for Active; 'I' for Inactive)
REMARK    1  A    between atoms: C_1  and  C_2
REMARK    2  A    between atoms: C_2  and  N_3
REMARK    3  A    between atoms: N_3  and  C_4
REMARK    4  A    between atoms: C_4  and  C_5
REMARK    5  A    between atoms: C_7  and  C_8
REMARK    6  A    between atoms: C_17  and  C_18
REMARK    7  A    between atoms: C_18  and  O_20
REMARK    8  A    between atoms: N_22  and  C_23
REMARK    9  A    between atoms: C_27  and  C_28
REMARK                            x       y       z     vdW  Elec       q    Type
REMARK                         _______ _______ _______ _____ _____    ______ ____
ROOT
ATOM      1  C   UNL     1       1.860   8.458  19.076  0.00  0.00    +0.000 A 
ATOM      2  C   UNL     1       2.209   7.134  19.430  0.00  0.00    +0.000 A 
ATOM      3  C   UNL     1       3.157   6.389  18.709  0.00  0.00    +0.000 A 
ATOM      4  C   UNL     1       3.737   6.989  17.576  0.00  0.00    +0.000 A 
ATOM      5  C   UNL     1       3.381   8.276  17.174  0.00  0.00    +0.000 A 
ATOM      6  C   UNL     1       2.461   8.995  17.925  0.00  0.00    +0.000 A 
ATOM      7  F   UNL     1       2.199  10.252  17.540  0.00  0.00    +0.000 F 
ATOM      8  C   UNL     1       4.781   6.264  16.821  0.00  0.00    +0.000 A 
ATOM      9  O   UNL     1       5.274   6.733  15.798  0.00  0.00    +0.000 OA
ATOM     10  C   UNL     1       5.258   4.971  17.349  0.00  0.00    +0.000 A 
ATOM     11  C   UNL     1       4.630   4.485  18.431  0.00  0.00    +0.000 A 
ATOM     12  N   UNL     1       3.565   5.079  19.091  0.00  0.00    +0.000 N 
ENDROOT
BRANCH   1  15
ATOM     13  C   UNL     1      -0.817  10.866  20.186  0.00  0.00    +0.000 A 
ATOM     14  C   UNL     1       0.136  10.234  19.393  0.00  0.00    +0.000 A 
ATOM     15  C   UNL     1       0.989   9.275  19.949  0.00  0.00    +0.000 A 
ATOM     16  C   UNL     1       0.892   9.066  21.332  0.00  0.00    +0.000 A 
ATOM     17  C   UNL     1      -0.049   9.773  22.078  0.00  0.00    +0.000 A 
ATOM     18  C   UNL     1      -0.181   9.555  23.556  0.00  0.00    +0.000 C 
ATOM     19  N   UNL     1      -0.907  10.658  21.521  0.00  0.00    +0.000 NA
BRANCH  13  20
ATOM     20  C   UNL     1      -1.879  11.728  19.530  0.00  0.00    +0.000 C 
BRANCH  20  21
ATOM     21  N   UNL     1      -2.319  11.244  18.205  0.00  0.00    +0.000 NA
ATOM     22  H   UNL     1      -1.776  11.731  17.492  0.00  0.00    +0.000 HD
BRANCH  21  24
ATOM     23  C   UNL     1      -4.364  12.114  19.220  0.00  0.00    +0.000 C 
ATOM     24  C   UNL     1      -3.745  11.497  17.973  0.00  0.00    +0.000 C 
ENDBRANCH  21  24
ENDBRANCH  20  21
ENDBRANCH  13  20
ENDBRANCH   1  15
BRANCH  12  25
ATOM     25  C   UNL     1       3.093   4.445  20.340  0.00  0.00    +0.000 C 
ATOM     26  C   UNL     1       1.642   4.099  20.568  0.00  0.00    +0.000 C 
ATOM     27  C   UNL     1       2.640   3.004  20.372  0.00  0.00    +0.000 C 
ENDBRANCH  12  25
BRANCH  10  28
ATOM     28  C   UNL     1       6.373   4.210  16.747  0.00  0.00    +0.000 C 
ATOM     29  O   UNL     1       7.548   4.486  16.938  0.00  0.00    +0.000 OA
BRANCH  28  30
ATOM     30  O   UNL     1       5.993   3.183  15.961  0.00  0.00    +0.000 OA
ATOM     31  H   UNL     1       6.656   2.455  15.897  0.00  0.00    +0.000 HD
ENDBRANCH  28  30
ENDBRANCH  10  28
TORSDOF 7
ENDMDL
MODEL 6
REMARK VINA RESULT:      -7.8      4.155      8.510
REMARK  Name = 
REMARK  9 active torsions:
REMARK  status: ('A' for Active; 'I' for Inactive)
REMARK    1  A    between atoms: C_1  and  C_2
REMARK    2  A    between atoms: C_2  and  N_3
REMARK    3  A    between atoms: N_3  and  C_4
REMARK    4  A    between atoms: C_4  and  C_5
REMARK    5  A    between atoms: C_7  and  C_8
REMARK    6  A    between atoms: C_17  and  C_18
REMARK    7  A    between atoms: C_18  and  O_20
REMARK    8  A    between atoms: N_22  and  C_23
REMARK    9  A    between atoms: C_27  and  C_28
REMARK                            x       y       z     vdW  Elec       q    Type
REMARK                         _______ _______ _______ _____ _____    ______ ____
ROOT
ATOM      1  C   UNL     1       1.899   7.605  19.379  0.00  0.00    +0.000 A 
ATOM      2  C   UNL     1       1.535   8.933  19.055  0.00  0.00    +0.000 A 
ATOM      3  C   UNL     1       0.846   9.764  19.953  0.00  0.00    +0.000 A 
ATOM      4  C   UNL     1       0.481   9.220  21.199  0.00  0.00    +0.000 A 
ATOM      5  C   UNL     1       0.785   7.901  21.532  0.00  0.00    +0.000 A 
ATOM      6  C   UNL     1       1.491   7.115  20.631  0.00  0.00    +0.000 A 
ATOM      7  F   UNL     1       1.818   5.875  21.019  0.00  0.00    +0.000 F 
ATOM      8  C   UNL     1      -0.195  10.075  22.198  0.00  0.00    +0.000 A 
ATOM      9  O   UNL     1      -0.575   9.625  23.276  0.00  0.00    +0.000 OA
ATOM     10  C   UNL     1      -0.368  11.509  21.891  0.00  0.00    +0.000 A 
ATOM     11  C   UNL     1       0.008  11.921  20.671  0.00  0.00    +0.000 A 
ATOM     12  N   UNL     1       0.530  11.123  19.665  0.00  0.00    +0.000 N 
ENDROOT
BRANCH   1  15
ATOM     13  C   UNL     1       4.780   6.644  17.148  0.00  0.00    +0.000 A 
ATOM     14  C   UNL     1       3.852   7.420  17.837  0.00  0.00    +0.000 A 
ATOM     15  C   UNL     1       2.769   6.814  18.482  0.00  0.00    +0.000 A 
ATOM     16  C   UNL     1       2.628   5.429  18.317  0.00  0.00    +0.000 A 
ATOM     17  C   UNL     1       3.564   4.719  17.568  0.00  0.00    +0.000 A 
ATOM     18  C   UNL     1       3.442   3.234  17.391  0.00  0.00    +0.000 C 
ATOM     19  N   UNL     1       4.639   5.307  16.995  0.00  0.00    +0.000 NA
BRANCH  13  20
ATOM     20  C   UNL     1       6.062   7.284  16.650  0.00  0.00    +0.000 C 
BRANCH  20  21
ATOM     21  N   UNL     1       7.284   6.512  16.959  0.00  0.00    +0.000 NA
ATOM     22  H   UNL     1       7.033   5.524  17.001  0.00  0.00    +0.000 HD
BRANCH  21  24
ATOM     23  C   UNL     1       7.754   5.760  19.236  0.00  0.00    +0.000 C 
ATOM     24  C   UNL     1       7.874   6.908  18.242  0.00  0.00    +0.000 C 
ENDBRANCH  21  24
ENDBRANCH  20  21
ENDBRANCH  13  20
ENDBRANCH   1  15
BRANCH  12  25
ATOM     25  C   UNL     1       0.998  11.790  18.432  0.00  0.00    +0.000 C 
ATOM     26  C   UNL     1       1.153  13.288  18.337  0.00  0.00    +0.000 C 
ATOM     27  C   UNL     1       2.369  12.418  18.346  0.00  0.00    +0.000 C 
ENDBRANCH  12  25
BRANCH  10  28
ATOM     28  C   UNL     1      -0.924  12.484  22.854  0.00  0.00    +0.000 C 
ATOM     29  O   UNL     1      -0.306  13.463  23.242  0.00  0.00    +0.000 OA
BRANCH  28  30
ATOM     30  O   UNL     1      -2.173  12.204  23.278  0.00  0.00    +0.000 OA
ATOM     31  H   UNL     1      -2.847  12.171  22.559  0.00  0.00    +0.000 HD
ENDBRANCH  28  30
ENDBRANCH  10  28
TORSDOF 7
ENDMDL
MODEL 7
REMARK VINA RESULT:      -7.8      2.314      3.486
REMARK  Name = 
REMARK  9 active torsions:
REMARK  status: ('A' for Active; 'I' for Inactive)
REMARK    1  A    between atoms: C_1  and  C_2
REMARK    2  A    between atoms: C_2  and  N_3
REMARK    3  A    between atoms: N_3  and  C_4
REMARK    4  A    between atoms: C_4  and  C_5
REMARK    5  A    between atoms: C_7  and  C_8
REMARK    6  A    between atoms: C_17  and  C_18
REMARK    7  A    between atoms: C_18  and  O_20
REMARK    8  A    between atoms: N_22  and  C_23
REMARK    9  A    between atoms: C_27  and  C_28
REMARK                            x       y       z     vdW  Elec       q    Type
REMARK                         _______ _______ _______ _____ _____    ______ ____
ROOT
ATOM      1  C   UNL     1       1.432   8.341  19.771  0.00  0.00    +0.000 A 
ATOM      2  C   UNL     1       2.444   7.808  18.939  0.00  0.00    +0.000 A 
ATOM      3  C   UNL     1       2.913   6.491  19.076  0.00  0.00    +0.000 A 
ATOM      4  C   UNL     1       2.367   5.707  20.109  0.00  0.00    +0.000 A 
ATOM      5  C   UNL     1       1.400   6.217  20.975  0.00  0.00    +0.000 A 
ATOM      6  C   UNL     1       0.940   7.515  20.795  0.00  0.00    +0.000 A 
ATOM      7  F   UNL     1      -0.036   7.941  21.608  0.00  0.00    +0.000 F 
ATOM      8  C   UNL     1       2.788   4.297  20.255  0.00  0.00    +0.000 A 
ATOM      9  O   UNL     1       2.374   3.596  21.175  0.00  0.00    +0.000 OA
ATOM     10  C   UNL     1       3.692   3.727  19.237  0.00  0.00    +0.000 A 
ATOM     11  C   UNL     1       4.160   4.564  18.299  0.00  0.00    +0.000 A 
ATOM     12  N   UNL     1       3.885   5.920  18.205  0.00  0.00    +0.000 N 
ENDROOT
BRANCH   1  15
ATOM     13  C   UNL     1      -0.765  11.027  18.301  0.00  0.00    +0.000 A 
ATOM     14  C   UNL     1      -0.067   9.832  18.444  0.00  0.00    +0.000 A 
ATOM     15  C   UNL     1       0.842   9.670  19.495  0.00  0.00    +0.000 A 
ATOM     16  C   UNL     1       1.070  10.785  20.313  0.00  0.00    +0.000 A 
ATOM     17  C   UNL     1       0.376  11.971  20.082  0.00  0.00    +0.000 A 
ATOM     18  C   UNL     1       0.592  13.172  20.954  0.00  0.00    +0.000 C 
ATOM     19  N   UNL     1      -0.542  12.099  19.096  0.00  0.00    +0.000 NA
BRANCH  13  20
ATOM     20  C   UNL     1      -1.905  11.109  17.303  0.00  0.00    +0.000 C 
BRANCH  20  21
ATOM     21  N   UNL     1      -3.016  11.989  17.723  0.00  0.00    +0.000 NA
ATOM     22  H   UNL     1      -2.700  12.539  18.522  0.00  0.00    +0.000 HD
BRANCH  21  24
ATOM     23  C   UNL     1      -5.381  12.173  18.305  0.00  0.00    +0.000 C 
ATOM     24  C   UNL     1      -4.206  11.225  18.111  0.00  0.00    +0.000 C 
ENDBRANCH  21  24
ENDBRANCH  20  21
ENDBRANCH  13  20
ENDBRANCH   1  15
BRANCH  12  25
ATOM     25  C   UNL     1       4.399   6.645  17.025  0.00  0.00    +0.000 C 
ATOM     26  C   UNL     1       5.868   6.934  16.834  0.00  0.00    +0.000 C 
ATOM     27  C   UNL     1       5.190   5.940  15.947  0.00  0.00    +0.000 C 
ENDBRANCH  12  25
BRANCH  10  28
ATOM     28  C   UNL     1       4.091   2.303  19.211  0.00  0.00    +0.000 C 
ATOM     29  O   UNL     1       3.614   1.492  18.433  0.00  0.00    +0.000 OA
BRANCH  28  30
ATOM     30  O   UNL     1       5.024   1.965  20.123  0.00  0.00    +0.000 OA
ATOM     31  H   UNL     1       5.664   2.685  20.335  0.00  0.00    +0.000 HD
ENDBRANCH  28  30
ENDBRANCH  10  28
TORSDOF 7
ENDMDL
MODEL 8
REMARK VINA RESULT:      -7.7      2.902      4.337
REMARK  Name = 
REMARK  9 active torsions:
REMARK  status: ('A' for Active; 'I' for Inactive)
REMARK    1  A    between atoms: C_1  and  C_2
REMARK    2  A    between atoms: C_2  and  N_3
REMARK    3  A    between atoms: N_3  and  C_4
REMARK    4  A    between atoms: C_4  and  C_5
REMARK    5  A    between atoms: C_7  and  C_8
REMARK    6  A    between atoms: C_17  and  C_18
REMARK    7  A    between atoms: C_18  and  O_20
REMARK    8  A    between atoms: N_22  and  C_23
REMARK    9  A    between atoms: C_27  and  C_28
REMARK                            x       y       z     vdW  Elec       q    Type
REMARK                         _______ _______ _______ _____ _____    ______ ____
ROOT
ATOM      1  C   UNL     1       1.347   8.543  19.672  0.00  0.00    +0.000 A 
ATOM      2  C   UNL     1       2.376   7.987  18.878  0.00  0.00    +0.000 A 
ATOM      3  C   UNL     1       2.849   6.678  19.068  0.00  0.00    +0.000 A 
ATOM      4  C   UNL     1       2.288   5.927  20.118  0.00  0.00    +0.000 A 
ATOM      5  C   UNL     1       1.303   6.461  20.948  0.00  0.00    +0.000 A 
ATOM      6  C   UNL     1       0.840   7.750  20.715  0.00  0.00    +0.000 A 
ATOM      7  F   UNL     1      -0.153   8.198  21.495  0.00  0.00    +0.000 F 
ATOM      8  C   UNL     1       2.714   4.525  20.320  0.00  0.00    +0.000 A 
ATOM      9  O   UNL     1       2.286   3.854  21.256  0.00  0.00    +0.000 OA
ATOM     10  C   UNL     1       3.639   3.925  19.339  0.00  0.00    +0.000 A 
ATOM     11  C   UNL     1       4.120   4.733  18.381  0.00  0.00    +0.000 A 
ATOM     12  N   UNL     1       3.839   6.083  18.236  0.00  0.00    +0.000 N 
ENDROOT
BRANCH   1  15
ATOM     13  C   UNL     1       1.026  12.238  19.006  0.00  0.00    +0.000 A 
ATOM     14  C   UNL     1       1.508  11.027  19.493  0.00  0.00    +0.000 A 
ATOM     15  C   UNL     1       0.755   9.858  19.340  0.00  0.00    +0.000 A 
ATOM     16  C   UNL     1      -0.518   9.994  18.769  0.00  0.00    +0.000 A 
ATOM     17  C   UNL     1      -0.962  11.247  18.351  0.00  0.00    +0.000 A 
ATOM     18  C   UNL     1      -2.313  11.414  17.723  0.00  0.00    +0.000 C 
ATOM     19  N   UNL     1      -0.203  12.362  18.452  0.00  0.00    +0.000 NA
BRANCH  13  20
ATOM     20  C   UNL     1       1.944  13.446  18.973  0.00  0.00    +0.000 C 
BRANCH  20  21
ATOM     21  N   UNL     1       3.025  13.358  17.969  0.00  0.00    +0.000 NA
ATOM     22  H   UNL     1       3.465  12.442  18.054  0.00  0.00    +0.000 HD
BRANCH  21  24
ATOM     23  C   UNL     1       3.640  15.657  17.416  0.00  0.00    +0.000 C 
ATOM     24  C   UNL     1       4.043  14.395  18.166  0.00  0.00    +0.000 C 
ENDBRANCH  21  24
ENDBRANCH  20  21
ENDBRANCH  13  20
ENDBRANCH   1  15
BRANCH  12  25
ATOM     25  C   UNL     1       4.372   6.770  17.040  0.00  0.00    +0.000 C 
ATOM     26  C   UNL     1       5.851   6.963  16.815  0.00  0.00    +0.000 C 
ATOM     27  C   UNL     1       5.090   6.012  15.948  0.00  0.00    +0.000 C 
ENDBRANCH  12  25
BRANCH  10  28
ATOM     28  C   UNL     1       4.045   2.504  19.369  0.00  0.00    +0.000 C 
ATOM     29  O   UNL     1       3.398   1.615  18.838  0.00  0.00    +0.000 OA
BRANCH  28  30
ATOM     30  O   UNL     1       5.190   2.261  20.037  0.00  0.00    +0.000 OA
ATOM     31  H   UNL     1       5.299   1.325  20.329  0.00  0.00    +0.000 HD
ENDBRANCH  28  30
ENDBRANCH  10  28
TORSDOF 7
ENDMDL
MODEL 9
REMARK VINA RESULT:      -7.6      2.457      3.819
REMARK  Name = 
REMARK  9 active torsions:
REMARK  status: ('A' for Active; 'I' for Inactive)
REMARK    1  A    between atoms: C_1  and  C_2
REMARK    2  A    between atoms: C_2  and  N_3
REMARK    3  A    between atoms: N_3  and  C_4
REMARK    4  A    between atoms: C_4  and  C_5
REMARK    5  A    between atoms: C_7  and  C_8
REMARK    6  A    between atoms: C_17  and  C_18
REMARK    7  A    between atoms: C_18  and  O_20
REMARK    8  A    between atoms: N_22  and  C_23
REMARK    9  A    between atoms: C_27  and  C_28
REMARK                            x       y       z     vdW  Elec       q    Type
REMARK                         _______ _______ _______ _____ _____    ______ ____
ROOT
ATOM      1  C   UNL     1       1.685   8.513  19.318  0.00  0.00    +0.000 A 
ATOM      2  C   UNL     1       2.649   7.854  18.520  0.00  0.00    +0.000 A 
ATOM      3  C   UNL     1       3.061   6.536  18.773  0.00  0.00    +0.000 A 
ATOM      4  C   UNL     1       2.509   5.881  19.890  0.00  0.00    +0.000 A 
ATOM      5  C   UNL     1       1.590   6.518  20.724  0.00  0.00    +0.000 A 
ATOM      6  C   UNL     1       1.185   7.813  20.429  0.00  0.00    +0.000 A 
ATOM      7  F   UNL     1       0.251   8.361  21.219  0.00  0.00    +0.000 F 
ATOM      8  C   UNL     1       2.869   4.474  20.162  0.00  0.00    +0.000 A 
ATOM      9  O   UNL     1       2.449   3.884  21.155  0.00  0.00    +0.000 OA
ATOM     10  C   UNL     1       3.719   3.766  19.183  0.00  0.00    +0.000 A 
ATOM     11  C   UNL     1       4.198   4.486  18.158  0.00  0.00    +0.000 A 
ATOM     12  N   UNL     1       3.982   5.838  17.940  0.00  0.00    +0.000 N 
ENDROOT
BRANCH   1  15
ATOM     13  C   UNL     1      -0.749  11.304  18.621  0.00  0.00    +0.000 A 
ATOM     14  C   UNL     1      -0.232  10.024  18.799  0.00  0.00    +0.000 A 
ATOM     15  C   UNL     1       1.148   9.835  18.929  0.00  0.00    +0.000 A 
ATOM     16  C   UNL     1       1.960  10.968  18.777  0.00  0.00    +0.000 A 
ATOM     17  C   UNL     1       1.380  12.214  18.547  0.00  0.00    +0.000 A 
ATOM     18  C   UNL     1       2.227  13.442  18.397  0.00  0.00    +0.000 C 
ATOM     19  N   UNL     1       0.041  12.394  18.479  0.00  0.00    +0.000 NA
BRANCH  13  20
ATOM     20  C   UNL     1      -2.248  11.520  18.710  0.00  0.00    +0.000 C 
BRANCH  20  21
ATOM     21  N   UNL     1      -2.639  12.843  19.241  0.00  0.00    +0.000 NA
ATOM     22  H   UNL     1      -1.809  13.436  19.257  0.00  0.00    +0.000 HD
BRANCH  21  24
ATOM     23  C   UNL     1      -4.706  12.733  20.537  0.00  0.00    +0.000 C 
ATOM     24  C   UNL     1      -3.185  12.751  20.599  0.00  0.00    +0.000 C 
ENDBRANCH  21  24
ENDBRANCH  20  21
ENDBRANCH  13  20
ENDBRANCH   1  15
BRANCH  12  25
ATOM     25  C   UNL     1       4.496   6.421  16.683  0.00  0.00    +0.000 C 
ATOM     26  C   UNL     1       5.961   6.711  16.470  0.00  0.00    +0.000 C 
ATOM     27  C   UNL     1       5.309   5.603  15.707  0.00  0.00    +0.000 C 
ENDBRANCH  12  25
BRANCH  10  28
ATOM     28  C   UNL     1       4.051   2.329  19.287  0.00  0.00    +0.000 C 
ATOM     29  O   UNL     1       3.502   1.468  18.617  0.00  0.00    +0.000 OA
BRANCH  28  30
ATOM     30  O   UNL     1       5.011   2.038  20.188  0.00  0.00    +0.000 OA
ATOM     31  H   UNL     1       4.855   2.421  21.084  0.00  0.00    +0.000 HD
ENDBRANCH  28  30
ENDBRANCH  10  28
TORSDOF 7
ENDMDL
