MODEL 1
REMARK VINA RESULT:      -7.7      0.000      0.000
REMARK  Name = 
REMARK  7 active torsions:
REMARK  status: ('A' for Active; 'I' for Inactive)
REMARK    1  A    between atoms: O_1  and  C_2
REMARK    2  A    between atoms: C_2  and  C_3
REMARK    3  A    between atoms: C_3  and  C_4
REMARK    4  A    between atoms: N_13  and  C_14
REMARK    5  A    between atoms: C_14  and  C_15
REMARK    6  A    between atoms: N_19  and  C_20
REMARK    7  A    between atoms: C_20  and  C_21
REMARK                            x       y       z     vdW  Elec       q    Type
REMARK                         _______ _______ _______ _____ _____    ______ ____
ROOT
ATOM      1  C   UNL     1       2.556   3.816  19.355  0.00  0.00    +0.000 C 
ATOM      2  C   UNL     1       2.605   4.357  20.790  0.00  0.00    +0.000 C 
ATOM      3  C   UNL     1       1.769   5.619  20.885  0.00  0.00    +0.000 C 
ATOM      4  C   UNL     1       2.104   6.590  19.789  0.00  0.00    +0.000 A 
ATOM      5  C   UNL     1       1.671   7.920  19.954  0.00  0.00    +0.000 A 
ATOM      6  C   UNL     1       1.904   8.870  18.972  0.00  0.00    +0.000 A 
ATOM      7  C   UNL     1       2.583   8.498  17.820  0.00  0.00    +0.000 A 
ATOM      8  C   UNL     1       3.020   7.177  17.658  0.00  0.00    +0.000 A 
ATOM      9  C   UNL     1       2.780   6.176  18.621  0.00  0.00    +0.000 A 
ATOM     10  N   UNL     1       3.163   4.836  18.445  0.00  0.00    +0.000 N 
ENDROOT
BRANCH   1  11
ATOM     11  C   UNL     1       3.218   2.419  19.304  0.00  0.00    +0.000 C 
BRANCH  11  12
ATOM     12  C   UNL     1       4.198   2.170  20.454  0.00  0.00    +0.000 C 
BRANCH  12  13
ATOM     13  O   UNL     1       5.311   1.412  20.012  0.00  0.00    +0.000 OA
ATOM     14  H   UNL     1       5.183   1.211  19.068  0.00  0.00    +0.000 HD
ENDBRANCH  12  13
ENDBRANCH  11  12
ENDBRANCH   1  11
BRANCH  10  15
ATOM     15  C   UNL     1       3.915   4.428  17.252  0.00  0.00    +0.000 C 
BRANCH  15  16
ATOM     16  C   UNL     1       5.416   4.521  17.208  0.00  0.00    +0.000 A 
ATOM     17  N   UNL     1       6.181   4.368  18.278  0.00  0.00    +0.000 NA
ATOM     18  C   UNL     1       7.428   4.690  17.847  0.00  0.00    +0.000 A 
ATOM     19  N   UNL     1       7.504   5.028  16.563  0.00  0.00    +0.000 NA
ATOM     20  N   UNL     1       6.228   4.858  16.147  0.00  0.00    +0.000 N 
BRANCH  20  21
ATOM     21  C   UNL     1       5.910   5.137  14.768  0.00  0.00    +0.000 C 
BRANCH  21  22
ATOM     22  C   UNL     1       6.353   4.062  13.802  0.00  0.00    +0.000 C 
ATOM     23  F   UNL     1       5.316   3.684  13.010  0.00  0.00    +0.000 F 
ATOM     24  F   UNL     1       7.286   4.592  12.961  0.00  0.00    +0.000 F 
ENDBRANCH  21  22
ENDBRANCH  20  21
ENDBRANCH  15  16
ENDBRANCH  10  15
TORSDOF 7
ENDMDL
MODEL 2
REMARK VINA RESULT:      -7.2      1.234      1.316
REMARK  Name = 
REMARK  7 active torsions:
REMARK  status: ('A' for Active; 'I' for Inactive)
REMARK    1  A    between atoms: O_1  and  C_2
REMARK    2  A    between atoms: C_2  and  C_3
REMARK    3  A    between atoms: C_3  and  C_4
REMARK    4  A    between atoms: N_13  and  C_14
REMARK    5  A    between atoms: C_14  and  C_15
REMARK    6  A    between atoms: N_19  and  C_20
REMARK    7  A    between atoms: C_20  and  C_21
REMARK                            x       y       z     vdW  Elec       q    Type
REMARK                         _______ _______ _______ _____ _____    ______ ____
ROOT
ATOM      1  C   UNL     1       2.520   4.034  19.567  0.00  0.00    +0.000 C 
ATOM      2  C   UNL     1       2.456   4.633  20.977  0.00  0.00    +0.000 C 
ATOM      3  C   UNL     1       1.581   5.872  20.963  0.00  0.00    +0.000 C 
ATOM      4  C   UNL     1       1.963   6.808  19.852  0.00  0.00    +0.000 A 
ATOM      5  C   UNL     1       1.483   8.130  19.931  0.00  0.00    +0.000 A 
ATOM      6  C   UNL     1       1.756   9.047  18.927  0.00  0.00    +0.000 A 
ATOM      7  C   UNL     1       2.521   8.648  17.840  0.00  0.00    +0.000 A 
ATOM      8  C   UNL     1       3.005   7.336  17.764  0.00  0.00    +0.000 A 
ATOM      9  C   UNL     1       2.728   6.368  18.750  0.00  0.00    +0.000 A 
ATOM     10  N   UNL     1       3.159   5.034  18.658  0.00  0.00    +0.000 N 
ENDROOT
BRANCH   1  11
ATOM     11  C   UNL     1       3.222   2.657  19.619  0.00  0.00    +0.000 C 
BRANCH  11  12
ATOM     12  C   UNL     1       2.599   1.623  18.677  0.00  0.00    +0.000 C 
BRANCH  12  13
ATOM     13  O   UNL     1       1.196   1.803  18.591  0.00  0.00    +0.000 OA
ATOM     14  H   UNL     1       0.979   2.046  17.674  0.00  0.00    +0.000 HD
ENDBRANCH  12  13
ENDBRANCH  11  12
ENDBRANCH   1  11
BRANCH  10  15
ATOM     15  C   UNL     1       4.002   4.602  17.536  0.00  0.00    +0.000 C 
BRANCH  15  16
ATOM     16  C   UNL     1       5.503   4.665  17.619  0.00  0.00    +0.000 A 
ATOM     17  N   UNL     1       6.147   5.226  18.631  0.00  0.00    +0.000 NA
ATOM     18  C   UNL     1       7.448   5.223  18.242  0.00  0.00    +0.000 A 
ATOM     19  N   UNL     1       7.672   4.683  17.048  0.00  0.00    +0.000 NA
ATOM     20  N   UNL     1       6.435   4.275  16.683  0.00  0.00    +0.000 N 
BRANCH  20  21
ATOM     21  C   UNL     1       6.274   3.625  15.406  0.00  0.00    +0.000 C 
BRANCH  21  22
ATOM     22  C   UNL     1       6.072   4.576  14.249  0.00  0.00    +0.000 C 
ATOM     23  F   UNL     1       5.132   4.090  13.397  0.00  0.00    +0.000 F 
ATOM     24  F   UNL     1       5.563   5.745  14.732  0.00  0.00    +0.000 F 
ENDBRANCH  21  22
ENDBRANCH  20  21
ENDBRANCH  15  16
ENDBRANCH  10  15
TORSDOF 7
ENDMDL
MODEL 3
REMARK VINA RESULT:      -7.2      1.394      1.606
REMARK  Name = 
REMARK  7 active torsions:
REMARK  status: ('A' for Active; 'I' for Inactive)
REMARK    1  A    between atoms: O_1  and  C_2
REMARK    2  A    between atoms: C_2  and  C_3
REMARK    3  A    between atoms: C_3  and  C_4
REMARK    4  A    between atoms: N_13  and  C_14
REMARK    5  A    between atoms: C_14  and  C_15
REMARK    6  A    between atoms: N_19  and  C_20
REMARK    7  A    between atoms: C_20  and  C_21
REMARK                            x       y       z     vdW  Elec       q    Type
REMARK                         _______ _______ _______ _____ _____    ______ ____
ROOT
ATOM      1  C   UNL     1       3.076   4.158  18.854  0.00  0.00    +0.000 C 
ATOM      2  C   UNL     1       3.098   4.281  20.382  0.00  0.00    +0.000 C 
ATOM      3  C   UNL     1       2.001   5.227  20.832  0.00  0.00    +0.000 C 
ATOM      4  C   UNL     1       2.022   6.511  20.053  0.00  0.00    +0.000 A 
ATOM      5  C   UNL     1       1.304   7.599  20.587  0.00  0.00    +0.000 A 
ATOM      6  C   UNL     1       1.239   8.808  19.912  0.00  0.00    +0.000 A 
ATOM      7  C   UNL     1       1.903   8.941  18.700  0.00  0.00    +0.000 A 
ATOM      8  C   UNL     1       2.623   7.862  18.172  0.00  0.00    +0.000 A 
ATOM      9  C   UNL     1       2.692   6.609  18.814  0.00  0.00    +0.000 A 
ATOM     10  N   UNL     1       3.363   5.503  18.267  0.00  0.00    +0.000 N 
ENDROOT
BRANCH   1  11
ATOM     11  C   UNL     1       4.040   3.033  18.409  0.00  0.00    +0.000 C 
BRANCH  11  12
ATOM     12  C   UNL     1       3.410   1.637  18.469  0.00  0.00    +0.000 C 
BRANCH  12  13
ATOM     13  O   UNL     1       2.085   1.662  17.966  0.00  0.00    +0.000 OA
ATOM     14  H   UNL     1       1.826   2.592  17.844  0.00  0.00    +0.000 HD
ENDBRANCH  12  13
ENDBRANCH  11  12
ENDBRANCH   1  11
BRANCH  10  15
ATOM     15  C   UNL     1       4.103   5.632  17.006  0.00  0.00    +0.000 C 
BRANCH  15  16
ATOM     16  C   UNL     1       5.560   6.010  16.992  0.00  0.00    +0.000 A 
ATOM     17  N   UNL     1       6.037   7.072  17.624  0.00  0.00    +0.000 NA
ATOM     18  C   UNL     1       7.333   7.144  17.225  0.00  0.00    +0.000 A 
ATOM     19  N   UNL     1       7.713   6.184  16.386  0.00  0.00    +0.000 NA
ATOM     20  N   UNL     1       6.594   5.430  16.290  0.00  0.00    +0.000 N 
BRANCH  20  21
ATOM     21  C   UNL     1       6.620   4.264  15.442  0.00  0.00    +0.000 C 
BRANCH  21  22
ATOM     22  C   UNL     1       6.358   4.555  13.982  0.00  0.00    +0.000 C 
ATOM     23  F   UNL     1       7.473   5.063  13.395  0.00  0.00    +0.000 F 
ATOM     24  F   UNL     1       6.108   3.377  13.342  0.00  0.00    +0.000 F 
ENDBRANCH  21  22
ENDBRANCH  20  21
ENDBRANCH  15  16
ENDBRANCH  10  15
TORSDOF 7
ENDMDL
MODEL 4
REMARK VINA RESULT:      -7.2      2.338      4.007
REMARK  Name = 
REMARK  7 active torsions:
REMARK  status: ('A' for Active; 'I' for Inactive)
REMARK    1  A    between atoms: O_1  and  C_2
REMARK    2  A    between atoms: C_2  and  C_3
REMARK    3  A    between atoms: C_3  and  C_4
REMARK    4  A    between atoms: N_13  and  C_14
REMARK    5  A    between atoms: C_14  and  C_15
REMARK    6  A    between atoms: N_19  and  C_20
REMARK    7  A    between atoms: C_20  and  C_21
REMARK                            x       y       z     vdW  Elec       q    Type
REMARK                         _______ _______ _______ _____ _____    ______ ____
ROOT
ATOM      1  C   UNL     1       2.904   7.066  18.970  0.00  0.00    +0.000 C 
ATOM      2  C   UNL     1       1.550   7.045  19.690  0.00  0.00    +0.000 C 
ATOM      3  C   UNL     1       1.647   6.176  20.929  0.00  0.00    +0.000 C 
ATOM      4  C   UNL     1       2.267   4.842  20.623  0.00  0.00    +0.000 A 
ATOM      5  C   UNL     1       2.101   3.821  21.580  0.00  0.00    +0.000 A 
ATOM      6  C   UNL     1       2.674   2.573  21.394  0.00  0.00    +0.000 A 
ATOM      7  C   UNL     1       3.410   2.333  20.242  0.00  0.00    +0.000 A 
ATOM      8  C   UNL     1       3.570   3.345  19.287  0.00  0.00    +0.000 A 
ATOM      9  C   UNL     1       3.025   4.635  19.451  0.00  0.00    +0.000 A 
ATOM     10  N   UNL     1       3.225   5.675  18.528  0.00  0.00    +0.000 N 
ENDROOT
BRANCH   1  11
ATOM     11  C   UNL     1       2.874   8.121  17.839  0.00  0.00    +0.000 C 
BRANCH  11  12
ATOM     12  C   UNL     1       1.629   9.013  17.875  0.00  0.00    +0.000 C 
BRANCH  12  13
ATOM     13  O   UNL     1       1.935  10.321  17.423  0.00  0.00    +0.000 OA
ATOM     14  H   UNL     1       1.294  10.558  16.730  0.00  0.00    +0.000 HD
ENDBRANCH  12  13
ENDBRANCH  11  12
ENDBRANCH   1  11
BRANCH  10  15
ATOM     15  C   UNL     1       3.968   5.432  17.285  0.00  0.00    +0.000 C 
BRANCH  15  16
ATOM     16  C   UNL     1       5.446   5.697  17.195  0.00  0.00    +0.000 A 
ATOM     17  N   UNL     1       6.176   6.079  18.233  0.00  0.00    +0.000 NA
ATOM     18  C   UNL     1       7.390   6.368  17.700  0.00  0.00    +0.000 A 
ATOM     19  N   UNL     1       7.482   6.181  16.386  0.00  0.00    +0.000 NA
ATOM     20  N   UNL     1       6.257   5.695  16.081  0.00  0.00    +0.000 N 
BRANCH  20  21
ATOM     21  C   UNL     1       5.969   5.366  14.707  0.00  0.00    +0.000 C 
BRANCH  21  22
ATOM     22  C   UNL     1       6.347   3.955  14.317  0.00  0.00    +0.000 C 
ATOM     23  F   UNL     1       6.019   3.088  15.310  0.00  0.00    +0.000 F 
ATOM     24  F   UNL     1       5.594   3.586  13.241  0.00  0.00    +0.000 F 
ENDBRANCH  21  22
ENDBRANCH  20  21
ENDBRANCH  15  16
ENDBRANCH  10  15
TORSDOF 7
ENDMDL
MODEL 5
REMARK VINA RESULT:      -7.2      4.296      6.539
REMARK  Name = 
REMARK  7 active torsions:
REMARK  status: ('A' for Active; 'I' for Inactive)
REMARK    1  A    between atoms: O_1  and  C_2
REMARK    2  A    between atoms: C_2  and  C_3
REMARK    3  A    between atoms: C_3  and  C_4
REMARK    4  A    between atoms: N_13  and  C_14
REMARK    5  A    between atoms: C_14  and  C_15
REMARK    6  A    between atoms: N_19  and  C_20
REMARK    7  A    between atoms: C_20  and  C_21
REMARK                            x       y       z     vdW  Elec       q    Type
REMARK                         _______ _______ _______ _____ _____    ______ ____
ROOT
ATOM      1  C   UNL     1       2.438   4.032  19.136  0.00  0.00    +0.000 C 
ATOM      2  C   UNL     1       1.993   3.350  17.837  0.00  0.00    +0.000 C 
ATOM      3  C   UNL     1       3.209   3.021  16.993  0.00  0.00    +0.000 C 
ATOM      4  C   UNL     1       4.122   4.205  16.851  0.00  0.00    +0.000 A 
ATOM      5  C   UNL     1       5.089   4.154  15.827  0.00  0.00    +0.000 A 
ATOM      6  C   UNL     1       5.996   5.187  15.654  0.00  0.00    +0.000 A 
ATOM      7  C   UNL     1       5.936   6.286  16.498  0.00  0.00    +0.000 A 
ATOM      8  C   UNL     1       4.972   6.342  17.512  0.00  0.00    +0.000 A 
ATOM      9  C   UNL     1       4.048   5.301  17.737  0.00  0.00    +0.000 A 
ATOM     10  N   UNL     1       3.113   5.319  18.786  0.00  0.00    +0.000 N 
ENDROOT
BRANCH   1  11
ATOM     11  C   UNL     1       1.231   4.167  20.093  0.00  0.00    +0.000 C 
BRANCH  11  12
ATOM     12  C   UNL     1       1.187   3.079  21.171  0.00  0.00    +0.000 C 
BRANCH  12  13
ATOM     13  O   UNL     1       2.366   3.105  21.958  0.00  0.00    +0.000 OA
ATOM     14  H   UNL     1       3.049   2.591  21.494  0.00  0.00    +0.000 HD
ENDBRANCH  12  13
ENDBRANCH  11  12
ENDBRANCH   1  11
BRANCH  10  15
ATOM     15  C   UNL     1       3.008   6.489  19.667  0.00  0.00    +0.000 C 
BRANCH  15  16
ATOM     16  C   UNL     1       2.158   7.673  19.292  0.00  0.00    +0.000 A 
ATOM     17  N   UNL     1       2.031   8.106  18.047  0.00  0.00    +0.000 NA
ATOM     18  C   UNL     1       1.334   9.265  18.166  0.00  0.00    +0.000 A 
ATOM     19  N   UNL     1       0.999   9.590  19.411  0.00  0.00    +0.000 NA
ATOM     20  N   UNL     1       1.475   8.539  20.118  0.00  0.00    +0.000 N 
BRANCH  20  21
ATOM     21  C   UNL     1       1.296   8.535  21.548  0.00  0.00    +0.000 C 
BRANCH  21  22
ATOM     22  C   UNL     1       0.012   9.183  22.013  0.00  0.00    +0.000 C 
ATOM     23  F   UNL     1      -0.958   8.246  22.173  0.00  0.00    +0.000 F 
ATOM     24  F   UNL     1       0.219   9.716  23.252  0.00  0.00    +0.000 F 
ENDBRANCH  21  22
ENDBRANCH  20  21
ENDBRANCH  15  16
ENDBRANCH  10  15
TORSDOF 7
ENDMDL
MODEL 6
REMARK VINA RESULT:      -7.1      4.317      6.699
REMARK  Name = 
REMARK  7 active torsions:
REMARK  status: ('A' for Active; 'I' for Inactive)
REMARK    1  A    between atoms: O_1  and  C_2
REMARK    2  A    between atoms: C_2  and  C_3
REMARK    3  A    between atoms: C_3  and  C_4
REMARK    4  A    between atoms: N_13  and  C_14
REMARK    5  A    between atoms: C_14  and  C_15
REMARK    6  A    between atoms: N_19  and  C_20
REMARK    7  A    between atoms: C_20  and  C_21
REMARK                            x       y       z     vdW  Elec       q    Type
REMARK                         _______ _______ _______ _____ _____    ______ ____
ROOT
ATOM      1  C   UNL     1       4.062   5.453  16.965  0.00  0.00    +0.000 C 
ATOM      2  C   UNL     1       4.613   4.025  16.874  0.00  0.00    +0.000 C 
ATOM      3  C   UNL     1       3.475   3.032  17.008  0.00  0.00    +0.000 C 
ATOM      4  C   UNL     1       2.605   3.342  18.192  0.00  0.00    +0.000 A 
ATOM      5  C   UNL     1       1.738   2.324  18.638  0.00  0.00    +0.000 A 
ATOM      6  C   UNL     1       0.874   2.541  19.699  0.00  0.00    +0.000 A 
ATOM      7  C   UNL     1       0.877   3.777  20.330  0.00  0.00    +0.000 A 
ATOM      8  C   UNL     1       1.744   4.787  19.893  0.00  0.00    +0.000 A 
ATOM      9  C   UNL     1       2.619   4.615  18.802  0.00  0.00    +0.000 A 
ATOM     10  N   UNL     1       3.451   5.638  18.317  0.00  0.00    +0.000 N 
ENDROOT
BRANCH   1  11
ATOM     11  C   UNL     1       5.177   6.464  16.609  0.00  0.00    +0.000 C 
BRANCH  11  12
ATOM     12  C   UNL     1       6.574   6.000  17.034  0.00  0.00    +0.000 C 
BRANCH  12  13
ATOM     13  O   UNL     1       7.485   6.095  15.952  0.00  0.00    +0.000 OA
ATOM     14  H   UNL     1       7.328   5.341  15.358  0.00  0.00    +0.000 HD
ENDBRANCH  12  13
ENDBRANCH  11  12
ENDBRANCH   1  11
BRANCH  10  15
ATOM     15  C   UNL     1       3.499   6.940  18.994  0.00  0.00    +0.000 C 
BRANCH  15  16
ATOM     16  C   UNL     1       2.436   7.980  18.759  0.00  0.00    +0.000 A 
ATOM     17  N   UNL     1       2.257   8.578  17.591  0.00  0.00    +0.000 NA
ATOM     18  C   UNL     1       1.338   9.544  17.848  0.00  0.00    +0.000 A 
ATOM     19  N   UNL     1       0.911   9.587  19.107  0.00  0.00    +0.000 NA
ATOM     20  N   UNL     1       1.571   8.548  19.668  0.00  0.00    +0.000 N 
BRANCH  20  21
ATOM     21  C   UNL     1       1.359   8.272  21.067  0.00  0.00    +0.000 C 
BRANCH  21  22
ATOM     22  C   UNL     1       0.085   8.863  21.628  0.00  0.00    +0.000 C 
ATOM     23  F   UNL     1      -0.910   7.940  21.611  0.00  0.00    +0.000 F 
ATOM     24  F   UNL     1       0.288   9.163  22.943  0.00  0.00    +0.000 F 
ENDBRANCH  21  22
ENDBRANCH  20  21
ENDBRANCH  15  16
ENDBRANCH  10  15
TORSDOF 7
ENDMDL
MODEL 7
REMARK VINA RESULT:      -7.1      1.003      1.069
REMARK  Name = 
REMARK  7 active torsions:
REMARK  status: ('A' for Active; 'I' for Inactive)
REMARK    1  A    between atoms: O_1  and  C_2
REMARK    2  A    between atoms: C_2  and  C_3
REMARK    3  A    between atoms: C_3  and  C_4
REMARK    4  A    between atoms: N_13  and  C_14
REMARK    5  A    between atoms: C_14  and  C_15
REMARK    6  A    between atoms: N_19  and  C_20
REMARK    7  A    between atoms: C_20  and  C_21
REMARK                            x       y       z     vdW  Elec       q    Type
REMARK                         _______ _______ _______ _____ _____    ______ ____
ROOT
ATOM      1  C   UNL     1       2.704   4.336  19.167  0.00  0.00    +0.000 C 
ATOM      2  C   UNL     1       2.718   4.668  20.664  0.00  0.00    +0.000 C 
ATOM      3  C   UNL     1       1.700   5.753  20.954  0.00  0.00    +0.000 C 
ATOM      4  C   UNL     1       1.840   6.912  20.007  0.00  0.00    +0.000 A 
ATOM      5  C   UNL     1       1.211   8.119  20.370  0.00  0.00    +0.000 A 
ATOM      6  C   UNL     1       1.257   9.224  19.534  0.00  0.00    +0.000 A 
ATOM      7  C   UNL     1       1.945   9.132  18.332  0.00  0.00    +0.000 A 
ATOM      8  C   UNL     1       2.577   7.934  17.973  0.00  0.00    +0.000 A 
ATOM      9  C   UNL     1       2.531   6.781  18.783  0.00  0.00    +0.000 A 
ATOM     10  N   UNL     1       3.111   5.558  18.409  0.00  0.00    +0.000 N 
ENDROOT
BRANCH   1  11
ATOM     11  C   UNL     1       3.574   3.084  18.904  0.00  0.00    +0.000 C 
BRANCH  11  12
ATOM     12  C   UNL     1       3.985   2.352  20.186  0.00  0.00    +0.000 C 
BRANCH  12  13
ATOM     13  O   UNL     1       5.172   1.605  19.978  0.00  0.00    +0.000 OA
ATOM     14  H   UNL     1       5.672   2.028  19.259  0.00  0.00    +0.000 HD
ENDBRANCH  12  13
ENDBRANCH  11  12
ENDBRANCH   1  11
BRANCH  10  15
ATOM     15  C   UNL     1       3.875   5.450  17.160  0.00  0.00    +0.000 C 
BRANCH  15  16
ATOM     16  C   UNL     1       5.366   5.656  17.137  0.00  0.00    +0.000 A 
ATOM     17  N   UNL     1       6.066   5.982  18.213  0.00  0.00    +0.000 NA
ATOM     18  C   UNL     1       7.312   6.234  17.736  0.00  0.00    +0.000 A 
ATOM     19  N   UNL     1       7.450   6.077  16.423  0.00  0.00    +0.000 NA
ATOM     20  N   UNL     1       6.220   5.650  16.056  0.00  0.00    +0.000 N 
BRANCH  20  21
ATOM     21  C   UNL     1       5.977   5.368  14.663  0.00  0.00    +0.000 C 
BRANCH  21  22
ATOM     22  C   UNL     1       5.803   3.899  14.351  0.00  0.00    +0.000 C 
ATOM     23  F   UNL     1       6.562   3.552  13.279  0.00  0.00    +0.000 F 
ATOM     24  F   UNL     1       6.288   3.172  15.398  0.00  0.00    +0.000 F 
ENDBRANCH  21  22
ENDBRANCH  20  21
ENDBRANCH  15  16
ENDBRANCH  10  15
TORSDOF 7
ENDMDL
MODEL 8
REMARK VINA RESULT:      -7.0      0.940      1.039
REMARK  Name = 
REMARK  7 active torsions:
REMARK  status: ('A' for Active; 'I' for Inactive)
REMARK    1  A    between atoms: O_1  and  C_2
REMARK    2  A    between atoms: C_2  and  C_3
REMARK    3  A    between atoms: C_3  and  C_4
REMARK    4  A    between atoms: N_13  and  C_14
REMARK    5  A    between atoms: C_14  and  C_15
REMARK    6  A    between atoms: N_19  and  C_20
REMARK    7  A    between atoms: C_20  and  C_21
REMARK                            x       y       z     vdW  Elec       q    Type
REMARK                         _______ _______ _______ _____ _____    ______ ____
ROOT
ATOM      1  C   UNL     1       2.891   4.044  18.839  0.00  0.00    +0.000 C 
ATOM      2  C   UNL     1       2.925   4.034  20.372  0.00  0.00    +0.000 C 
ATOM      3  C   UNL     1       1.859   4.970  20.909  0.00  0.00    +0.000 C 
ATOM      4  C   UNL     1       1.917   6.316  20.245  0.00  0.00    +0.000 A 
ATOM      5  C   UNL     1       1.236   7.375  20.876  0.00  0.00    +0.000 A 
ATOM      6  C   UNL     1       1.206   8.640  20.309  0.00  0.00    +0.000 A 
ATOM      7  C   UNL     1       1.868   8.856  19.108  0.00  0.00    +0.000 A 
ATOM      8  C   UNL     1       2.551   7.806  18.483  0.00  0.00    +0.000 A 
ATOM      9  C   UNL     1       2.584   6.501  19.014  0.00  0.00    +0.000 A 
ATOM     10  N   UNL     1       3.218   5.426  18.369  0.00  0.00    +0.000 N 
ENDROOT
BRANCH   1  11
ATOM     11  C   UNL     1       3.817   2.933  18.292  0.00  0.00    +0.000 C 
BRANCH  11  12
ATOM     12  C   UNL     1       3.317   1.519  18.604  0.00  0.00    +0.000 C 
BRANCH  12  13
ATOM     13  O   UNL     1       4.372   0.578  18.501  0.00  0.00    +0.000 OA
ATOM     14  H   UNL     1       5.200   1.026  18.748  0.00  0.00    +0.000 HD
ENDBRANCH  12  13
ENDBRANCH  11  12
ENDBRANCH   1  11
BRANCH  10  15
ATOM     15  C   UNL     1       3.956   5.641  17.118  0.00  0.00    +0.000 C 
BRANCH  15  16
ATOM     16  C   UNL     1       5.400   5.241  16.987  0.00  0.00    +0.000 A 
ATOM     17  N   UNL     1       6.264   5.312  17.989  0.00  0.00    +0.000 NA
ATOM     18  C   UNL     1       7.463   5.029  17.418  0.00  0.00    +0.000 A 
ATOM     19  N   UNL     1       7.413   4.770  16.114  0.00  0.00    +0.000 NA
ATOM     20  N   UNL     1       6.086   4.847  15.859  0.00  0.00    +0.000 N 
BRANCH  20  21
ATOM     21  C   UNL     1       5.631   4.620  14.510  0.00  0.00    +0.000 C 
BRANCH  21  22
ATOM     22  C   UNL     1       6.647   3.941  13.620  0.00  0.00    +0.000 C 
ATOM     23  F   UNL     1       6.021   3.196  12.672  0.00  0.00    +0.000 F 
ATOM     24  F   UNL     1       7.338   4.900  12.939  0.00  0.00    +0.000 F 
ENDBRANCH  21  22
ENDBRANCH  20  21
ENDBRANCH  15  16
ENDBRANCH  10  15
TORSDOF 7
ENDMDL
MODEL 9
REMARK VINA RESULT:      -6.9      1.901      3.473
REMARK  Name = 
REMARK  7 active torsions:
REMARK  status: ('A' for Active; 'I' for Inactive)
REMARK    1  A    between atoms: O_1  and  C_2
REMARK    2  A    between atoms: C_2  and  C_3
REMARK    3  A    between atoms: C_3  and  C_4
REMARK    4  A    between atoms: N_13  and  C_14
REMARK    5  A    between atoms: C_14  and  C_15
REMARK    6  A    between atoms: N_19  and  C_20
REMARK    7  A    between atoms: C_20  and  C_21
REMARK                            x       y       z     vdW  Elec       q    Type
REMARK                         _______ _______ _______ _____ _____    ______ ____
ROOT
ATOM      1  C   UNL     1       3.841   6.294  18.295  0.00  0.00    +0.000 C 
ATOM      2  C   UNL     1       2.581   7.026  18.774  0.00  0.00    +0.000 C 
ATOM      3  C   UNL     1       2.031   6.335  20.007  0.00  0.00    +0.000 C 
ATOM      4  C   UNL     1       1.911   4.851  19.804  0.00  0.00    +0.000 A 
ATOM      5  C   UNL     1       1.102   4.141  20.713  0.00  0.00    +0.000 A 
ATOM      6  C   UNL     1       0.970   2.765  20.622  0.00  0.00    +0.000 A 
ATOM      7  C   UNL     1       1.638   2.088  19.611  0.00  0.00    +0.000 A 
ATOM      8  C   UNL     1       2.436   2.794  18.702  0.00  0.00    +0.000 A 
ATOM      9  C   UNL     1       2.617   4.190  18.777  0.00  0.00    +0.000 A 
ATOM     10  N   UNL     1       3.460   4.901  17.907  0.00  0.00    +0.000 N 
ENDROOT
BRANCH   1  11
ATOM     11  C   UNL     1       4.529   7.118  17.180  0.00  0.00    +0.000 C 
BRANCH  11  12
ATOM     12  C   UNL     1       5.837   7.773  17.631  0.00  0.00    +0.000 C 
BRANCH  12  13
ATOM     13  O   UNL     1       6.859   7.567  16.671  0.00  0.00    +0.000 OA
ATOM     14  H   UNL     1       7.695   7.895  17.045  0.00  0.00    +0.000 HD
ENDBRANCH  12  13
ENDBRANCH  11  12
ENDBRANCH   1  11
BRANCH  10  15
ATOM     15  C   UNL     1       4.146   4.211  16.807  0.00  0.00    +0.000 C 
BRANCH  15  16
ATOM     16  C   UNL     1       5.644   4.255  16.673  0.00  0.00    +0.000 A 
ATOM     17  N   UNL     1       6.466   4.082  17.697  0.00  0.00    +0.000 NA
ATOM     18  C   UNL     1       7.694   4.362  17.190  0.00  0.00    +0.000 A 
ATOM     19  N   UNL     1       7.705   4.690  15.902  0.00  0.00    +0.000 NA
ATOM     20  N   UNL     1       6.401   4.561  15.564  0.00  0.00    +0.000 N 
BRANCH  20  21
ATOM     21  C   UNL     1       6.012   4.843  14.205  0.00  0.00    +0.000 C 
BRANCH  21  22
ATOM     22  C   UNL     1       6.230   3.694  13.247  0.00  0.00    +0.000 C 
ATOM     23  F   UNL     1       5.085   3.420  12.570  0.00  0.00    +0.000 F 
ATOM     24  F   UNL     1       7.134   4.082  12.302  0.00  0.00    +0.000 F 
ENDBRANCH  21  22
ENDBRANCH  20  21
ENDBRANCH  15  16
ENDBRANCH  10  15
TORSDOF 7
ENDMDL
