MODEL 1
REMARK VINA RESULT:      -8.1      0.000      0.000
REMARK  Name = 
REMARK  6 active torsions:
REMARK  status: ('A' for Active; 'I' for Inactive)
REMARK    1  A    between atoms: C_1  and  O_2
REMARK    2  A    between atoms: O_2  and  C_3
REMARK    3  A    between atoms: C_5  and  C_6
REMARK    4  A    between atoms: C_22  and  O_23
REMARK    5  A    between atoms: O_23  and  C_24
REMARK    6  A    between atoms: C_25  and  O_26
REMARK                            x       y       z     vdW  Elec       q    Type
REMARK                         _______ _______ _______ _____ _____    ______ ____
ROOT
ATOM      1  C   UNL     1       2.865   7.934  17.879  0.00  0.00    +0.000 C 
ATOM      2  C   UNL     1       3.139   6.614  18.022  0.00  0.00    +0.000 C 
ATOM      3  C   UNL     1       4.145   5.933  17.113  0.00  0.00    +0.000 A 
ATOM      4  C   UNL     1       5.084   6.621  16.323  0.00  0.00    +0.000 A 
ATOM      5  C   UNL     1       5.990   5.934  15.500  0.00  0.00    +0.000 A 
ATOM      6  C   UNL     1       6.002   4.544  15.465  0.00  0.00    +0.000 A 
ATOM      7  C   UNL     1       5.089   3.834  16.238  0.00  0.00    +0.000 A 
ATOM      8  C   UNL     1       4.158   4.517  17.044  0.00  0.00    +0.000 A 
ATOM      9  C   UNL     1       3.180   3.691  17.804  0.00  0.00    +0.000 C 
ATOM     10  O   UNL     1       3.103   2.479  17.624  0.00  0.00    +0.000 OA
ATOM     11  C   UNL     1       2.361   4.372  18.793  0.00  0.00    +0.000 A 
ATOM     12  C   UNL     1       1.445   3.752  19.703  0.00  0.00    +0.000 A 
ATOM     13  C   UNL     1       0.911   4.655  20.588  0.00  0.00    +0.000 A 
ATOM     14  S   UNL     1       1.553   6.213  20.351  0.00  0.00    +0.000 S 
ATOM     15  C   UNL     1       2.396   5.754  18.923  0.00  0.00    +0.000 A 
ENDROOT
BRANCH   1  18
ATOM     16  C   UNL     1      -0.263  10.029  18.378  0.00  0.00    +0.000 A 
ATOM     17  C   UNL     1       0.706   9.208  17.779  0.00  0.00    +0.000 A 
ATOM     18  C   UNL     1       1.804   8.741  18.515  0.00  0.00    +0.000 A 
ATOM     19  C   UNL     1       1.902   9.065  19.874  0.00  0.00    +0.000 A 
ATOM     20  C   UNL     1       0.966   9.915  20.470  0.00  0.00    +0.000 A 
ATOM     21  C   UNL     1      -0.109  10.411  19.719  0.00  0.00    +0.000 A 
BRANCH  16  23
ATOM     22  C   UNL     1      -2.521   9.690  17.747  0.00  0.00    +0.000 C 
ATOM     23  O   UNL     1      -1.294  10.387  17.545  0.00  0.00    +0.000 OA
ENDBRANCH  16  23
BRANCH  20  24
ATOM     24  O   UNL     1       1.108  10.114  21.820  0.00  0.00    +0.000 OA
ATOM     25  C   UNL     1       0.306   9.272  22.647  0.00  0.00    +0.000 C 
ENDBRANCH  20  24
BRANCH  21  26
ATOM     26  O   UNL     1      -1.021  11.250  20.298  0.00  0.00    +0.000 OA
ATOM     27  H   UNL     1      -0.561  12.086  20.472  0.00  0.00    +0.000 HD
ENDBRANCH  21  26
ENDBRANCH   1  18
TORSDOF 4
ENDMDL
MODEL 2
REMARK VINA RESULT:      -8.0      1.559      2.610
REMARK  Name = 
REMARK  6 active torsions:
REMARK  status: ('A' for Active; 'I' for Inactive)
REMARK    1  A    between atoms: C_1  and  O_2
REMARK    2  A    between atoms: O_2  and  C_3
REMARK    3  A    between atoms: C_5  and  C_6
REMARK    4  A    between atoms: C_22  and  O_23
REMARK    5  A    between atoms: O_23  and  C_24
REMARK    6  A    between atoms: C_25  and  O_26
REMARK                            x       y       z     vdW  Elec       q    Type
REMARK                         _______ _______ _______ _____ _____    ______ ____
ROOT
ATOM      1  C   UNL     1       2.837   8.541  17.385  0.00  0.00    +0.000 C 
ATOM      2  C   UNL     1       3.118   7.332  17.930  0.00  0.00    +0.000 C 
ATOM      3  C   UNL     1       4.008   6.344  17.198  0.00  0.00    +0.000 A 
ATOM      4  C   UNL     1       4.852   6.690  16.128  0.00  0.00    +0.000 A 
ATOM      5  C   UNL     1       5.653   5.730  15.489  0.00  0.00    +0.000 A 
ATOM      6  C   UNL     1       5.653   4.408  15.919  0.00  0.00    +0.000 A 
ATOM      7  C   UNL     1       4.831   4.035  16.978  0.00  0.00    +0.000 A 
ATOM      8  C   UNL     1       4.004   4.986  17.604  0.00  0.00    +0.000 A 
ATOM      9  C   UNL     1       3.116   4.502  18.698  0.00  0.00    +0.000 C 
ATOM     10  O   UNL     1       3.011   3.304  18.941  0.00  0.00    +0.000 OA
ATOM     11  C   UNL     1       2.421   5.508  19.485  0.00  0.00    +0.000 A 
ATOM     12  C   UNL     1       1.614   5.265  20.642  0.00  0.00    +0.000 A 
ATOM     13  C   UNL     1       1.191   6.433  21.226  0.00  0.00    +0.000 A 
ATOM     14  S   UNL     1       1.810   7.795  20.415  0.00  0.00    +0.000 S 
ATOM     15  C   UNL     1       2.479   6.852  19.141  0.00  0.00    +0.000 A 
ENDROOT
BRANCH   1  18
ATOM     16  C   UNL     1       1.345  11.720  18.830  0.00  0.00    +0.000 A 
ATOM     17  C   UNL     1       2.280  10.787  18.355  0.00  0.00    +0.000 A 
ATOM     18  C   UNL     1       1.862   9.559  17.825  0.00  0.00    +0.000 A 
ATOM     19  C   UNL     1       0.491   9.289  17.730  0.00  0.00    +0.000 A 
ATOM     20  C   UNL     1      -0.448  10.192  18.237  0.00  0.00    +0.000 A 
ATOM     21  C   UNL     1      -0.022  11.402  18.802  0.00  0.00    +0.000 A 
BRANCH  16  23
ATOM     22  C   UNL     1       2.762  13.566  18.387  0.00  0.00    +0.000 C 
ATOM     23  O   UNL     1       1.897  12.888  19.295  0.00  0.00    +0.000 OA
ENDBRANCH  16  23
BRANCH  20  24
ATOM     24  O   UNL     1      -1.766   9.870  18.032  0.00  0.00    +0.000 OA
ATOM     25  C   UNL     1      -2.232  10.037  16.694  0.00  0.00    +0.000 C 
ENDBRANCH  20  24
BRANCH  21  26
ATOM     26  O   UNL     1      -0.937  12.283  19.308  0.00  0.00    +0.000 OA
ATOM     27  H   UNL     1      -1.814  11.905  19.139  0.00  0.00    +0.000 HD
ENDBRANCH  21  26
ENDBRANCH   1  18
TORSDOF 4
ENDMDL
MODEL 3
REMARK VINA RESULT:      -8.0      1.547      1.890
REMARK  Name = 
REMARK  6 active torsions:
REMARK  status: ('A' for Active; 'I' for Inactive)
REMARK    1  A    between atoms: C_1  and  O_2
REMARK    2  A    between atoms: O_2  and  C_3
REMARK    3  A    between atoms: C_5  and  C_6
REMARK    4  A    between atoms: C_22  and  O_23
REMARK    5  A    between atoms: O_23  and  C_24
REMARK    6  A    between atoms: C_25  and  O_26
REMARK                            x       y       z     vdW  Elec       q    Type
REMARK                         _______ _______ _______ _____ _____    ______ ____
ROOT
ATOM      1  C   UNL     1       2.834   8.508  17.406  0.00  0.00    +0.000 C 
ATOM      2  C   UNL     1       3.125   7.285  17.914  0.00  0.00    +0.000 C 
ATOM      3  C   UNL     1       4.018   6.326  17.149  0.00  0.00    +0.000 A 
ATOM      4  C   UNL     1       4.855   6.708  16.085  0.00  0.00    +0.000 A 
ATOM      5  C   UNL     1       5.659   5.773  15.415  0.00  0.00    +0.000 A 
ATOM      6  C   UNL     1       5.669   4.438  15.806  0.00  0.00    +0.000 A 
ATOM      7  C   UNL     1       4.856   4.029  16.858  0.00  0.00    +0.000 A 
ATOM      8  C   UNL     1       4.026   4.956  17.516  0.00  0.00    +0.000 A 
ATOM      9  C   UNL     1       3.147   4.435  18.599  0.00  0.00    +0.000 C 
ATOM     10  O   UNL     1       3.050   3.229  18.808  0.00  0.00    +0.000 OA
ATOM     11  C   UNL     1       2.449   5.412  19.418  0.00  0.00    +0.000 A 
ATOM     12  C   UNL     1       1.649   5.130  20.572  0.00  0.00    +0.000 A 
ATOM     13  C   UNL     1       1.222   6.277  21.193  0.00  0.00    +0.000 A 
ATOM     14  S   UNL     1       1.828   7.666  20.418  0.00  0.00    +0.000 S 
ATOM     15  C   UNL     1       2.496   6.766  19.114  0.00  0.00    +0.000 A 
ENDROOT
BRANCH   1  18
ATOM     16  C   UNL     1      -0.446  10.260  18.172  0.00  0.00    +0.000 A 
ATOM     17  C   UNL     1       0.475   9.278  17.778  0.00  0.00    +0.000 A 
ATOM     18  C   UNL     1       1.854   9.506  17.880  0.00  0.00    +0.000 A 
ATOM     19  C   UNL     1       2.307  10.714  18.425  0.00  0.00    +0.000 A 
ATOM     20  C   UNL     1       1.399  11.716  18.782  0.00  0.00    +0.000 A 
ATOM     21  C   UNL     1       0.022  11.497  18.641  0.00  0.00    +0.000 A 
BRANCH  16  23
ATOM     22  C   UNL     1      -2.299   9.967  16.724  0.00  0.00    +0.000 C 
ATOM     23  O   UNL     1      -1.761   9.887  18.042  0.00  0.00    +0.000 OA
ENDBRANCH  16  23
BRANCH  20  24
ATOM     24  O   UNL     1       1.936  12.832  19.372  0.00  0.00    +0.000 OA
ATOM     25  C   UNL     1       2.511  13.780  18.472  0.00  0.00    +0.000 C 
ENDBRANCH  20  24
BRANCH  21  26
ATOM     26  O   UNL     1      -0.868  12.479  18.980  0.00  0.00    +0.000 OA
ATOM     27  H   UNL     1      -0.432  13.326  18.799  0.00  0.00    +0.000 HD
ENDBRANCH  21  26
ENDBRANCH   1  18
TORSDOF 4
ENDMDL
MODEL 4
REMARK VINA RESULT:      -7.8      2.431      7.209
REMARK  Name = 
REMARK  6 active torsions:
REMARK  status: ('A' for Active; 'I' for Inactive)
REMARK    1  A    between atoms: C_1  and  O_2
REMARK    2  A    between atoms: O_2  and  C_3
REMARK    3  A    between atoms: C_5  and  C_6
REMARK    4  A    between atoms: C_22  and  O_23
REMARK    5  A    between atoms: O_23  and  C_24
REMARK    6  A    between atoms: C_25  and  O_26
REMARK                            x       y       z     vdW  Elec       q    Type
REMARK                         _______ _______ _______ _____ _____    ______ ____
ROOT
ATOM      1  C   UNL     1       3.824   7.677  17.516  0.00  0.00    +0.000 C 
ATOM      2  C   UNL     1       2.786   7.581  18.382  0.00  0.00    +0.000 C 
ATOM      3  C   UNL     1       1.927   8.792  18.694  0.00  0.00    +0.000 A 
ATOM      4  C   UNL     1       1.902   9.961  17.912  0.00  0.00    +0.000 A 
ATOM      5  C   UNL     1       1.086  11.051  18.252  0.00  0.00    +0.000 A 
ATOM      6  C   UNL     1       0.254  10.993  19.365  0.00  0.00    +0.000 A 
ATOM      7  C   UNL     1       0.253   9.849  20.157  0.00  0.00    +0.000 A 
ATOM      8  C   UNL     1       1.090   8.763  19.837  0.00  0.00    +0.000 A 
ATOM      9  C   UNL     1       1.070   7.594  20.759  0.00  0.00    +0.000 C 
ATOM     10  O   UNL     1       0.458   7.638  21.822  0.00  0.00    +0.000 OA
ATOM     11  C   UNL     1       1.767   6.393  20.326  0.00  0.00    +0.000 A 
ATOM     12  C   UNL     1       1.778   5.132  21.004  0.00  0.00    +0.000 A 
ATOM     13  C   UNL     1       2.431   4.166  20.280  0.00  0.00    +0.000 A 
ATOM     14  S   UNL     1       2.970   4.769  18.783  0.00  0.00    +0.000 S 
ATOM     15  C   UNL     1       2.529   6.387  19.166  0.00  0.00    +0.000 A 
ENDROOT
BRANCH   1  18
ATOM     16  C   UNL     1       6.695   5.229  17.943  0.00  0.00    +0.000 A 
ATOM     17  C   UNL     1       5.646   6.112  18.242  0.00  0.00    +0.000 A 
ATOM     18  C   UNL     1       4.886   6.694  17.218  0.00  0.00    +0.000 A 
ATOM     19  C   UNL     1       5.156   6.350  15.888  0.00  0.00    +0.000 A 
ATOM     20  C   UNL     1       6.225   5.504  15.576  0.00  0.00    +0.000 A 
ATOM     21  C   UNL     1       7.006   4.955  16.602  0.00  0.00    +0.000 A 
BRANCH  16  23
ATOM     22  C   UNL     1       8.133   5.635  19.781  0.00  0.00    +0.000 C 
ATOM     23  O   UNL     1       7.333   4.714  19.045  0.00  0.00    +0.000 OA
ENDBRANCH  16  23
BRANCH  20  24
ATOM     24  O   UNL     1       6.362   5.171  14.252  0.00  0.00    +0.000 OA
ATOM     25  C   UNL     1       5.701   3.970  13.855  0.00  0.00    +0.000 C 
ENDBRANCH  20  24
BRANCH  21  26
ATOM     26  O   UNL     1       8.058   4.135  16.300  0.00  0.00    +0.000 OA
ATOM     27  H   UNL     1       8.211   4.215  15.345  0.00  0.00    +0.000 HD
ENDBRANCH  21  26
ENDBRANCH   1  18
TORSDOF 4
ENDMDL
MODEL 5
REMARK VINA RESULT:      -7.8      0.161      2.330
REMARK  Name = 
REMARK  6 active torsions:
REMARK  status: ('A' for Active; 'I' for Inactive)
REMARK    1  A    between atoms: C_1  and  O_2
REMARK    2  A    between atoms: O_2  and  C_3
REMARK    3  A    between atoms: C_5  and  C_6
REMARK    4  A    between atoms: C_22  and  O_23
REMARK    5  A    between atoms: O_23  and  C_24
REMARK    6  A    between atoms: C_25  and  O_26
REMARK                            x       y       z     vdW  Elec       q    Type
REMARK                         _______ _______ _______ _____ _____    ______ ____
ROOT
ATOM      1  C   UNL     1       2.916   7.993  17.904  0.00  0.00    +0.000 C 
ATOM      2  C   UNL     1       3.148   6.665  18.039  0.00  0.00    +0.000 C 
ATOM      3  C   UNL     1       4.119   5.954  17.115  0.00  0.00    +0.000 A 
ATOM      4  C   UNL     1       5.069   6.615  16.314  0.00  0.00    +0.000 A 
ATOM      5  C   UNL     1       5.942   5.901  15.477  0.00  0.00    +0.000 A 
ATOM      6  C   UNL     1       5.908   4.512  15.438  0.00  0.00    +0.000 A 
ATOM      7  C   UNL     1       4.983   3.829  16.221  0.00  0.00    +0.000 A 
ATOM      8  C   UNL     1       4.085   4.539  17.041  0.00  0.00    +0.000 A 
ATOM      9  C   UNL     1       3.091   3.742  17.812  0.00  0.00    +0.000 C 
ATOM     10  O   UNL     1       2.972   2.535  17.629  0.00  0.00    +0.000 OA
ATOM     11  C   UNL     1       2.307   4.446  18.814  0.00  0.00    +0.000 A 
ATOM     12  C   UNL     1       1.384   3.853  19.734  0.00  0.00    +0.000 A 
ATOM     13  C   UNL     1       0.892   4.770  20.629  0.00  0.00    +0.000 A 
ATOM     14  S   UNL     1       1.580   6.307  20.387  0.00  0.00    +0.000 S 
ATOM     15  C   UNL     1       2.389   5.826  18.947  0.00  0.00    +0.000 A 
ENDROOT
BRANCH   1  18
ATOM     16  C   UNL     1       0.931   9.863  20.548  0.00  0.00    +0.000 A 
ATOM     17  C   UNL     1       1.947   9.119  19.927  0.00  0.00    +0.000 A 
ATOM     18  C   UNL     1       1.889   8.832  18.556  0.00  0.00    +0.000 A 
ATOM     19  C   UNL     1       0.826   9.338  17.798  0.00  0.00    +0.000 A 
ATOM     20  C   UNL     1      -0.212  10.044  18.413  0.00  0.00    +0.000 A 
ATOM     21  C   UNL     1      -0.169  10.294  19.791  0.00  0.00    +0.000 A 
BRANCH  16  23
ATOM     22  C   UNL     1       0.363   9.283  22.774  0.00  0.00    +0.000 C 
ATOM     23  O   UNL     1       1.134  10.089  21.887  0.00  0.00    +0.000 OA
ENDBRANCH  16  23
BRANCH  20  24
ATOM     24  O   UNL     1      -1.170  10.558  17.575  0.00  0.00    +0.000 OA
ATOM     25  C   UNL     1      -2.266   9.687  17.297  0.00  0.00    +0.000 C 
ENDBRANCH  20  24
BRANCH  21  26
ATOM     26  O   UNL     1      -1.188  10.976  20.397  0.00  0.00    +0.000 OA
ATOM     27  H   UNL     1      -0.963  11.918  20.348  0.00  0.00    +0.000 HD
ENDBRANCH  21  26
ENDBRANCH   1  18
TORSDOF 4
ENDMDL
MODEL 6
REMARK VINA RESULT:      -7.8      2.447      6.855
REMARK  Name = 
REMARK  6 active torsions:
REMARK  status: ('A' for Active; 'I' for Inactive)
REMARK    1  A    between atoms: C_1  and  O_2
REMARK    2  A    between atoms: O_2  and  C_3
REMARK    3  A    between atoms: C_5  and  C_6
REMARK    4  A    between atoms: C_22  and  O_23
REMARK    5  A    between atoms: O_23  and  C_24
REMARK    6  A    between atoms: C_25  and  O_26
REMARK                            x       y       z     vdW  Elec       q    Type
REMARK                         _______ _______ _______ _____ _____    ______ ____
ROOT
ATOM      1  C   UNL     1       3.813   7.691  17.455  0.00  0.00    +0.000 C 
ATOM      2  C   UNL     1       2.803   7.577  18.353  0.00  0.00    +0.000 C 
ATOM      3  C   UNL     1       1.883   8.752  18.630  0.00  0.00    +0.000 A 
ATOM      4  C   UNL     1       1.771   9.878  17.794  0.00  0.00    +0.000 A 
ATOM      5  C   UNL     1       0.901  10.934  18.105  0.00  0.00    +0.000 A 
ATOM      6  C   UNL     1       0.101  10.883  19.241  0.00  0.00    +0.000 A 
ATOM      7  C   UNL     1       0.186   9.781  20.086  0.00  0.00    +0.000 A 
ATOM      8  C   UNL     1       1.077   8.731  19.796  0.00  0.00    +0.000 A 
ATOM      9  C   UNL     1       1.149   7.609  20.773  0.00  0.00    +0.000 C 
ATOM     10  O   UNL     1       0.561   7.670  21.848  0.00  0.00    +0.000 OA
ATOM     11  C   UNL     1       1.903   6.430  20.378  0.00  0.00    +0.000 A 
ATOM     12  C   UNL     1       2.004   5.207  21.115  0.00  0.00    +0.000 A 
ATOM     13  C   UNL     1       2.694   4.245  20.420  0.00  0.00    +0.000 A 
ATOM     14  S   UNL     1       3.161   4.804  18.881  0.00  0.00    +0.000 S 
ATOM     15  C   UNL     1       2.636   6.411  19.199  0.00  0.00    +0.000 A 
ENDROOT
BRANCH   1  18
ATOM     16  C   UNL     1       5.873   4.892  15.925  0.00  0.00    +0.000 A 
ATOM     17  C   UNL     1       4.840   5.817  16.139  0.00  0.00    +0.000 A 
ATOM     18  C   UNL     1       4.923   6.757  17.176  0.00  0.00    +0.000 A 
ATOM     19  C   UNL     1       6.074   6.794  17.972  0.00  0.00    +0.000 A 
ATOM     20  C   UNL     1       7.091   5.851  17.795  0.00  0.00    +0.000 A 
ATOM     21  C   UNL     1       6.985   4.889  16.781  0.00  0.00    +0.000 A 
BRANCH  16  23
ATOM     22  C   UNL     1       6.463   4.313  13.704  0.00  0.00    +0.000 C 
ATOM     23  O   UNL     1       5.668   4.052  14.858  0.00  0.00    +0.000 OA
ENDBRANCH  16  23
BRANCH  20  24
ATOM     24  O   UNL     1       8.207   6.015  18.575  0.00  0.00    +0.000 OA
ATOM     25  C   UNL     1       8.090   5.535  19.913  0.00  0.00    +0.000 C 
ENDBRANCH  20  24
BRANCH  21  26
ATOM     26  O   UNL     1       7.973   3.959  16.611  0.00  0.00    +0.000 OA
ATOM     27  H   UNL     1       8.335   3.770  17.491  0.00  0.00    +0.000 HD
ENDBRANCH  21  26
ENDBRANCH   1  18
TORSDOF 4
ENDMDL
MODEL 7
REMARK VINA RESULT:      -7.0      6.028      8.942
REMARK  Name = 
REMARK  6 active torsions:
REMARK  status: ('A' for Active; 'I' for Inactive)
REMARK    1  A    between atoms: C_1  and  O_2
REMARK    2  A    between atoms: O_2  and  C_3
REMARK    3  A    between atoms: C_5  and  C_6
REMARK    4  A    between atoms: C_22  and  O_23
REMARK    5  A    between atoms: O_23  and  C_24
REMARK    6  A    between atoms: C_25  and  O_26
REMARK                            x       y       z     vdW  Elec       q    Type
REMARK                         _______ _______ _______ _____ _____    ______ ____
ROOT
ATOM      1  C   UNL     1      -4.749  12.703  19.576  0.00  0.00    +0.000 C 
ATOM      2  C   UNL     1      -3.516  12.244  19.248  0.00  0.00    +0.000 C 
ATOM      3  C   UNL     1      -3.310  11.422  17.990  0.00  0.00    +0.000 A 
ATOM      4  C   UNL     1      -4.236  11.353  16.934  0.00  0.00    +0.000 A 
ATOM      5  C   UNL     1      -3.988  10.572  15.794  0.00  0.00    +0.000 A 
ATOM      6  C   UNL     1      -2.799   9.863  15.666  0.00  0.00    +0.000 A 
ATOM      7  C   UNL     1      -1.860   9.913  16.692  0.00  0.00    +0.000 A 
ATOM      8  C   UNL     1      -2.115  10.671  17.851  0.00  0.00    +0.000 A 
ATOM      9  C   UNL     1      -1.086  10.636  18.927  0.00  0.00    +0.000 C 
ATOM     10  O   UNL     1      -0.130   9.870  18.861  0.00  0.00    +0.000 OA
ATOM     11  C   UNL     1      -1.241  11.575  20.026  0.00  0.00    +0.000 A 
ATOM     12  C   UNL     1      -0.314  11.782  21.097  0.00  0.00    +0.000 A 
ATOM     13  C   UNL     1      -0.694  12.819  21.911  0.00  0.00    +0.000 A 
ATOM     14  S   UNL     1      -2.122  13.559  21.352  0.00  0.00    +0.000 S 
ATOM     15  C   UNL     1      -2.373  12.372  20.133  0.00  0.00    +0.000 A 
ENDROOT
BRANCH   1  18
ATOM     16  C   UNL     1      -5.784  13.232  23.192  0.00  0.00    +0.000 A 
ATOM     17  C   UNL     1      -5.288  12.627  22.026  0.00  0.00    +0.000 A 
ATOM     18  C   UNL     1      -5.204  13.346  20.826  0.00  0.00    +0.000 A 
ATOM     19  C   UNL     1      -5.578  14.696  20.812  0.00  0.00    +0.000 A 
ATOM     20  C   UNL     1      -6.112  15.297  21.956  0.00  0.00    +0.000 A 
ATOM     21  C   UNL     1      -6.230  14.561  23.143  0.00  0.00    +0.000 A 
BRANCH  16  23
ATOM     22  C   UNL     1      -4.530  12.283  24.964  0.00  0.00    +0.000 C 
ATOM     23  O   UNL     1      -5.782  12.416  24.296  0.00  0.00    +0.000 OA
ENDBRANCH  16  23
BRANCH  20  24
ATOM     24  O   UNL     1      -6.381  16.638  21.861  0.00  0.00    +0.000 OA
ATOM     25  C   UNL     1      -6.914  17.066  20.608  0.00  0.00    +0.000 C 
ENDBRANCH  20  24
BRANCH  21  26
ATOM     26  O   UNL     1      -6.761  15.143  24.261  0.00  0.00    +0.000 OA
ATOM     27  H   UNL     1      -6.017  15.354  24.847  0.00  0.00    +0.000 HD
ENDBRANCH  21  26
ENDBRANCH   1  18
TORSDOF 4
ENDMDL
MODEL 8
REMARK VINA RESULT:      -7.0      8.516     11.472
REMARK  Name = 
REMARK  6 active torsions:
REMARK  status: ('A' for Active; 'I' for Inactive)
REMARK    1  A    between atoms: C_1  and  O_2
REMARK    2  A    between atoms: O_2  and  C_3
REMARK    3  A    between atoms: C_5  and  C_6
REMARK    4  A    between atoms: C_22  and  O_23
REMARK    5  A    between atoms: O_23  and  C_24
REMARK    6  A    between atoms: C_25  and  O_26
REMARK                            x       y       z     vdW  Elec       q    Type
REMARK                         _______ _______ _______ _____ _____    ______ ____
ROOT
ATOM      1  C   UNL     1       9.178  12.457  22.146  0.00  0.00    +0.000 C 
ATOM      2  C   UNL     1       8.105  13.183  22.545  0.00  0.00    +0.000 C 
ATOM      3  C   UNL     1       7.496  12.966  23.918  0.00  0.00    +0.000 A 
ATOM      4  C   UNL     1       8.145  12.294  24.969  0.00  0.00    +0.000 A 
ATOM      5  C   UNL     1       7.529  12.125  26.219  0.00  0.00    +0.000 A 
ATOM      6  C   UNL     1       6.262  12.644  26.461  0.00  0.00    +0.000 A 
ATOM      7  C   UNL     1       5.595  13.318  25.442  0.00  0.00    +0.000 A 
ATOM      8  C   UNL     1       6.195  13.466  24.178  0.00  0.00    +0.000 A 
ATOM      9  C   UNL     1       5.400  14.155  23.123  0.00  0.00    +0.000 C 
ATOM     10  O   UNL     1       4.224  14.451  23.311  0.00  0.00    +0.000 OA
ATOM     11  C   UNL     1       6.088  14.498  21.889  0.00  0.00    +0.000 A 
ATOM     12  C   UNL     1       5.544  15.253  20.801  0.00  0.00    +0.000 A 
ATOM     13  C   UNL     1       6.483  15.505  19.832  0.00  0.00    +0.000 A 
ATOM     14  S   UNL     1       8.006  14.881  20.263  0.00  0.00    +0.000 S 
ATOM     15  C   UNL     1       7.390  14.078  21.654  0.00  0.00    +0.000 A 
ENDROOT
BRANCH   1  18
ATOM     16  C   UNL     1      11.337  13.218  19.115  0.00  0.00    +0.000 A 
ATOM     17  C   UNL     1      10.799  13.270  20.411  0.00  0.00    +0.000 A 
ATOM     18  C   UNL     1       9.801  12.370  20.809  0.00  0.00    +0.000 A 
ATOM     19  C   UNL     1       9.375  11.383  19.912  0.00  0.00    +0.000 A 
ATOM     20  C   UNL     1       9.873  11.347  18.606  0.00  0.00    +0.000 A 
ATOM     21  C   UNL     1      10.843  12.275  18.201  0.00  0.00    +0.000 A 
BRANCH  16  23
ATOM     22  C   UNL     1      12.254  15.336  19.649  0.00  0.00    +0.000 C 
ATOM     23  O   UNL     1      12.324  14.141  18.876  0.00  0.00    +0.000 OA
ENDBRANCH  16  23
BRANCH  20  24
ATOM     24  O   UNL     1       9.448  10.301  17.827  0.00  0.00    +0.000 OA
ATOM     25  C   UNL     1       8.559   9.387  18.468  0.00  0.00    +0.000 C 
ENDBRANCH  20  24
BRANCH  21  26
ATOM     26  O   UNL     1      11.326  12.249  16.921  0.00  0.00    +0.000 OA
ATOM     27  H   UNL     1      10.633  12.618  16.353  0.00  0.00    +0.000 HD
ENDBRANCH  21  26
ENDBRANCH   1  18
TORSDOF 4
ENDMDL
MODEL 9
REMARK VINA RESULT:      -6.9      6.069      8.750
REMARK  Name = 
REMARK  6 active torsions:
REMARK  status: ('A' for Active; 'I' for Inactive)
REMARK    1  A    between atoms: C_1  and  O_2
REMARK    2  A    between atoms: O_2  and  C_3
REMARK    3  A    between atoms: C_5  and  C_6
REMARK    4  A    between atoms: C_22  and  O_23
REMARK    5  A    between atoms: O_23  and  C_24
REMARK    6  A    between atoms: C_25  and  O_26
REMARK                            x       y       z     vdW  Elec       q    Type
REMARK                         _______ _______ _______ _____ _____    ______ ____
ROOT
ATOM      1  C   UNL     1      -4.838  12.679  19.494  0.00  0.00    +0.000 C 
ATOM      2  C   UNL     1      -3.589  12.255  19.180  0.00  0.00    +0.000 C 
ATOM      3  C   UNL     1      -3.350  11.417  17.937  0.00  0.00    +0.000 A 
ATOM      4  C   UNL     1      -4.269  11.299  16.879  0.00  0.00    +0.000 A 
ATOM      5  C   UNL     1      -3.990  10.507  15.754  0.00  0.00    +0.000 A 
ATOM      6  C   UNL     1      -2.778   9.835  15.644  0.00  0.00    +0.000 A 
ATOM      7  C   UNL     1      -1.846   9.934  16.672  0.00  0.00    +0.000 A 
ATOM      8  C   UNL     1      -2.131  10.704  17.816  0.00  0.00    +0.000 A 
ATOM      9  C   UNL     1      -1.106  10.723  18.896  0.00  0.00    +0.000 C 
ATOM     10  O   UNL     1      -0.125   9.988  18.848  0.00  0.00    +0.000 OA
ATOM     11  C   UNL     1      -1.297  11.675  19.978  0.00  0.00    +0.000 A 
ATOM     12  C   UNL     1      -0.381  11.933  21.048  0.00  0.00    +0.000 A 
ATOM     13  C   UNL     1      -0.800  12.971  21.842  0.00  0.00    +0.000 A 
ATOM     14  S   UNL     1      -2.248  13.653  21.265  0.00  0.00    +0.000 S 
ATOM     15  C   UNL     1      -2.455  12.436  20.066  0.00  0.00    +0.000 A 
ENDROOT
BRANCH   1  18
ATOM     16  C   UNL     1      -6.125  15.294  21.928  0.00  0.00    +0.000 A 
ATOM     17  C   UNL     1      -5.732  14.668  20.735  0.00  0.00    +0.000 A 
ATOM     18  C   UNL     1      -5.320  13.329  20.730  0.00  0.00    +0.000 A 
ATOM     19  C   UNL     1      -5.348  12.602  21.927  0.00  0.00    +0.000 A 
ATOM     20  C   UNL     1      -5.698  13.226  23.129  0.00  0.00    +0.000 A 
ATOM     21  C   UNL     1      -6.072  14.577  23.133  0.00  0.00    +0.000 A 
BRANCH  16  23
ATOM     22  C   UNL     1      -5.559  17.485  21.227  0.00  0.00    +0.000 C 
ATOM     23  O   UNL     1      -6.529  16.597  21.777  0.00  0.00    +0.000 OA
ENDBRANCH  16  23
BRANCH  20  24
ATOM     24  O   UNL     1      -5.764  12.414  24.232  0.00  0.00    +0.000 OA
ATOM     25  C   UNL     1      -4.540  12.256  24.947  0.00  0.00    +0.000 C 
ENDBRANCH  20  24
BRANCH  21  26
ATOM     26  O   UNL     1      -6.405  15.193  24.308  0.00  0.00    +0.000 OA
ATOM     27  H   UNL     1      -5.574  15.431  24.746  0.00  0.00    +0.000 HD
ENDBRANCH  21  26
ENDBRANCH   1  18
TORSDOF 4
ENDMDL
