MODEL 1
REMARK VINA RESULT:      -7.9      0.000      0.000
REMARK  Name = 
REMARK  3 active torsions:
REMARK  status: ('A' for Active; 'I' for Inactive)
REMARK    1  A    between atoms: N_4  and  C_5
REMARK    2  A    between atoms: C_8  and  C_9
REMARK    3  A    between atoms: C_12  and  C_13
REMARK                            x       y       z     vdW  Elec       q    Type
REMARK                         _______ _______ _______ _____ _____    ______ ____
ROOT
ATOM      1  C   UNL     1       0.698   9.014  20.458  0.00  0.00    +0.000 A 
ATOM      2  C   UNL     1       1.208   7.794  20.889  0.00  0.00    +0.000 A 
ATOM      3  C   UNL     1       2.059   7.050  20.063  0.00  0.00    +0.000 A 
ATOM      4  C   UNL     1       2.440   7.499  18.785  0.00  0.00    +0.000 A 
ATOM      5  C   UNL     1       1.896   8.719  18.351  0.00  0.00    +0.000 A 
ATOM      6  C   UNL     1       1.032   9.450  19.173  0.00  0.00    +0.000 A 
ATOM      7  F   UNL     1       0.531  10.612  18.717  0.00  0.00    +0.000 F 
ENDROOT
BRANCH   1  11
ATOM      8  N   UNL     1      -0.990  10.851  23.088  0.00  0.00    +0.000 N 
ATOM      9  C   UNL     1       0.002  10.063  22.592  0.00  0.00    +0.000 C 
ATOM     10  O   UNL     1       0.890   9.677  23.339  0.00  0.00    +0.000 OA
ATOM     11  N   UNL     1      -0.141   9.825  21.253  0.00  0.00    +0.000 N 
ATOM     12  H   UNL     1      -0.928  10.944  24.095  0.00  0.00    +0.000 HD
ATOM     13  H   UNL     1      -1.924  10.687  22.742  0.00  0.00    +0.000 HD
ATOM     14  H   UNL     1      -0.768  10.441  20.751  0.00  0.00    +0.000 HD
ENDBRANCH   1  11
BRANCH   4  15
ATOM     15  C   UNL     1       3.378   6.709  17.955  0.00  0.00    +0.000 A 
ATOM     16  C   UNL     1       4.340   7.323  17.135  0.00  0.00    +0.000 A 
ATOM     17  C   UNL     1       5.216   6.567  16.345  0.00  0.00    +0.000 A 
ATOM     18  C   UNL     1       5.152   5.169  16.342  0.00  0.00    +0.000 A 
ATOM     19  C   UNL     1       4.195   4.543  17.148  0.00  0.00    +0.000 A 
ATOM     20  C   UNL     1       3.332   5.301  17.946  0.00  0.00    +0.000 A 
BRANCH  18  21
ATOM     21  C   UNL     1       6.085   4.338  15.499  0.00  0.00    +0.000 C 
ATOM     22  F   UNL     1       5.842   3.000  15.572  0.00  0.00    +0.000 F 
ATOM     23  F   UNL     1       6.015   4.657  14.177  0.00  0.00    +0.000 F 
ATOM     24  F   UNL     1       7.391   4.499  15.852  0.00  0.00    +0.000 F 
ENDBRANCH  18  21
ENDBRANCH   4  15
TORSDOF 3
ENDMDL
MODEL 2
REMARK VINA RESULT:      -7.9      0.154      1.059
REMARK  Name = 
REMARK  3 active torsions:
REMARK  status: ('A' for Active; 'I' for Inactive)
REMARK    1  A    between atoms: N_4  and  C_5
REMARK    2  A    between atoms: C_8  and  C_9
REMARK    3  A    between atoms: C_12  and  C_13
REMARK                            x       y       z     vdW  Elec       q    Type
REMARK                         _______ _______ _______ _____ _____    ______ ____
ROOT
ATOM      1  C   UNL     1       0.709   8.986  20.499  0.00  0.00    +0.000 A 
ATOM      2  C   UNL     1       1.207   7.763  20.936  0.00  0.00    +0.000 A 
ATOM      3  C   UNL     1       2.062   7.014  20.118  0.00  0.00    +0.000 A 
ATOM      4  C   UNL     1       2.459   7.461  18.844  0.00  0.00    +0.000 A 
ATOM      5  C   UNL     1       1.927   8.685  18.405  0.00  0.00    +0.000 A 
ATOM      6  C   UNL     1       1.059   9.420  19.218  0.00  0.00    +0.000 A 
ATOM      7  F   UNL     1       0.570  10.585  18.758  0.00  0.00    +0.000 F 
ENDROOT
BRANCH   1  11
ATOM      8  N   UNL     1      -0.998  10.830  23.112  0.00  0.00    +0.000 N 
ATOM      9  C   UNL     1      -0.006  10.035  22.627  0.00  0.00    +0.000 C 
ATOM     10  O   UNL     1       0.870   9.640  23.384  0.00  0.00    +0.000 OA
ATOM     11  N   UNL     1      -0.134   9.801  21.286  0.00  0.00    +0.000 N 
ATOM     12  H   UNL     1      -0.948  10.920  24.121  0.00  0.00    +0.000 HD
ATOM     13  H   UNL     1      -1.929  10.674  22.755  0.00  0.00    +0.000 HD
ATOM     14  H   UNL     1      -0.750  10.423  20.778  0.00  0.00    +0.000 HD
ENDBRANCH   1  11
BRANCH   4  15
ATOM     15  C   UNL     1       3.401   6.666  18.024  0.00  0.00    +0.000 A 
ATOM     16  C   UNL     1       3.425   5.262  18.073  0.00  0.00    +0.000 A 
ATOM     17  C   UNL     1       4.328   4.519  17.301  0.00  0.00    +0.000 A 
ATOM     18  C   UNL     1       5.245   5.158  16.460  0.00  0.00    +0.000 A 
ATOM     19  C   UNL     1       5.239   6.556  16.405  0.00  0.00    +0.000 A 
ATOM     20  C   UNL     1       4.327   7.293  17.167  0.00  0.00    +0.000 A 
BRANCH  18  21
ATOM     21  C   UNL     1       6.225   4.377  15.622  0.00  0.00    +0.000 C 
ATOM     22  F   UNL     1       5.888   3.065  15.470  0.00  0.00    +0.000 F 
ATOM     23  F   UNL     1       6.346   4.878  14.361  0.00  0.00    +0.000 F 
ATOM     24  F   UNL     1       7.481   4.381  16.148  0.00  0.00    +0.000 F 
ENDBRANCH  18  21
ENDBRANCH   4  15
TORSDOF 3
ENDMDL
MODEL 3
REMARK VINA RESULT:      -7.9      0.666      1.110
REMARK  Name = 
REMARK  3 active torsions:
REMARK  status: ('A' for Active; 'I' for Inactive)
REMARK    1  A    between atoms: N_4  and  C_5
REMARK    2  A    between atoms: C_8  and  C_9
REMARK    3  A    between atoms: C_12  and  C_13
REMARK                            x       y       z     vdW  Elec       q    Type
REMARK                         _______ _______ _______ _____ _____    ______ ____
ROOT
ATOM      1  C   UNL     1       0.848   8.227  20.655  0.00  0.00    +0.000 A 
ATOM      2  C   UNL     1       1.312   6.931  20.860  0.00  0.00    +0.000 A 
ATOM      3  C   UNL     1       2.154   6.324  19.922  0.00  0.00    +0.000 A 
ATOM      4  C   UNL     1       2.574   6.988  18.754  0.00  0.00    +0.000 A 
ATOM      5  C   UNL     1       2.076   8.285  18.546  0.00  0.00    +0.000 A 
ATOM      6  C   UNL     1       1.220   8.880  19.477  0.00  0.00    +0.000 A 
ATOM      7  F   UNL     1       0.764  10.123  19.238  0.00  0.00    +0.000 F 
ENDROOT
BRANCH   1  11
ATOM      8  N   UNL     1      -0.619  10.013  23.447  0.00  0.00    +0.000 N 
ATOM      9  C   UNL     1       0.418   9.470  22.755  0.00  0.00    +0.000 C 
ATOM     10  O   UNL     1       1.550   9.546  23.213  0.00  0.00    +0.000 OA
ATOM     11  N   UNL     1       0.019   8.905  21.575  0.00  0.00    +0.000 N 
ATOM     12  H   UNL     1      -0.329  10.344  24.361  0.00  0.00    +0.000 HD
ATOM     13  H   UNL     1      -1.490   9.503  23.448  0.00  0.00    +0.000 HD
ATOM     14  H   UNL     1      -0.894   9.175  21.235  0.00  0.00    +0.000 HD
ENDBRANCH   1  11
BRANCH   4  15
ATOM     15  C   UNL     1       3.503   6.334  17.805  0.00  0.00    +0.000 A 
ATOM     16  C   UNL     1       4.407   7.072  17.022  0.00  0.00    +0.000 A 
ATOM     17  C   UNL     1       5.275   6.445  16.119  0.00  0.00    +0.000 A 
ATOM     18  C   UNL     1       5.260   5.055  15.961  0.00  0.00    +0.000 A 
ATOM     19  C   UNL     1       4.361   4.305  16.728  0.00  0.00    +0.000 A 
ATOM     20  C   UNL     1       3.506   4.935  17.638  0.00  0.00    +0.000 A 
BRANCH  18  21
ATOM     21  C   UNL     1       6.185   4.360  14.994  0.00  0.00    +0.000 C 
ATOM     22  F   UNL     1       7.420   4.929  14.917  0.00  0.00    +0.000 F 
ATOM     23  F   UNL     1       6.396   3.055  15.323  0.00  0.00    +0.000 F 
ATOM     24  F   UNL     1       5.698   4.351  13.722  0.00  0.00    +0.000 F 
ENDBRANCH  18  21
ENDBRANCH   4  15
TORSDOF 3
ENDMDL
MODEL 4
REMARK VINA RESULT:      -7.9      1.295      1.822
REMARK  Name = 
REMARK  3 active torsions:
REMARK  status: ('A' for Active; 'I' for Inactive)
REMARK    1  A    between atoms: N_4  and  C_5
REMARK    2  A    between atoms: C_8  and  C_9
REMARK    3  A    between atoms: C_12  and  C_13
REMARK                            x       y       z     vdW  Elec       q    Type
REMARK                         _______ _______ _______ _____ _____    ______ ____
ROOT
ATOM      1  C   UNL     1       0.854   9.340  19.865  0.00  0.00    +0.000 A 
ATOM      2  C   UNL     1       1.173   9.605  18.538  0.00  0.00    +0.000 A 
ATOM      3  C   UNL     1       2.042   8.761  17.836  0.00  0.00    +0.000 A 
ATOM      4  C   UNL     1       2.615   7.620  18.427  0.00  0.00    +0.000 A 
ATOM      5  C   UNL     1       2.306   7.379  19.777  0.00  0.00    +0.000 A 
ATOM      6  C   UNL     1       1.452   8.235  20.478  0.00  0.00    +0.000 A 
ATOM      7  F   UNL     1       1.185   7.970  21.769  0.00  0.00    +0.000 F 
ENDROOT
BRANCH   1  11
ATOM      8  N   UNL     1      -0.785  11.800  21.964  0.00  0.00    +0.000 N 
ATOM      9  C   UNL     1       0.279  11.282  21.292  0.00  0.00    +0.000 C 
ATOM     10  O   UNL     1       1.354  11.865  21.332  0.00  0.00    +0.000 OA
ATOM     11  N   UNL     1      -0.037  10.135  20.619  0.00  0.00    +0.000 N 
ATOM     12  H   UNL     1      -0.519  12.594  22.534  0.00  0.00    +0.000 HD
ATOM     13  H   UNL     1      -1.401  11.146  22.424  0.00  0.00    +0.000 HD
ATOM     14  H   UNL     1      -1.022   9.955  20.475  0.00  0.00    +0.000 HD
ENDBRANCH   1  11
BRANCH   4  15
ATOM     15  C   UNL     1       3.494   6.723  17.643  0.00  0.00    +0.000 A 
ATOM     16  C   UNL     1       4.484   7.223  16.780  0.00  0.00    +0.000 A 
ATOM     17  C   UNL     1       5.304   6.367  16.034  0.00  0.00    +0.000 A 
ATOM     18  C   UNL     1       5.153   4.978  16.119  0.00  0.00    +0.000 A 
ATOM     19  C   UNL     1       4.167   4.464  16.968  0.00  0.00    +0.000 A 
ATOM     20  C   UNL     1       3.360   5.323  17.721  0.00  0.00    +0.000 A 
BRANCH  18  21
ATOM     21  C   UNL     1       6.025   4.040  15.323  0.00  0.00    +0.000 C 
ATOM     22  F   UNL     1       5.776   4.067  13.984  0.00  0.00    +0.000 F 
ATOM     23  F   UNL     1       7.351   4.320  15.461  0.00  0.00    +0.000 F 
ATOM     24  F   UNL     1       5.877   2.741  15.705  0.00  0.00    +0.000 F 
ENDBRANCH  18  21
ENDBRANCH   4  15
TORSDOF 3
ENDMDL
MODEL 5
REMARK VINA RESULT:      -7.9      1.275      2.122
REMARK  Name = 
REMARK  3 active torsions:
REMARK  status: ('A' for Active; 'I' for Inactive)
REMARK    1  A    between atoms: N_4  and  C_5
REMARK    2  A    between atoms: C_8  and  C_9
REMARK    3  A    between atoms: C_12  and  C_13
REMARK                            x       y       z     vdW  Elec       q    Type
REMARK                         _______ _______ _______ _____ _____    ______ ____
ROOT
ATOM      1  C   UNL     1       0.775   9.430  19.858  0.00  0.00    +0.000 A 
ATOM      2  C   UNL     1       1.103   9.675  18.529  0.00  0.00    +0.000 A 
ATOM      3  C   UNL     1       1.974   8.819  17.846  0.00  0.00    +0.000 A 
ATOM      4  C   UNL     1       2.539   7.685  18.457  0.00  0.00    +0.000 A 
ATOM      5  C   UNL     1       2.221   7.464  19.807  0.00  0.00    +0.000 A 
ATOM      6  C   UNL     1       1.365   8.332  20.491  0.00  0.00    +0.000 A 
ATOM      7  F   UNL     1       1.088   8.086  21.783  0.00  0.00    +0.000 F 
ENDROOT
BRANCH   1  11
ATOM      8  N   UNL     1      -0.865  11.899  21.946  0.00  0.00    +0.000 N 
ATOM      9  C   UNL     1       0.207  11.361  21.304  0.00  0.00    +0.000 C 
ATOM     10  O   UNL     1       1.297  11.907  21.397  0.00  0.00    +0.000 OA
ATOM     11  N   UNL     1      -0.119  10.238  20.595  0.00  0.00    +0.000 N 
ATOM     12  H   UNL     1      -0.597  12.673  22.543  0.00  0.00    +0.000 HD
ATOM     13  H   UNL     1      -1.519  11.256  22.368  0.00  0.00    +0.000 HD
ATOM     14  H   UNL     1      -1.103  10.094  20.410  0.00  0.00    +0.000 HD
ENDBRANCH   1  11
BRANCH   4  15
ATOM     15  C   UNL     1       3.421   6.774  17.691  0.00  0.00    +0.000 A 
ATOM     16  C   UNL     1       3.319   5.376  17.800  0.00  0.00    +0.000 A 
ATOM     17  C   UNL     1       4.165   4.523  17.080  0.00  0.00    +0.000 A 
ATOM     18  C   UNL     1       5.150   5.042  16.231  0.00  0.00    +0.000 A 
ATOM     19  C   UNL     1       5.269   6.431  16.117  0.00  0.00    +0.000 A 
ATOM     20  C   UNL     1       4.413   7.278  16.828  0.00  0.00    +0.000 A 
BRANCH  18  21
ATOM     21  C   UNL     1       6.070   4.140  15.448  0.00  0.00    +0.000 C 
ATOM     22  F   UNL     1       7.390   4.331  15.729  0.00  0.00    +0.000 F 
ATOM     23  F   UNL     1       5.827   2.821  15.680  0.00  0.00    +0.000 F 
ATOM     24  F   UNL     1       5.947   4.311  14.103  0.00  0.00    +0.000 F 
ENDBRANCH  18  21
ENDBRANCH   4  15
TORSDOF 3
ENDMDL
MODEL 6
REMARK VINA RESULT:      -7.8      0.862      1.201
REMARK  Name = 
REMARK  3 active torsions:
REMARK  status: ('A' for Active; 'I' for Inactive)
REMARK    1  A    between atoms: N_4  and  C_5
REMARK    2  A    between atoms: C_8  and  C_9
REMARK    3  A    between atoms: C_12  and  C_13
REMARK                            x       y       z     vdW  Elec       q    Type
REMARK                         _______ _______ _______ _____ _____    ______ ____
ROOT
ATOM      1  C   UNL     1       0.758   9.231  20.148  0.00  0.00    +0.000 A 
ATOM      2  C   UNL     1       1.372   8.112  20.700  0.00  0.00    +0.000 A 
ATOM      3  C   UNL     1       2.213   7.309  19.921  0.00  0.00    +0.000 A 
ATOM      4  C   UNL     1       2.481   7.599  18.570  0.00  0.00    +0.000 A 
ATOM      5  C   UNL     1       1.833   8.716  18.018  0.00  0.00    +0.000 A 
ATOM      6  C   UNL     1       0.979   9.504  18.796  0.00  0.00    +0.000 A 
ATOM      7  F   UNL     1       0.376  10.563  18.227  0.00  0.00    +0.000 F 
ENDROOT
BRANCH   1  11
ATOM      8  N   UNL     1      -0.732  11.883  22.120  0.00  0.00    +0.000 N 
ATOM      9  C   UNL     1       0.281  11.301  21.423  0.00  0.00    +0.000 C 
ATOM     10  O   UNL     1       1.354  11.882  21.329  0.00  0.00    +0.000 OA
ATOM     11  N   UNL     1      -0.078  10.096  20.887  0.00  0.00    +0.000 N 
ATOM     12  H   UNL     1      -0.429  12.727  22.591  0.00  0.00    +0.000 HD
ATOM     13  H   UNL     1      -1.310  11.278  22.685  0.00  0.00    +0.000 HD
ATOM     14  H   UNL     1      -1.071   9.906  20.834  0.00  0.00    +0.000 HD
ENDBRANCH   1  11
BRANCH   4  15
ATOM     15  C   UNL     1       3.412   6.755  17.787  0.00  0.00    +0.000 A 
ATOM     16  C   UNL     1       4.441   7.311  17.008  0.00  0.00    +0.000 A 
ATOM     17  C   UNL     1       5.311   6.505  16.261  0.00  0.00    +0.000 A 
ATOM     18  C   UNL     1       5.173   5.113  16.262  0.00  0.00    +0.000 A 
ATOM     19  C   UNL     1       4.149   4.543  17.027  0.00  0.00    +0.000 A 
ATOM     20  C   UNL     1       3.293   5.351  17.781  0.00  0.00    +0.000 A 
BRANCH  18  21
ATOM     21  C   UNL     1       6.098   4.228  15.466  0.00  0.00    +0.000 C 
ATOM     22  F   UNL     1       7.416   4.408  15.763  0.00  0.00    +0.000 F 
ATOM     23  F   UNL     1       5.849   2.904  15.663  0.00  0.00    +0.000 F 
ATOM     24  F   UNL     1       5.988   4.432  14.124  0.00  0.00    +0.000 F 
ENDBRANCH  18  21
ENDBRANCH   4  15
TORSDOF 3
ENDMDL
MODEL 7
REMARK VINA RESULT:      -7.6      4.881      8.151
REMARK  Name = 
REMARK  3 active torsions:
REMARK  status: ('A' for Active; 'I' for Inactive)
REMARK    1  A    between atoms: N_4  and  C_5
REMARK    2  A    between atoms: C_8  and  C_9
REMARK    3  A    between atoms: C_12  and  C_13
REMARK                            x       y       z     vdW  Elec       q    Type
REMARK                         _______ _______ _______ _____ _____    ______ ____
ROOT
ATOM      1  C   UNL     1       3.234   4.141  19.435  0.00  0.00    +0.000 A 
ATOM      2  C   UNL     1       3.540   5.244  18.645  0.00  0.00    +0.000 A 
ATOM      3  C   UNL     1       2.972   6.493  18.924  0.00  0.00    +0.000 A 
ATOM      4  C   UNL     1       2.091   6.689  20.003  0.00  0.00    +0.000 A 
ATOM      5  C   UNL     1       1.769   5.561  20.776  0.00  0.00    +0.000 A 
ATOM      6  C   UNL     1       2.325   4.311  20.482  0.00  0.00    +0.000 A 
ATOM      7  F   UNL     1       1.989   3.257  21.245  0.00  0.00    +0.000 F 
ENDROOT
BRANCH   1  11
ATOM      8  N   UNL     1       4.067   0.769  18.395  0.00  0.00    +0.000 N 
ATOM      9  C   UNL     1       3.348   1.922  18.337  0.00  0.00    +0.000 C 
ATOM     10  O   UNL     1       2.432   2.017  17.532  0.00  0.00    +0.000 OA
ATOM     11  N   UNL     1       3.794   2.861  19.224  0.00  0.00    +0.000 N 
ATOM     12  H   UNL     1       3.671   0.048  17.803  0.00  0.00    +0.000 HD
ATOM     13  H   UNL     1       4.348   0.447  19.310  0.00  0.00    +0.000 HD
ATOM     14  H   UNL     1       4.719   2.714  19.608  0.00  0.00    +0.000 HD
ENDBRANCH   1  11
BRANCH   4  15
ATOM     15  C   UNL     1       1.544   8.033  20.298  0.00  0.00    +0.000 A 
ATOM     16  C   UNL     1       1.391   9.008  19.297  0.00  0.00    +0.000 A 
ATOM     17  C   UNL     1       0.883  10.281  19.587  0.00  0.00    +0.000 A 
ATOM     18  C   UNL     1       0.519  10.625  20.894  0.00  0.00    +0.000 A 
ATOM     19  C   UNL     1       0.671   9.668  21.903  0.00  0.00    +0.000 A 
ATOM     20  C   UNL     1       1.166   8.394  21.606  0.00  0.00    +0.000 A 
BRANCH  18  21
ATOM     21  C   UNL     1      -0.029  11.989  21.227  0.00  0.00    +0.000 C 
ATOM     22  F   UNL     1       0.842  13.005  20.971  0.00  0.00    +0.000 F 
ATOM     23  F   UNL     1      -1.158  12.282  20.523  0.00  0.00    +0.000 F 
ATOM     24  F   UNL     1      -0.367  12.109  22.541  0.00  0.00    +0.000 F 
ENDBRANCH  18  21
ENDBRANCH   4  15
TORSDOF 3
ENDMDL
MODEL 8
REMARK VINA RESULT:      -7.5      4.039      7.745
REMARK  Name = 
REMARK  3 active torsions:
REMARK  status: ('A' for Active; 'I' for Inactive)
REMARK    1  A    between atoms: N_4  and  C_5
REMARK    2  A    between atoms: C_8  and  C_9
REMARK    3  A    between atoms: C_12  and  C_13
REMARK                            x       y       z     vdW  Elec       q    Type
REMARK                         _______ _______ _______ _____ _____    ______ ____
ROOT
ATOM      1  C   UNL     1       3.524   4.213  19.028  0.00  0.00    +0.000 A 
ATOM      2  C   UNL     1       2.768   4.663  20.105  0.00  0.00    +0.000 A 
ATOM      3  C   UNL     1       2.278   5.974  20.127  0.00  0.00    +0.000 A 
ATOM      4  C   UNL     1       2.514   6.878  19.074  0.00  0.00    +0.000 A 
ATOM      5  C   UNL     1       3.302   6.419  18.005  0.00  0.00    +0.000 A 
ATOM      6  C   UNL     1       3.805   5.114  17.997  0.00  0.00    +0.000 A 
ATOM      7  F   UNL     1       4.557   4.715  16.956  0.00  0.00    +0.000 F 
ENDROOT
BRANCH   1  11
ATOM      8  N   UNL     1       4.134   0.697  18.387  0.00  0.00    +0.000 N 
ATOM      9  C   UNL     1       3.438   1.858  18.260  0.00  0.00    +0.000 C 
ATOM     10  O   UNL     1       2.420   1.875  17.581  0.00  0.00    +0.000 OA
ATOM     11  N   UNL     1       4.023   2.895  18.932  0.00  0.00    +0.000 N 
ATOM     12  H   UNL     1       3.645  -0.084  17.967  0.00  0.00    +0.000 HD
ATOM     13  H   UNL     1       4.534   0.497  19.293  0.00  0.00    +0.000 HD
ATOM     14  H   UNL     1       4.989   2.766  19.204  0.00  0.00    +0.000 HD
ENDBRANCH   1  11
BRANCH   4  15
ATOM     15  C   UNL     1       1.942   8.243  19.107  0.00  0.00    +0.000 A 
ATOM     16  C   UNL     1       1.252   8.731  20.230  0.00  0.00    +0.000 A 
ATOM     17  C   UNL     1       0.705  10.021  20.249  0.00  0.00    +0.000 A 
ATOM     18  C   UNL     1       0.823  10.864  19.138  0.00  0.00    +0.000 A 
ATOM     19  C   UNL     1       1.501  10.390  18.009  0.00  0.00    +0.000 A 
ATOM     20  C   UNL     1       2.057   9.107  18.001  0.00  0.00    +0.000 A 
BRANCH  18  21
ATOM     21  C   UNL     1       0.241  12.255  19.137  0.00  0.00    +0.000 C 
ATOM     22  F   UNL     1      -1.103  12.284  18.920  0.00  0.00    +0.000 F 
ATOM     23  F   UNL     1       0.442  12.902  20.319  0.00  0.00    +0.000 F 
ATOM     24  F   UNL     1       0.791  13.050  18.178  0.00  0.00    +0.000 F 
ENDBRANCH  18  21
ENDBRANCH   4  15
TORSDOF 3
ENDMDL
MODEL 9
REMARK VINA RESULT:      -7.5      4.831      8.181
REMARK  Name = 
REMARK  3 active torsions:
REMARK  status: ('A' for Active; 'I' for Inactive)
REMARK    1  A    between atoms: N_4  and  C_5
REMARK    2  A    between atoms: C_8  and  C_9
REMARK    3  A    between atoms: C_12  and  C_13
REMARK                            x       y       z     vdW  Elec       q    Type
REMARK                         _______ _______ _______ _____ _____    ______ ____
ROOT
ATOM      1  C   UNL     1       3.229   4.219  19.276  0.00  0.00    +0.000 A 
ATOM      2  C   UNL     1       3.508   5.334  18.492  0.00  0.00    +0.000 A 
ATOM      3  C   UNL     1       2.944   6.576  18.803  0.00  0.00    +0.000 A 
ATOM      4  C   UNL     1       2.094   6.755  19.911  0.00  0.00    +0.000 A 
ATOM      5  C   UNL     1       1.800   5.616  20.678  0.00  0.00    +0.000 A 
ATOM      6  C   UNL     1       2.351   4.373  20.352  0.00  0.00    +0.000 A 
ATOM      7  F   UNL     1       2.041   3.307  21.111  0.00  0.00    +0.000 F 
ENDROOT
BRANCH   1  11
ATOM      8  N   UNL     1       4.018   0.846  18.208  0.00  0.00    +0.000 N 
ATOM      9  C   UNL     1       3.279   1.988  18.199  0.00  0.00    +0.000 C 
ATOM     10  O   UNL     1       2.295   2.060  17.476  0.00  0.00    +0.000 OA
ATOM     11  N   UNL     1       3.788   2.945  19.033  0.00  0.00    +0.000 N 
ATOM     12  H   UNL     1       3.582   0.112  17.662  0.00  0.00    +0.000 HD
ATOM     13  H   UNL     1       4.383   0.540  19.098  0.00  0.00    +0.000 HD
ATOM     14  H   UNL     1       4.745   2.815  19.336  0.00  0.00    +0.000 HD
ENDBRANCH   1  11
BRANCH   4  15
ATOM     15  C   UNL     1       1.551   8.094  20.238  0.00  0.00    +0.000 A 
ATOM     16  C   UNL     1       1.148   8.432  21.542  0.00  0.00    +0.000 A 
ATOM     17  C   UNL     1       0.626   9.698  21.840  0.00  0.00    +0.000 A 
ATOM     18  C   UNL     1       0.481  10.665  20.839  0.00  0.00    +0.000 A 
ATOM     19  C   UNL     1       0.871  10.342  19.535  0.00  0.00    +0.000 A 
ATOM     20  C   UNL     1       1.405   9.082  19.245  0.00  0.00    +0.000 A 
BRANCH  18  21
ATOM     21  C   UNL     1      -0.080  12.032  21.139  0.00  0.00    +0.000 C 
ATOM     22  F   UNL     1       0.735  13.053  20.753  0.00  0.00    +0.000 F 
ATOM     23  F   UNL     1      -1.272  12.253  20.519  0.00  0.00    +0.000 F 
ATOM     24  F   UNL     1      -0.310  12.221  22.468  0.00  0.00    +0.000 F 
ENDBRANCH  18  21
ENDBRANCH   4  15
TORSDOF 3
ENDMDL
