MODEL 1
REMARK VINA RESULT:      -7.5      0.000      0.000
REMARK  Name = 
REMARK  8 active torsions:
REMARK  status: ('A' for Active; 'I' for Inactive)
REMARK    1  A    between atoms: C_1  and  C_2
REMARK    2  A    between atoms: C_4  and  C_5
REMARK    3  A    between atoms: C_5  and  N_6
REMARK    4  A    between atoms: C_7  and  C_9
REMARK    5  A    between atoms: C_9  and  N_10
REMARK    6  A    between atoms: N_10  and  C_11
REMARK    7  A    between atoms: N_10  and  C_12
REMARK    8  A    between atoms: C_12  and  C_13
REMARK                            x       y       z     vdW  Elec       q    Type
REMARK                         _______ _______ _______ _____ _____    ______ ____
ROOT
ATOM      1  N   UNL     1       6.176   3.922  17.892  0.00  0.00    +0.000 N 
ATOM      2  C   UNL     1       5.626   4.297  19.092  0.00  0.00    +0.000 C 
ATOM      3  O   UNL     1       5.963   5.312  19.701  0.00  0.00    +0.000 OA
ATOM      4  H   UNL     1       5.814   3.110  17.406  0.00  0.00    +0.000 HD
ENDROOT
BRANCH   1   5
ATOM      5  C   UNL     1       7.175   4.727  17.230  0.00  0.00    +0.000 C 
BRANCH   5   9
ATOM      6  C   UNL     1       5.844   3.433  12.467  0.00  0.00    +0.000 C 
ATOM      7  C   UNL     1       6.383   4.030  13.706  0.00  0.00    +0.000 A 
ATOM      8  C   UNL     1       6.181   3.734  15.035  0.00  0.00    +0.000 A 
ATOM      9  C   UNL     1       6.994   4.649  15.751  0.00  0.00    +0.000 A 
ATOM     10  N   UNL     1       7.640   5.484  14.921  0.00  0.00    +0.000 NA
ATOM     11  N   UNL     1       7.267   5.077  13.694  0.00  0.00    +0.000 N 
ATOM     12  H   UNL     1       7.657   5.556  12.891  0.00  0.00    +0.000 HD
ENDBRANCH   5   9
ENDBRANCH   1   5
BRANCH   2  13
ATOM     13  C   UNL     1       4.540   3.358  19.622  0.00  0.00    +0.000 C 
BRANCH  13  14
ATOM     14  N   UNL     1       3.548   3.020  18.569  0.00  0.00    +0.000 NA
ATOM     15  C   UNL     1       3.502   1.564  18.373  0.00  0.00    +0.000 C 
BRANCH  14  16
ATOM     16  C   UNL     1       2.202   3.507  18.941  0.00  0.00    +0.000 C 
BRANCH  16  17
ATOM     17  C   UNL     1       2.138   5.005  19.113  0.00  0.00    +0.000 A 
ATOM     18  C   UNL     1       2.419   5.878  18.057  0.00  0.00    +0.000 A 
ATOM     19  C   UNL     1       2.425   7.253  18.279  0.00  0.00    +0.000 A 
ATOM     20  C   UNL     1       2.133   7.712  19.553  0.00  0.00    +0.000 A 
ATOM     21  N   UNL     1       1.819   6.904  20.588  0.00  0.00    +0.000 NA
ATOM     22  C   UNL     1       1.824   5.575  20.344  0.00  0.00    +0.000 A 
ENDBRANCH  16  17
ENDBRANCH  14  16
ENDBRANCH  13  14
ENDBRANCH   2  13
TORSDOF 6
ENDMDL
MODEL 2
REMARK VINA RESULT:      -6.9      1.623      2.302
REMARK  Name = 
REMARK  8 active torsions:
REMARK  status: ('A' for Active; 'I' for Inactive)
REMARK    1  A    between atoms: C_1  and  C_2
REMARK    2  A    between atoms: C_4  and  C_5
REMARK    3  A    between atoms: C_5  and  N_6
REMARK    4  A    between atoms: C_7  and  C_9
REMARK    5  A    between atoms: C_9  and  N_10
REMARK    6  A    between atoms: N_10  and  C_11
REMARK    7  A    between atoms: N_10  and  C_12
REMARK    8  A    between atoms: C_12  and  C_13
REMARK                            x       y       z     vdW  Elec       q    Type
REMARK                         _______ _______ _______ _____ _____    ______ ____
ROOT
ATOM      1  N   UNL     1       6.464   4.425  18.326  0.00  0.00    +0.000 N 
ATOM      2  C   UNL     1       5.624   5.491  18.523  0.00  0.00    +0.000 C 
ATOM      3  O   UNL     1       5.805   6.596  18.013  0.00  0.00    +0.000 OA
ATOM      4  H   UNL     1       6.230   3.521  18.720  0.00  0.00    +0.000 HD
ENDROOT
BRANCH   1   5
ATOM      5  C   UNL     1       7.615   4.515  17.461  0.00  0.00    +0.000 C 
BRANCH   5   9
ATOM      6  C   UNL     1       5.529   3.587  12.887  0.00  0.00    +0.000 C 
ATOM      7  C   UNL     1       6.248   4.101  14.071  0.00  0.00    +0.000 A 
ATOM      8  C   UNL     1       6.302   3.667  15.376  0.00  0.00    +0.000 A 
ATOM      9  C   UNL     1       7.179   4.565  16.035  0.00  0.00    +0.000 A 
ATOM     10  N   UNL     1       7.622   5.519  15.199  0.00  0.00    +0.000 NA
ATOM     11  N   UNL     1       7.058   5.204  14.019  0.00  0.00    +0.000 N 
ATOM     12  H   UNL     1       7.273   5.783  13.215  0.00  0.00    +0.000 HD
ENDBRANCH   5   9
ENDBRANCH   1   5
BRANCH   2  13
ATOM     13  C   UNL     1       4.420   5.203  19.424  0.00  0.00    +0.000 C 
BRANCH  13  14
ATOM     14  N   UNL     1       3.147   5.633  18.789  0.00  0.00    +0.000 NA
ATOM     15  C   UNL     1       2.419   4.459  18.285  0.00  0.00    +0.000 C 
BRANCH  14  16
ATOM     16  C   UNL     1       2.298   6.358  19.758  0.00  0.00    +0.000 C 
BRANCH  16  17
ATOM     17  C   UNL     1       1.991   7.774  19.337  0.00  0.00    +0.000 A 
ATOM     18  C   UNL     1       1.306   8.658  20.178  0.00  0.00    +0.000 A 
ATOM     19  C   UNL     1       0.975   9.931  19.721  0.00  0.00    +0.000 A 
ATOM     20  C   UNL     1       1.352  10.285  18.437  0.00  0.00    +0.000 A 
ATOM     21  N   UNL     1       2.046   9.475  17.609  0.00  0.00    +0.000 NA
ATOM     22  C   UNL     1       2.352   8.245  18.078  0.00  0.00    +0.000 A 
ENDBRANCH  16  17
ENDBRANCH  14  16
ENDBRANCH  13  14
ENDBRANCH   2  13
TORSDOF 6
ENDMDL
MODEL 3
REMARK VINA RESULT:      -6.6      1.214      3.228
REMARK  Name = 
REMARK  8 active torsions:
REMARK  status: ('A' for Active; 'I' for Inactive)
REMARK    1  A    between atoms: C_1  and  C_2
REMARK    2  A    between atoms: C_4  and  C_5
REMARK    3  A    between atoms: C_5  and  N_6
REMARK    4  A    between atoms: C_7  and  C_9
REMARK    5  A    between atoms: C_9  and  N_10
REMARK    6  A    between atoms: N_10  and  C_11
REMARK    7  A    between atoms: N_10  and  C_12
REMARK    8  A    between atoms: C_12  and  C_13
REMARK                            x       y       z     vdW  Elec       q    Type
REMARK                         _______ _______ _______ _____ _____    ______ ____
ROOT
ATOM      1  N   UNL     1       5.041   5.140  17.473  0.00  0.00    +0.000 N 
ATOM      2  C   UNL     1       4.604   6.432  17.616  0.00  0.00    +0.000 C 
ATOM      3  O   UNL     1       5.348   7.409  17.533  0.00  0.00    +0.000 OA
ATOM      4  H   UNL     1       4.372   4.379  17.487  0.00  0.00    +0.000 HD
ENDROOT
BRANCH   1   5
ATOM      5  C   UNL     1       6.419   4.833  17.173  0.00  0.00    +0.000 C 
BRANCH   5   9
ATOM      6  C   UNL     1       6.189   3.392  12.273  0.00  0.00    +0.000 C 
ATOM      7  C   UNL     1       6.458   4.012  13.587  0.00  0.00    +0.000 A 
ATOM      8  C   UNL     1       5.912   3.803  14.833  0.00  0.00    +0.000 A 
ATOM      9  C   UNL     1       6.600   4.691  15.698  0.00  0.00    +0.000 A 
ATOM     10  N   UNL     1       7.498   5.431  15.027  0.00  0.00    +0.000 NA
ATOM     11  N   UNL     1       7.402   4.989  13.761  0.00  0.00    +0.000 N 
ATOM     12  H   UNL     1       8.017   5.394  13.064  0.00  0.00    +0.000 HD
ENDBRANCH   5   9
ENDBRANCH   1   5
BRANCH   2  13
ATOM     13  C   UNL     1       3.102   6.578  17.874  0.00  0.00    +0.000 C 
BRANCH  13  14
ATOM     14  N   UNL     1       2.773   6.383  19.310  0.00  0.00    +0.000 NA
ATOM     15  C   UNL     1       2.167   7.607  19.855  0.00  0.00    +0.000 C 
BRANCH  14  16
ATOM     16  C   UNL     1       1.837   5.252  19.484  0.00  0.00    +0.000 C 
BRANCH  16  17
ATOM     17  C   UNL     1       2.438   3.919  19.113  0.00  0.00    +0.000 A 
ATOM     18  C   UNL     1       2.028   3.221  17.973  0.00  0.00    +0.000 A 
ATOM     19  C   UNL     1       2.553   1.958  17.709  0.00  0.00    +0.000 A 
ATOM     20  C   UNL     1       3.484   1.439  18.591  0.00  0.00    +0.000 A 
ATOM     21  N   UNL     1       3.935   2.096  19.681  0.00  0.00    +0.000 NA
ATOM     22  C   UNL     1       3.407   3.319  19.913  0.00  0.00    +0.000 A 
ENDBRANCH  16  17
ENDBRANCH  14  16
ENDBRANCH  13  14
ENDBRANCH   2  13
TORSDOF 6
ENDMDL
MODEL 4
REMARK VINA RESULT:      -6.6      2.023      3.650
REMARK  Name = 
REMARK  8 active torsions:
REMARK  status: ('A' for Active; 'I' for Inactive)
REMARK    1  A    between atoms: C_1  and  C_2
REMARK    2  A    between atoms: C_4  and  C_5
REMARK    3  A    between atoms: C_5  and  N_6
REMARK    4  A    between atoms: C_7  and  C_9
REMARK    5  A    between atoms: C_9  and  N_10
REMARK    6  A    between atoms: N_10  and  C_11
REMARK    7  A    between atoms: N_10  and  C_12
REMARK    8  A    between atoms: C_12  and  C_13
REMARK                            x       y       z     vdW  Elec       q    Type
REMARK                         _______ _______ _______ _____ _____    ______ ____
ROOT
ATOM      1  N   UNL     1       6.359   4.948  14.706  0.00  0.00    +0.000 N 
ATOM      2  C   UNL     1       6.783   5.079  16.004  0.00  0.00    +0.000 C 
ATOM      3  O   UNL     1       7.810   4.557  16.435  0.00  0.00    +0.000 OA
ATOM      4  H   UNL     1       5.539   5.453  14.392  0.00  0.00    +0.000 HD
ENDROOT
BRANCH   1   5
ATOM      5  C   UNL     1       7.123   4.210  13.729  0.00  0.00    +0.000 C 
BRANCH   5   9
ATOM      6  C   UNL     1       3.182   3.016  10.700  0.00  0.00    +0.000 C 
ATOM      7  C   UNL     1       4.456   3.123  11.440  0.00  0.00    +0.000 A 
ATOM      8  C   UNL     1       4.912   4.040  12.360  0.00  0.00    +0.000 A 
ATOM      9  C   UNL     1       6.207   3.593  12.726  0.00  0.00    +0.000 A 
ATOM     10  N   UNL     1       6.550   2.482  12.053  0.00  0.00    +0.000 NA
ATOM     11  N   UNL     1       5.469   2.212  11.299  0.00  0.00    +0.000 N 
ATOM     12  H   UNL     1       5.488   1.386  10.712  0.00  0.00    +0.000 HD
ENDBRANCH   5   9
ENDBRANCH   1   5
BRANCH   2  13
ATOM     13  C   UNL     1       5.882   5.944  16.890  0.00  0.00    +0.000 C 
BRANCH  13  14
ATOM     14  N   UNL     1       5.081   5.117  17.829  0.00  0.00    +0.000 NA
ATOM     15  C   UNL     1       5.703   5.129  19.161  0.00  0.00    +0.000 C 
BRANCH  14  16
ATOM     16  C   UNL     1       3.698   5.628  17.929  0.00  0.00    +0.000 C 
BRANCH  16  17
ATOM     17  C   UNL     1       2.694   4.561  18.293  0.00  0.00    +0.000 A 
ATOM     18  C   UNL     1       1.877   4.678  19.422  0.00  0.00    +0.000 A 
ATOM     19  C   UNL     1       1.019   3.636  19.766  0.00  0.00    +0.000 A 
ATOM     20  C   UNL     1       0.997   2.512  18.958  0.00  0.00    +0.000 A 
ATOM     21  N   UNL     1       1.742   2.377  17.839  0.00  0.00    +0.000 NA
ATOM     22  C   UNL     1       2.566   3.403  17.532  0.00  0.00    +0.000 A 
ENDBRANCH  16  17
ENDBRANCH  14  16
ENDBRANCH  13  14
ENDBRANCH   2  13
TORSDOF 6
ENDMDL
MODEL 5
REMARK VINA RESULT:      -6.6      1.568      2.520
REMARK  Name = 
REMARK  8 active torsions:
REMARK  status: ('A' for Active; 'I' for Inactive)
REMARK    1  A    between atoms: C_1  and  C_2
REMARK    2  A    between atoms: C_4  and  C_5
REMARK    3  A    between atoms: C_5  and  N_6
REMARK    4  A    between atoms: C_7  and  C_9
REMARK    5  A    between atoms: C_9  and  N_10
REMARK    6  A    between atoms: N_10  and  C_11
REMARK    7  A    between atoms: N_10  and  C_12
REMARK    8  A    between atoms: C_12  and  C_13
REMARK                            x       y       z     vdW  Elec       q    Type
REMARK                         _______ _______ _______ _____ _____    ______ ____
ROOT
ATOM      1  N   UNL     1       6.463   5.392  17.937  0.00  0.00    +0.000 N 
ATOM      2  C   UNL     1       5.595   4.799  18.819  0.00  0.00    +0.000 C 
ATOM      3  O   UNL     1       5.572   3.587  19.030  0.00  0.00    +0.000 OA
ATOM      4  H   UNL     1       6.481   6.402  17.852  0.00  0.00    +0.000 HD
ENDROOT
BRANCH   1   5
ATOM      5  C   UNL     1       7.451   4.628  17.214  0.00  0.00    +0.000 C 
BRANCH   5   9
ATOM      6  C   UNL     1       5.573   3.514  12.593  0.00  0.00    +0.000 C 
ATOM      7  C   UNL     1       6.263   4.058  13.780  0.00  0.00    +0.000 A 
ATOM      8  C   UNL     1       6.194   3.732  15.116  0.00  0.00    +0.000 A 
ATOM      9  C   UNL     1       7.111   4.598  15.762  0.00  0.00    +0.000 A 
ATOM     10  N   UNL     1       7.695   5.434  14.887  0.00  0.00    +0.000 NA
ATOM     11  N   UNL     1       7.177   5.074  13.699  0.00  0.00    +0.000 N 
ATOM     12  H   UNL     1       7.496   5.562  12.870  0.00  0.00    +0.000 HD
ENDBRANCH   5   9
ENDBRANCH   1   5
BRANCH   2  13
ATOM     13  C   UNL     1       4.654   5.765  19.542  0.00  0.00    +0.000 C 
BRANCH  13  14
ATOM     14  N   UNL     1       3.538   6.202  18.664  0.00  0.00    +0.000 NA
ATOM     15  C   UNL     1       3.455   5.323  17.488  0.00  0.00    +0.000 C 
BRANCH  14  16
ATOM     16  C   UNL     1       2.253   6.167  19.394  0.00  0.00    +0.000 C 
BRANCH  16  17
ATOM     17  C   UNL     1       1.969   4.832  20.038  0.00  0.00    +0.000 A 
ATOM     18  C   UNL     1       1.229   3.843  19.381  0.00  0.00    +0.000 A 
ATOM     19  C   UNL     1       0.924   2.656  20.041  0.00  0.00    +0.000 A 
ATOM     20  C   UNL     1       1.383   2.489  21.336  0.00  0.00    +0.000 A 
ATOM     21  N   UNL     1       2.133   3.402  21.990  0.00  0.00    +0.000 NA
ATOM     22  C   UNL     1       2.411   4.546  21.326  0.00  0.00    +0.000 A 
ENDBRANCH  16  17
ENDBRANCH  14  16
ENDBRANCH  13  14
ENDBRANCH   2  13
TORSDOF 6
ENDMDL
MODEL 6
REMARK VINA RESULT:      -6.6      1.575      2.310
REMARK  Name = 
REMARK  8 active torsions:
REMARK  status: ('A' for Active; 'I' for Inactive)
REMARK    1  A    between atoms: C_1  and  C_2
REMARK    2  A    between atoms: C_4  and  C_5
REMARK    3  A    between atoms: C_5  and  N_6
REMARK    4  A    between atoms: C_7  and  C_9
REMARK    5  A    between atoms: C_9  and  N_10
REMARK    6  A    between atoms: N_10  and  C_11
REMARK    7  A    between atoms: N_10  and  C_12
REMARK    8  A    between atoms: C_12  and  C_13
REMARK                            x       y       z     vdW  Elec       q    Type
REMARK                         _______ _______ _______ _____ _____    ______ ____
ROOT
ATOM      1  N   UNL     1       4.420   5.036  17.570  0.00  0.00    +0.000 N 
ATOM      2  C   UNL     1       3.973   4.112  18.480  0.00  0.00    +0.000 C 
ATOM      3  O   UNL     1       4.722   3.481  19.225  0.00  0.00    +0.000 OA
ATOM      4  H   UNL     1       3.752   5.572  17.028  0.00  0.00    +0.000 HD
ENDROOT
BRANCH   1   5
ATOM      5  C   UNL     1       5.820   5.366  17.449  0.00  0.00    +0.000 C 
BRANCH   5   9
ATOM      6  C   UNL     1       6.436   3.686  12.660  0.00  0.00    +0.000 C 
ATOM      7  C   UNL     1       6.499   4.347  13.980  0.00  0.00    +0.000 A 
ATOM      8  C   UNL     1       5.688   4.267  15.090  0.00  0.00    +0.000 A 
ATOM      9  C   UNL     1       6.282   5.123  16.051  0.00  0.00    +0.000 A 
ATOM     10  N   UNL     1       7.379   5.724  15.561  0.00  0.00    +0.000 NA
ATOM     11  N   UNL     1       7.495   5.225  14.317  0.00  0.00    +0.000 N 
ATOM     12  H   UNL     1       8.282   5.522  13.753  0.00  0.00    +0.000 HD
ENDBRANCH   5   9
ENDBRANCH   1   5
BRANCH   2  13
ATOM     13  C   UNL     1       2.453   3.928  18.515  0.00  0.00    +0.000 C 
BRANCH  13  14
ATOM     14  N   UNL     1       1.819   4.810  19.529  0.00  0.00    +0.000 NA
ATOM     15  C   UNL     1       1.448   4.024  20.714  0.00  0.00    +0.000 C 
BRANCH  14  16
ATOM     16  C   UNL     1       2.741   5.895  19.929  0.00  0.00    +0.000 C 
BRANCH  16  17
ATOM     17  C   UNL     1       2.212   7.272  19.612  0.00  0.00    +0.000 A 
ATOM     18  C   UNL     1       1.514   8.026  20.561  0.00  0.00    +0.000 A 
ATOM     19  C   UNL     1       0.976   9.260  20.205  0.00  0.00    +0.000 A 
ATOM     20  C   UNL     1       1.166   9.707  18.909  0.00  0.00    +0.000 A 
ATOM     21  N   UNL     1       1.866   9.028  17.975  0.00  0.00    +0.000 NA
ATOM     22  C   UNL     1       2.375   7.833  18.349  0.00  0.00    +0.000 A 
ENDBRANCH  16  17
ENDBRANCH  14  16
ENDBRANCH  13  14
ENDBRANCH   2  13
TORSDOF 6
ENDMDL
MODEL 7
REMARK VINA RESULT:      -6.6      2.007      3.140
REMARK  Name = 
REMARK  8 active torsions:
REMARK  status: ('A' for Active; 'I' for Inactive)
REMARK    1  A    between atoms: C_1  and  C_2
REMARK    2  A    between atoms: C_4  and  C_5
REMARK    3  A    between atoms: C_5  and  N_6
REMARK    4  A    between atoms: C_7  and  C_9
REMARK    5  A    between atoms: C_9  and  N_10
REMARK    6  A    between atoms: N_10  and  C_11
REMARK    7  A    between atoms: N_10  and  C_12
REMARK    8  A    between atoms: C_12  and  C_13
REMARK                            x       y       z     vdW  Elec       q    Type
REMARK                         _______ _______ _______ _____ _____    ______ ____
ROOT
ATOM      1  N   UNL     1       6.131   5.294  15.917  0.00  0.00    +0.000 N 
ATOM      2  C   UNL     1       6.170   6.390  16.741  0.00  0.00    +0.000 C 
ATOM      3  O   UNL     1       7.146   7.134  16.827  0.00  0.00    +0.000 OA
ATOM      4  H   UNL     1       5.276   4.754  15.839  0.00  0.00    +0.000 HD
ENDROOT
BRANCH   1   5
ATOM      5  C   UNL     1       7.235   4.955  15.051  0.00  0.00    +0.000 C 
BRANCH   5   9
ATOM      6  C   UNL     1       4.464   2.853  11.304  0.00  0.00    +0.000 C 
ATOM      7  C   UNL     1       5.469   3.509  12.166  0.00  0.00    +0.000 A 
ATOM      8  C   UNL     1       5.451   3.864  13.496  0.00  0.00    +0.000 A 
ATOM      9  C   UNL     1       6.721   4.441  13.748  0.00  0.00    +0.000 A 
ATOM     10  N   UNL     1       7.475   4.471  12.636  0.00  0.00    +0.000 NA
ATOM     11  N   UNL     1       6.701   3.887  11.703  0.00  0.00    +0.000 N 
ATOM     12  H   UNL     1       7.079   3.775  10.770  0.00  0.00    +0.000 HD
ENDBRANCH   5   9
ENDBRANCH   1   5
BRANCH   2  13
ATOM     13  C   UNL     1       4.892   6.635  17.546  0.00  0.00    +0.000 C 
BRANCH  13  14
ATOM     14  N   UNL     1       4.605   5.508  18.471  0.00  0.00    +0.000 NA
ATOM     15  C   UNL     1       5.780   5.239  19.312  0.00  0.00    +0.000 C 
BRANCH  14  16
ATOM     16  C   UNL     1       3.446   5.821  19.335  0.00  0.00    +0.000 C 
BRANCH  16  17
ATOM     17  C   UNL     1       2.387   4.746  19.323  0.00  0.00    +0.000 A 
ATOM     18  C   UNL     1       1.736   4.345  20.494  0.00  0.00    +0.000 A 
ATOM     19  C   UNL     1       0.821   3.296  20.452  0.00  0.00    +0.000 A 
ATOM     20  C   UNL     1       0.576   2.689  19.233  0.00  0.00    +0.000 A 
ATOM     21  N   UNL     1       1.155   3.071  18.074  0.00  0.00    +0.000 NA
ATOM     22  C   UNL     1       2.040   4.091  18.145  0.00  0.00    +0.000 A 
ENDBRANCH  16  17
ENDBRANCH  14  16
ENDBRANCH  13  14
ENDBRANCH   2  13
TORSDOF 6
ENDMDL
MODEL 8
REMARK VINA RESULT:      -6.4      2.201      3.495
REMARK  Name = 
REMARK  8 active torsions:
REMARK  status: ('A' for Active; 'I' for Inactive)
REMARK    1  A    between atoms: C_1  and  C_2
REMARK    2  A    between atoms: C_4  and  C_5
REMARK    3  A    between atoms: C_5  and  N_6
REMARK    4  A    between atoms: C_7  and  C_9
REMARK    5  A    between atoms: C_9  and  N_10
REMARK    6  A    between atoms: N_10  and  C_11
REMARK    7  A    between atoms: N_10  and  C_12
REMARK    8  A    between atoms: C_12  and  C_13
REMARK                            x       y       z     vdW  Elec       q    Type
REMARK                         _______ _______ _______ _____ _____    ______ ____
ROOT
ATOM      1  N   UNL     1       5.465   3.916  18.322  0.00  0.00    +0.000 N 
ATOM      2  C   UNL     1       4.122   4.149  18.167  0.00  0.00    +0.000 C 
ATOM      3  O   UNL     1       3.622   4.533  17.111  0.00  0.00    +0.000 OA
ATOM      4  H   UNL     1       5.812   3.539  19.197  0.00  0.00    +0.000 HD
ENDROOT
BRANCH   1   5
ATOM      5  C   UNL     1       6.394   4.068  17.229  0.00  0.00    +0.000 C 
BRANCH   5   9
ATOM      6  C   UNL     1       8.440   8.534  18.644  0.00  0.00    +0.000 C 
ATOM      7  C   UNL     1       7.890   7.350  17.953  0.00  0.00    +0.000 A 
ATOM      8  C   UNL     1       7.432   6.139  18.421  0.00  0.00    +0.000 A 
ATOM      9  C   UNL     1       7.013   5.425  17.271  0.00  0.00    +0.000 A 
ATOM     10  N   UNL     1       7.225   6.135  16.149  0.00  0.00    +0.000 NA
ATOM     11  N   UNL     1       7.738   7.296  16.592  0.00  0.00    +0.000 N 
ATOM     12  H   UNL     1       7.959   8.013  15.911  0.00  0.00    +0.000 HD
ENDBRANCH   5   9
ENDBRANCH   1   5
BRANCH   2  13
ATOM     13  C   UNL     1       3.275   3.882  19.414  0.00  0.00    +0.000 C 
BRANCH  13  14
ATOM     14  N   UNL     1       2.172   4.868  19.547  0.00  0.00    +0.000 NA
ATOM     15  C   UNL     1       1.057   4.273  20.299  0.00  0.00    +0.000 C 
BRANCH  14  16
ATOM     16  C   UNL     1       2.639   6.086  20.243  0.00  0.00    +0.000 C 
BRANCH  16  17
ATOM     17  C   UNL     1       2.246   7.361  19.540  0.00  0.00    +0.000 A 
ATOM     18  C   UNL     1       1.433   8.319  20.155  0.00  0.00    +0.000 A 
ATOM     19  C   UNL     1       1.031   9.445  19.442  0.00  0.00    +0.000 A 
ATOM     20  C   UNL     1       1.468   9.585  18.136  0.00  0.00    +0.000 A 
ATOM     21  N   UNL     1       2.285   8.704  17.519  0.00  0.00    +0.000 NA
ATOM     22  C   UNL     1       2.657   7.619  18.235  0.00  0.00    +0.000 A 
ENDBRANCH  16  17
ENDBRANCH  14  16
ENDBRANCH  13  14
ENDBRANCH   2  13
TORSDOF 6
ENDMDL
MODEL 9
REMARK VINA RESULT:      -6.4      2.302      3.322
REMARK  Name = 
REMARK  8 active torsions:
REMARK  status: ('A' for Active; 'I' for Inactive)
REMARK    1  A    between atoms: C_1  and  C_2
REMARK    2  A    between atoms: C_4  and  C_5
REMARK    3  A    between atoms: C_5  and  N_6
REMARK    4  A    between atoms: C_7  and  C_9
REMARK    5  A    between atoms: C_9  and  N_10
REMARK    6  A    between atoms: N_10  and  C_11
REMARK    7  A    between atoms: N_10  and  C_12
REMARK    8  A    between atoms: C_12  and  C_13
REMARK                            x       y       z     vdW  Elec       q    Type
REMARK                         _______ _______ _______ _____ _____    ______ ____
ROOT
ATOM      1  N   UNL     1       4.199   4.145  16.856  0.00  0.00    +0.000 N 
ATOM      2  C   UNL     1       3.619   3.537  17.940  0.00  0.00    +0.000 C 
ATOM      3  O   UNL     1       4.226   2.774  18.691  0.00  0.00    +0.000 OA
ATOM      4  H   UNL     1       3.668   4.814  16.311  0.00  0.00    +0.000 HD
ENDROOT
BRANCH   1   5
ATOM      5  C   UNL     1       5.595   3.959  16.538  0.00  0.00    +0.000 C 
BRANCH   5   9
ATOM      6  C   UNL     1       7.970   8.324  17.735  0.00  0.00    +0.000 C 
ATOM      7  C   UNL     1       7.420   6.956  17.640  0.00  0.00    +0.000 A 
ATOM      8  C   UNL     1       6.523   6.383  16.767  0.00  0.00    +0.000 A 
ATOM      9  C   UNL     1       6.411   5.031  17.179  0.00  0.00    +0.000 A 
ATOM     10  N   UNL     1       7.168   4.783  18.261  0.00  0.00    +0.000 NA
ATOM     11  N   UNL     1       7.778   5.957  18.506  0.00  0.00    +0.000 N 
ATOM     12  H   UNL     1       8.431   6.005  19.279  0.00  0.00    +0.000 HD
ENDBRANCH   5   9
ENDBRANCH   1   5
BRANCH   2  13
ATOM     13  C   UNL     1       2.146   3.891  18.163  0.00  0.00    +0.000 C 
BRANCH  13  14
ATOM     14  N   UNL     1       1.978   4.841  19.294  0.00  0.00    +0.000 NA
ATOM     15  C   UNL     1       2.146   4.132  20.571  0.00  0.00    +0.000 C 
BRANCH  14  16
ATOM     16  C   UNL     1       2.964   5.938  19.208  0.00  0.00    +0.000 C 
BRANCH  16  17
ATOM     17  C   UNL     1       2.329   7.302  19.089  0.00  0.00    +0.000 A 
ATOM     18  C   UNL     1       2.383   8.035  17.899  0.00  0.00    +0.000 A 
ATOM     19  C   UNL     1       1.852   9.322  17.855  0.00  0.00    +0.000 A 
ATOM     20  C   UNL     1       1.270   9.830  19.003  0.00  0.00    +0.000 A 
ATOM     21  N   UNL     1       1.164   9.140  20.160  0.00  0.00    +0.000 NA
ATOM     22  C   UNL     1       1.690   7.895  20.174  0.00  0.00    +0.000 A 
ENDBRANCH  16  17
ENDBRANCH  14  16
ENDBRANCH  13  14
ENDBRANCH   2  13
TORSDOF 6
ENDMDL
