MODEL 1
REMARK VINA RESULT:      -7.0      0.000      0.000
REMARK  Name = 
REMARK  9 active torsions:
REMARK  status: ('A' for Active; 'I' for Inactive)
REMARK    1  A    between atoms: C_2  and  C_3
REMARK    2  A    between atoms: N_11  and  C_12
REMARK    3  A    between atoms: C_12  and  C_13
REMARK    4  A    between atoms: C_13  and  O_14
REMARK    5  A    between atoms: C_13  and  C_15
REMARK    6  A    between atoms: C_15  and  N_16
REMARK    7  A    between atoms: N_19  and  C_20
REMARK    8  A    between atoms: C_20  and  C_21
REMARK    9  A    between atoms: C_20  and  C_27
REMARK                            x       y       z     vdW  Elec       q    Type
REMARK                         _______ _______ _______ _____ _____    ______ ____
ROOT
ATOM      1  N   UNL     1       2.163  14.251  19.016  0.00  0.00    +0.000 NA
ATOM      2  C   UNL     1       2.282  13.229  20.084  0.00  0.00    +0.000 C 
ATOM      3  C   UNL     1       1.010  12.858  20.901  0.00  0.00    +0.000 C 
ATOM      4  N   UNL     1      -0.243  12.743  20.114  0.00  0.00    +0.000 NA
ATOM      5  C   UNL     1      -0.358  14.020  19.385  0.00  0.00    +0.000 C 
ATOM      6  C   UNL     1       0.811  14.279  18.415  0.00  0.00    +0.000 C 
ENDROOT
BRANCH   1   7
ATOM      7  C   UNL     1       2.586  15.603  19.403  0.00  0.00    +0.000 C 
BRANCH   7   8
ATOM      8  C   UNL     1       3.732  16.231  18.567  0.00  0.00    +0.000 C 
BRANCH   8   9
ATOM      9  O   UNL     1       3.125  17.051  17.555  0.00  0.00    +0.000 OA
ATOM     10  H   UNL     1       3.218  17.987  17.813  0.00  0.00    +0.000 HD
ENDBRANCH   8   9
BRANCH   8  11
ATOM     11  C   UNL     1       4.644  15.174  17.924  0.00  0.00    +0.000 C 
BRANCH  11  20
ATOM     12  C   UNL     1       9.421  14.553  18.237  0.00  0.00    +0.000 A 
ATOM     13  N   UNL     1       9.443  13.292  17.736  0.00  0.00    +0.000 NA
ATOM     14  C   UNL     1       8.261  12.759  17.366  0.00  0.00    +0.000 A 
ATOM     15  N   UNL     1       7.036  13.322  17.430  0.00  0.00    +0.000 NA
ATOM     16  C   UNL     1       7.097  14.567  17.935  0.00  0.00    +0.000 A 
ATOM     17  C   UNL     1       8.228  15.253  18.356  0.00  0.00    +0.000 A 
ATOM     18  N   UNL     1       7.888  16.502  18.825  0.00  0.00    +0.000 NA
ATOM     19  C   UNL     1       6.580  16.576  18.690  0.00  0.00    +0.000 A 
ATOM     20  N   UNL     1       6.058  15.436  18.149  0.00  0.00    +0.000 N 
BRANCH  12  22
ATOM     21  N   UNL     1      11.660  15.623  19.000  0.00  0.00    +0.000 NA
ATOM     22  C   UNL     1      10.650  15.153  18.656  0.00  0.00    +0.000 C 
ENDBRANCH  12  22
ENDBRANCH  11  20
ENDBRANCH   8  11
ENDBRANCH   7   8
ENDBRANCH   1   7
BRANCH   4  23
ATOM     23  C   UNL     1      -0.240  11.547  19.203  0.00  0.00    +0.000 C 
BRANCH  23  24
ATOM     24  C   UNL     1       0.289  10.297  19.918  0.00  0.00    +0.000 A 
ATOM     25  C   UNL     1       1.317   9.519  19.363  0.00  0.00    +0.000 A 
ATOM     26  C   UNL     1       1.706   8.320  19.960  0.00  0.00    +0.000 A 
ATOM     27  C   UNL     1       1.073   7.881  21.121  0.00  0.00    +0.000 A 
ATOM     28  C   UNL     1       0.070   8.653  21.703  0.00  0.00    +0.000 A 
ATOM     29  C   UNL     1      -0.314   9.859  21.113  0.00  0.00    +0.000 A 
ENDBRANCH  23  24
BRANCH  23  30
ATOM     30  C   UNL     1      -1.587  11.251  18.515  0.00  0.00    +0.000 A 
ATOM     31  C   UNL     1      -1.640  10.317  17.462  0.00  0.00    +0.000 A 
ATOM     32  C   UNL     1      -2.853   9.985  16.854  0.00  0.00    +0.000 A 
ATOM     33  C   UNL     1      -4.036  10.583  17.280  0.00  0.00    +0.000 A 
ATOM     34  C   UNL     1      -4.003  11.524  18.306  0.00  0.00    +0.000 A 
ATOM     35  C   UNL     1      -2.792  11.847  18.924  0.00  0.00    +0.000 A 
ENDBRANCH  23  30
ENDBRANCH   4  23
TORSDOF 9
ENDMDL
MODEL 2
REMARK VINA RESULT:      -6.8      5.647      9.487
REMARK  Name = 
REMARK  9 active torsions:
REMARK  status: ('A' for Active; 'I' for Inactive)
REMARK    1  A    between atoms: C_2  and  C_3
REMARK    2  A    between atoms: N_11  and  C_12
REMARK    3  A    between atoms: C_12  and  C_13
REMARK    4  A    between atoms: C_13  and  O_14
REMARK    5  A    between atoms: C_13  and  C_15
REMARK    6  A    between atoms: C_15  and  N_16
REMARK    7  A    between atoms: N_19  and  C_20
REMARK    8  A    between atoms: C_20  and  C_21
REMARK    9  A    between atoms: C_20  and  C_27
REMARK                            x       y       z     vdW  Elec       q    Type
REMARK                         _______ _______ _______ _____ _____    ______ ____
ROOT
ATOM      1  N   UNL     1       2.180   8.651  17.508  0.00  0.00    +0.000 NA
ATOM      2  C   UNL     1       3.574   8.341  17.111  0.00  0.00    +0.000 C 
ATOM      3  C   UNL     1       4.477   7.565  18.114  0.00  0.00    +0.000 C 
ATOM      4  N   UNL     1       3.813   6.456  18.844  0.00  0.00    +0.000 NA
ATOM      5  C   UNL     1       2.620   7.064  19.465  0.00  0.00    +0.000 C 
ATOM      6  C   UNL     1       1.626   7.645  18.442  0.00  0.00    +0.000 C 
ENDROOT
BRANCH   1   7
ATOM      7  C   UNL     1       1.970  10.009  18.025  0.00  0.00    +0.000 C 
BRANCH   7   8
ATOM      8  C   UNL     1       0.721  10.220  18.920  0.00  0.00    +0.000 C 
BRANCH   8   9
ATOM      9  O   UNL     1      -0.375  10.558  18.055  0.00  0.00    +0.000 OA
ATOM     10  H   UNL     1      -0.213  11.442  17.676  0.00  0.00    +0.000 HD
ENDBRANCH   8   9
BRANCH   8  11
ATOM     11  C   UNL     1       0.929  11.319  19.976  0.00  0.00    +0.000 C 
BRANCH  11  20
ATOM     12  C   UNL     1      -2.923  12.554  22.610  0.00  0.00    +0.000 A 
ATOM     13  N   UNL     1      -3.332  13.572  21.812  0.00  0.00    +0.000 NA
ATOM     14  C   UNL     1      -2.603  13.813  20.704  0.00  0.00    +0.000 A 
ATOM     15  N   UNL     1      -1.499  13.166  20.275  0.00  0.00    +0.000 NA
ATOM     16  C   UNL     1      -1.158  12.173  21.117  0.00  0.00    +0.000 A 
ATOM     17  C   UNL     1      -1.803  11.801  22.288  0.00  0.00    +0.000 A 
ATOM     18  N   UNL     1      -1.149  10.746  22.884  0.00  0.00    +0.000 NA
ATOM     19  C   UNL     1      -0.129  10.481  22.093  0.00  0.00    +0.000 A 
ATOM     20  N   UNL     1      -0.097  11.310  21.008  0.00  0.00    +0.000 N 
BRANCH  12  22
ATOM     21  N   UNL     1      -4.241  12.044  24.789  0.00  0.00    +0.000 NA
ATOM     22  C   UNL     1      -3.658  12.273  23.805  0.00  0.00    +0.000 C 
ENDBRANCH  12  22
ENDBRANCH  11  20
ENDBRANCH   8  11
ENDBRANCH   7   8
ENDBRANCH   1   7
BRANCH   4  23
ATOM     23  C   UNL     1       3.479   5.298  17.945  0.00  0.00    +0.000 C 
BRANCH  23  24
ATOM     24  C   UNL     1       4.718   4.793  17.195  0.00  0.00    +0.000 A 
ATOM     25  C   UNL     1       5.973   4.727  17.821  0.00  0.00    +0.000 A 
ATOM     26  C   UNL     1       7.114   4.383  17.096  0.00  0.00    +0.000 A 
ATOM     27  C   UNL     1       7.018   4.099  15.735  0.00  0.00    +0.000 A 
ATOM     28  C   UNL     1       5.776   4.131  15.103  0.00  0.00    +0.000 A 
ATOM     29  C   UNL     1       4.632   4.465  15.829  0.00  0.00    +0.000 A 
ENDBRANCH  23  24
BRANCH  23  30
ATOM     30  C   UNL     1       2.748   4.131  18.635  0.00  0.00    +0.000 A 
ATOM     31  C   UNL     1       3.230   3.636  19.864  0.00  0.00    +0.000 A 
ATOM     32  C   UNL     1       2.559   2.616  20.542  0.00  0.00    +0.000 A 
ATOM     33  C   UNL     1       1.399   2.064  20.006  0.00  0.00    +0.000 A 
ATOM     34  C   UNL     1       0.917   2.524  18.783  0.00  0.00    +0.000 A 
ATOM     35  C   UNL     1       1.579   3.554  18.110  0.00  0.00    +0.000 A 
ENDBRANCH  23  30
ENDBRANCH   4  23
TORSDOF 9
ENDMDL
MODEL 3
REMARK VINA RESULT:      -6.8      5.793      9.969
REMARK  Name = 
REMARK  9 active torsions:
REMARK  status: ('A' for Active; 'I' for Inactive)
REMARK    1  A    between atoms: C_2  and  C_3
REMARK    2  A    between atoms: N_11  and  C_12
REMARK    3  A    between atoms: C_12  and  C_13
REMARK    4  A    between atoms: C_13  and  O_14
REMARK    5  A    between atoms: C_13  and  C_15
REMARK    6  A    between atoms: C_15  and  N_16
REMARK    7  A    between atoms: N_19  and  C_20
REMARK    8  A    between atoms: C_20  and  C_21
REMARK    9  A    between atoms: C_20  and  C_27
REMARK                            x       y       z     vdW  Elec       q    Type
REMARK                         _______ _______ _______ _____ _____    ______ ____
ROOT
ATOM      1  N   UNL     1       1.841   7.915  18.616  0.00  0.00    +0.000 NA
ATOM      2  C   UNL     1       2.832   8.246  17.564  0.00  0.00    +0.000 C 
ATOM      3  C   UNL     1       4.293   7.737  17.732  0.00  0.00    +0.000 C 
ATOM      4  N   UNL     1       4.431   6.354  18.254  0.00  0.00    +0.000 NA
ATOM      5  C   UNL     1       3.647   6.335  19.504  0.00  0.00    +0.000 C 
ATOM      6  C   UNL     1       2.151   6.636  19.294  0.00  0.00    +0.000 C 
ENDROOT
BRANCH   1   7
ATOM      7  C   UNL     1       1.603   8.978  19.600  0.00  0.00    +0.000 C 
BRANCH   7   8
ATOM      8  C   UNL     1       0.381   9.897  19.339  0.00  0.00    +0.000 C 
BRANCH   8   9
ATOM      9  O   UNL     1       0.322  10.141  17.924  0.00  0.00    +0.000 OA
ATOM     10  H   UNL     1       0.040   9.321  17.477  0.00  0.00    +0.000 HD
ENDBRANCH   8   9
BRANCH   8  11
ATOM     11  C   UNL     1       0.465  11.226  20.108  0.00  0.00    +0.000 C 
BRANCH  11  20
ATOM     12  C   UNL     1      -3.283  12.589  22.828  0.00  0.00    +0.000 A 
ATOM     13  N   UNL     1      -3.816  13.455  21.929  0.00  0.00    +0.000 NA
ATOM     14  C   UNL     1      -3.180  13.578  20.747  0.00  0.00    +0.000 A 
ATOM     15  N   UNL     1      -2.063  12.945  20.330  0.00  0.00    +0.000 NA
ATOM     16  C   UNL     1      -1.598  12.106  21.273  0.00  0.00    +0.000 A 
ATOM     17  C   UNL     1      -2.136  11.867  22.530  0.00  0.00    +0.000 A 
ATOM     18  N   UNL     1      -1.371  10.950  23.216  0.00  0.00    +0.000 NA
ATOM     19  C   UNL     1      -0.390  10.638  22.395  0.00  0.00    +0.000 A 
ATOM     20  N   UNL     1      -0.488  11.303  21.206  0.00  0.00    +0.000 N 
BRANCH  12  22
ATOM     21  N   UNL     1      -4.417  12.321  25.149  0.00  0.00    +0.000 NA
ATOM     22  C   UNL     1      -3.917  12.437  24.102  0.00  0.00    +0.000 C 
ENDBRANCH  12  22
ENDBRANCH  11  20
ENDBRANCH   8  11
ENDBRANCH   7   8
ENDBRANCH   1   7
BRANCH   4  23
ATOM     23  C   UNL     1       3.976   5.320  17.263  0.00  0.00    +0.000 C 
BRANCH  23  24
ATOM     24  C   UNL     1       5.042   5.063  16.190  0.00  0.00    +0.000 A 
ATOM     25  C   UNL     1       4.718   4.440  14.974  0.00  0.00    +0.000 A 
ATOM     26  C   UNL     1       5.714   4.102  14.059  0.00  0.00    +0.000 A 
ATOM     27  C   UNL     1       7.049   4.382  14.344  0.00  0.00    +0.000 A 
ATOM     28  C   UNL     1       7.388   5.026  15.532  0.00  0.00    +0.000 A 
ATOM     29  C   UNL     1       6.391   5.374  16.446  0.00  0.00    +0.000 A 
ENDBRANCH  23  24
BRANCH  23  30
ATOM     30  C   UNL     1       3.497   3.993  17.882  0.00  0.00    +0.000 A 
ATOM     31  C   UNL     1       2.175   3.558  17.660  0.00  0.00    +0.000 A 
ATOM     32  C   UNL     1       1.726   2.333  18.161  0.00  0.00    +0.000 A 
ATOM     33  C   UNL     1       2.584   1.522  18.899  0.00  0.00    +0.000 A 
ATOM     34  C   UNL     1       3.888   1.943  19.148  0.00  0.00    +0.000 A 
ATOM     35  C   UNL     1       4.343   3.161  18.636  0.00  0.00    +0.000 A 
ENDBRANCH  23  30
ENDBRANCH   4  23
TORSDOF 9
ENDMDL
MODEL 4
REMARK VINA RESULT:      -6.8      5.753     10.082
REMARK  Name = 
REMARK  9 active torsions:
REMARK  status: ('A' for Active; 'I' for Inactive)
REMARK    1  A    between atoms: C_2  and  C_3
REMARK    2  A    between atoms: N_11  and  C_12
REMARK    3  A    between atoms: C_12  and  C_13
REMARK    4  A    between atoms: C_13  and  O_14
REMARK    5  A    between atoms: C_13  and  C_15
REMARK    6  A    between atoms: C_15  and  N_16
REMARK    7  A    between atoms: N_19  and  C_20
REMARK    8  A    between atoms: C_20  and  C_21
REMARK    9  A    between atoms: C_20  and  C_27
REMARK                            x       y       z     vdW  Elec       q    Type
REMARK                         _______ _______ _______ _____ _____    ______ ____
ROOT
ATOM      1  N   UNL     1       1.863   7.811  18.391  0.00  0.00    +0.000 NA
ATOM      2  C   UNL     1       2.852   8.107  17.327  0.00  0.00    +0.000 C 
ATOM      3  C   UNL     1       4.325   7.646  17.533  0.00  0.00    +0.000 C 
ATOM      4  N   UNL     1       4.493   6.299  18.134  0.00  0.00    +0.000 NA
ATOM      5  C   UNL     1       3.701   6.331  19.378  0.00  0.00    +0.000 C 
ATOM      6  C   UNL     1       2.200   6.581  19.143  0.00  0.00    +0.000 C 
ENDROOT
BRANCH   1   7
ATOM      7  C   UNL     1       1.591   8.922  19.311  0.00  0.00    +0.000 C 
BRANCH   7   8
ATOM      8  C   UNL     1       0.679  10.055  18.772  0.00  0.00    +0.000 C 
BRANCH   8   9
ATOM      9  O   UNL     1       1.520  10.986  18.071  0.00  0.00    +0.000 OA
ATOM     10  H   UNL     1       1.758  11.711  18.679  0.00  0.00    +0.000 HD
ENDBRANCH   8   9
BRANCH   8  11
ATOM     11  C   UNL     1      -0.097  10.771  19.890  0.00  0.00    +0.000 C 
BRANCH  11  20
ATOM     12  C   UNL     1      -4.079  11.392  17.232  0.00  0.00    +0.000 A 
ATOM     13  N   UNL     1      -3.714  10.568  16.216  0.00  0.00    +0.000 NA
ATOM     14  C   UNL     1      -2.522   9.947  16.331  0.00  0.00    +0.000 A 
ATOM     15  N   UNL     1      -1.628  10.036  17.337  0.00  0.00    +0.000 NA
ATOM     16  C   UNL     1      -2.062  10.867  18.302  0.00  0.00    +0.000 A 
ATOM     17  C   UNL     1      -3.255  11.575  18.333  0.00  0.00    +0.000 A 
ATOM     18  N   UNL     1      -3.338  12.331  19.481  0.00  0.00    +0.000 NA
ATOM     19  C   UNL     1      -2.221  12.088  20.135  0.00  0.00    +0.000 A 
ATOM     20  N   UNL     1      -1.422  11.204  19.468  0.00  0.00    +0.000 N 
BRANCH  12  22
ATOM     21  N   UNL     1      -6.341  12.659  17.090  0.00  0.00    +0.000 NA
ATOM     22  C   UNL     1      -5.328  12.084  17.145  0.00  0.00    +0.000 C 
ENDBRANCH  12  22
ENDBRANCH  11  20
ENDBRANCH   8  11
ENDBRANCH   7   8
ENDBRANCH   1   7
BRANCH   4  23
ATOM     23  C   UNL     1       4.072   5.198  17.201  0.00  0.00    +0.000 C 
BRANCH  23  24
ATOM     24  C   UNL     1       5.170   4.877  16.178  0.00  0.00    +0.000 A 
ATOM     25  C   UNL     1       6.511   5.216  16.418  0.00  0.00    +0.000 A 
ATOM     26  C   UNL     1       7.480   5.029  15.432  0.00  0.00    +0.000 A 
ATOM     27  C   UNL     1       7.123   4.501  14.193  0.00  0.00    +0.000 A 
ATOM     28  C   UNL     1       5.803   4.132  13.947  0.00  0.00    +0.000 A 
ATOM     29  C   UNL     1       4.833   4.308  14.935  0.00  0.00    +0.000 A 
ENDBRANCH  23  24
BRANCH  23  30
ATOM     30  C   UNL     1       3.580   3.912  17.893  0.00  0.00    +0.000 A 
ATOM     31  C   UNL     1       2.301   3.404  17.590  0.00  0.00    +0.000 A 
ATOM     32  C   UNL     1       1.848   2.211  18.159  0.00  0.00    +0.000 A 
ATOM     33  C   UNL     1       2.657   1.505  19.044  0.00  0.00    +0.000 A 
ATOM     34  C   UNL     1       3.917   2.000  19.372  0.00  0.00    +0.000 A 
ATOM     35  C   UNL     1       4.377   3.187  18.794  0.00  0.00    +0.000 A 
ENDBRANCH  23  30
ENDBRANCH   4  23
TORSDOF 9
ENDMDL
MODEL 5
REMARK VINA RESULT:      -6.7      5.769      7.883
REMARK  Name = 
REMARK  9 active torsions:
REMARK  status: ('A' for Active; 'I' for Inactive)
REMARK    1  A    between atoms: C_2  and  C_3
REMARK    2  A    between atoms: N_11  and  C_12
REMARK    3  A    between atoms: C_12  and  C_13
REMARK    4  A    between atoms: C_13  and  O_14
REMARK    5  A    between atoms: C_13  and  C_15
REMARK    6  A    between atoms: C_15  and  N_16
REMARK    7  A    between atoms: N_19  and  C_20
REMARK    8  A    between atoms: C_20  and  C_21
REMARK    9  A    between atoms: C_20  and  C_27
REMARK                            x       y       z     vdW  Elec       q    Type
REMARK                         _______ _______ _______ _____ _____    ______ ____
ROOT
ATOM      1  N   UNL     1      -0.700  10.019  18.750  0.00  0.00    +0.000 NA
ATOM      2  C   UNL     1      -0.344  11.187  19.590  0.00  0.00    +0.000 C 
ATOM      3  C   UNL     1      -0.929  12.579  19.212  0.00  0.00    +0.000 C 
ATOM      4  N   UNL     1      -2.350  12.578  18.780  0.00  0.00    +0.000 NA
ATOM      5  C   UNL     1      -2.418  11.589  17.687  0.00  0.00    +0.000 C 
ATOM      6  C   UNL     1      -2.035  10.163  18.127  0.00  0.00    +0.000 C 
ENDROOT
BRANCH   1   7
ATOM      7  C   UNL     1       0.304   9.649  17.744  0.00  0.00    +0.000 C 
BRANCH   7   8
ATOM      8  C   UNL     1       1.788   9.749  18.183  0.00  0.00    +0.000 C 
BRANCH   8   9
ATOM      9  O   UNL     1       2.354  10.894  17.525  0.00  0.00    +0.000 OA
ATOM     10  H   UNL     1       2.590  11.557  18.200  0.00  0.00    +0.000 HD
ENDBRANCH   8   9
BRANCH   8  11
ATOM     11  C   UNL     1       2.592   8.483  17.843  0.00  0.00    +0.000 C 
BRANCH  11  20
ATOM     12  C   UNL     1       2.652   4.159  19.987  0.00  0.00    +0.000 A 
ATOM     13  N   UNL     1       3.228   3.487  18.958  0.00  0.00    +0.000 NA
ATOM     14  C   UNL     1       3.546   4.204  17.861  0.00  0.00    +0.000 A 
ATOM     15  N   UNL     1       3.363   5.523  17.644  0.00  0.00    +0.000 NA
ATOM     16  C   UNL     1       2.789   6.116  18.707  0.00  0.00    +0.000 A 
ATOM     17  C   UNL     1       2.407   5.522  19.901  0.00  0.00    +0.000 A 
ATOM     18  N   UNL     1       1.842   6.453  20.744  0.00  0.00    +0.000 NA
ATOM     19  C   UNL     1       1.880   7.588  20.078  0.00  0.00    +0.000 A 
ATOM     20  N   UNL     1       2.451   7.438  18.846  0.00  0.00    +0.000 N 
BRANCH  12  22
ATOM     21  N   UNL     1       1.971   2.860  22.130  0.00  0.00    +0.000 NA
ATOM     22  C   UNL     1       2.284   3.435  21.165  0.00  0.00    +0.000 C 
ENDBRANCH  12  22
ENDBRANCH  11  20
ENDBRANCH   8  11
ENDBRANCH   7   8
ENDBRANCH   1   7
BRANCH   4  23
ATOM     23  C   UNL     1      -3.292  12.268  19.909  0.00  0.00    +0.000 C 
BRANCH  23  24
ATOM     24  C   UNL     1      -2.953  13.083  21.164  0.00  0.00    +0.000 A 
ATOM     25  C   UNL     1      -2.795  12.465  22.414  0.00  0.00    +0.000 A 
ATOM     26  C   UNL     1      -2.607  13.227  23.567  0.00  0.00    +0.000 A 
ATOM     27  C   UNL     1      -2.575  14.618  23.488  0.00  0.00    +0.000 A 
ATOM     28  C   UNL     1      -2.701  15.248  22.252  0.00  0.00    +0.000 A 
ATOM     29  C   UNL     1      -2.879  14.487  21.095  0.00  0.00    +0.000 A 
ENDBRANCH  23  24
BRANCH  23  30
ATOM     30  C   UNL     1      -4.787  12.401  19.562  0.00  0.00    +0.000 A 
ATOM     31  C   UNL     1      -5.273  11.856  18.357  0.00  0.00    +0.000 A 
ATOM     32  C   UNL     1      -6.633  11.910  18.038  0.00  0.00    +0.000 A 
ATOM     33  C   UNL     1      -7.532  12.516  18.911  0.00  0.00    +0.000 A 
ATOM     34  C   UNL     1      -7.070  13.078  20.099  0.00  0.00    +0.000 A 
ATOM     35  C   UNL     1      -5.713  13.012  20.425  0.00  0.00    +0.000 A 
ENDBRANCH  23  30
ENDBRANCH   4  23
TORSDOF 9
ENDMDL
MODEL 6
REMARK VINA RESULT:      -6.7      5.624      8.543
REMARK  Name = 
REMARK  9 active torsions:
REMARK  status: ('A' for Active; 'I' for Inactive)
REMARK    1  A    between atoms: C_2  and  C_3
REMARK    2  A    between atoms: N_11  and  C_12
REMARK    3  A    between atoms: C_12  and  C_13
REMARK    4  A    between atoms: C_13  and  O_14
REMARK    5  A    between atoms: C_13  and  C_15
REMARK    6  A    between atoms: C_15  and  N_16
REMARK    7  A    between atoms: N_19  and  C_20
REMARK    8  A    between atoms: C_20  and  C_21
REMARK    9  A    between atoms: C_20  and  C_27
REMARK                            x       y       z     vdW  Elec       q    Type
REMARK                         _______ _______ _______ _____ _____    ______ ____
ROOT
ATOM      1  N   UNL     1       0.699   9.811  19.487  0.00  0.00    +0.000 NA
ATOM      2  C   UNL     1      -0.360   9.568  20.495  0.00  0.00    +0.000 C 
ATOM      3  C   UNL     1      -0.343  10.405  21.807  0.00  0.00    +0.000 C 
ATOM      4  N   UNL     1      -0.007  11.842  21.643  0.00  0.00    +0.000 NA
ATOM      5  C   UNL     1       1.275  11.856  20.912  0.00  0.00    +0.000 C 
ATOM      6  C   UNL     1       1.193  11.206  19.518  0.00  0.00    +0.000 C 
ENDROOT
BRANCH   1   7
ATOM      7  C   UNL     1       1.821   8.863  19.525  0.00  0.00    +0.000 C 
BRANCH   7   8
ATOM      8  C   UNL     1       2.410   8.438  18.155  0.00  0.00    +0.000 C 
BRANCH   8   9
ATOM      9  O   UNL     1       1.958   9.390  17.179  0.00  0.00    +0.000 OA
ATOM     10  H   UNL     1       1.283   8.964  16.617  0.00  0.00    +0.000 HD
ENDBRANCH   8   9
BRANCH   8  11
ATOM     11  C   UNL     1       1.995   7.015  17.749  0.00  0.00    +0.000 C 
BRANCH  11  20
ATOM     12  C   UNL     1       3.382   2.795  19.638  0.00  0.00    +0.000 A 
ATOM     13  N   UNL     1       2.258   2.107  19.316  0.00  0.00    +0.000 NA
ATOM     14  C   UNL     1       1.298   2.780  18.651  0.00  0.00    +0.000 A 
ATOM     15  N   UNL     1       1.305   4.071  18.256  0.00  0.00    +0.000 NA
ATOM     16  C   UNL     1       2.450   4.683  18.611  0.00  0.00    +0.000 A 
ATOM     17  C   UNL     1       3.526   4.130  19.292  0.00  0.00    +0.000 A 
ATOM     18  N   UNL     1       4.511   5.074  19.483  0.00  0.00    +0.000 NA
ATOM     19  C   UNL     1       4.045   6.175  18.930  0.00  0.00    +0.000 A 
ATOM     20  N   UNL     1       2.808   5.987  18.383  0.00  0.00    +0.000 N 
BRANCH  12  22
ATOM     21  N   UNL     1       5.258   1.559  20.942  0.00  0.00    +0.000 NA
ATOM     22  C   UNL     1       4.421   2.124  20.358  0.00  0.00    +0.000 C 
ENDBRANCH  12  22
ENDBRANCH  11  20
ENDBRANCH   8  11
ENDBRANCH   7   8
ENDBRANCH   1   7
BRANCH   4  23
ATOM     23  C   UNL     1      -1.091  12.607  20.936  0.00  0.00    +0.000 C 
BRANCH  23  24
ATOM     24  C   UNL     1      -2.398  12.601  21.739  0.00  0.00    +0.000 A 
ATOM     25  C   UNL     1      -3.632  12.866  21.125  0.00  0.00    +0.000 A 
ATOM     26  C   UNL     1      -4.797  12.978  21.885  0.00  0.00    +0.000 A 
ATOM     27  C   UNL     1      -4.745  12.827  23.269  0.00  0.00    +0.000 A 
ATOM     28  C   UNL     1      -3.534  12.536  23.893  0.00  0.00    +0.000 A 
ATOM     29  C   UNL     1      -2.369  12.413  23.134  0.00  0.00    +0.000 A 
ENDBRANCH  23  24
BRANCH  23  30
ATOM     30  C   UNL     1      -0.711  14.042  20.526  0.00  0.00    +0.000 A 
ATOM     31  C   UNL     1      -0.477  15.012  21.521  0.00  0.00    +0.000 A 
ATOM     32  C   UNL     1      -0.077  16.308  21.184  0.00  0.00    +0.000 A 
ATOM     33  C   UNL     1       0.091  16.664  19.849  0.00  0.00    +0.000 A 
ATOM     34  C   UNL     1      -0.154  15.726  18.849  0.00  0.00    +0.000 A 
ATOM     35  C   UNL     1      -0.542  14.426  19.185  0.00  0.00    +0.000 A 
ENDBRANCH  23  30
ENDBRANCH   4  23
TORSDOF 9
ENDMDL
MODEL 7
REMARK VINA RESULT:      -6.7      1.538      1.985
REMARK  Name = 
REMARK  9 active torsions:
REMARK  status: ('A' for Active; 'I' for Inactive)
REMARK    1  A    between atoms: C_2  and  C_3
REMARK    2  A    between atoms: N_11  and  C_12
REMARK    3  A    between atoms: C_12  and  C_13
REMARK    4  A    between atoms: C_13  and  O_14
REMARK    5  A    between atoms: C_13  and  C_15
REMARK    6  A    between atoms: C_15  and  N_16
REMARK    7  A    between atoms: N_19  and  C_20
REMARK    8  A    between atoms: C_20  and  C_21
REMARK    9  A    between atoms: C_20  and  C_27
REMARK                            x       y       z     vdW  Elec       q    Type
REMARK                         _______ _______ _______ _____ _____    ______ ____
ROOT
ATOM      1  N   UNL     1       3.003  13.679  19.351  0.00  0.00    +0.000 NA
ATOM      2  C   UNL     1       2.459  13.357  20.693  0.00  0.00    +0.000 C 
ATOM      3  C   UNL     1       0.944  13.596  20.957  0.00  0.00    +0.000 C 
ATOM      4  N   UNL     1       0.035  13.214  19.848  0.00  0.00    +0.000 NA
ATOM      5  C   UNL     1       0.551  13.929  18.664  0.00  0.00    +0.000 C 
ATOM      6  C   UNL     1       1.988  13.525  18.284  0.00  0.00    +0.000 C 
ENDROOT
BRANCH   1   7
ATOM      7  C   UNL     1       3.668  14.984  19.249  0.00  0.00    +0.000 C 
BRANCH   7   8
ATOM      8  C   UNL     1       3.553  15.914  20.485  0.00  0.00    +0.000 C 
BRANCH   8   9
ATOM      9  O   UNL     1       2.929  17.133  20.049  0.00  0.00    +0.000 OA
ATOM     10  H   UNL     1       2.902  17.756  20.799  0.00  0.00    +0.000 HD
ENDBRANCH   8   9
BRANCH   8  11
ATOM     11  C   UNL     1       4.917  16.212  21.130  0.00  0.00    +0.000 C 
BRANCH  11  20
ATOM     12  C   UNL     1       8.963  15.546  18.583  0.00  0.00    +0.000 A 
ATOM     13  N   UNL     1       9.311  14.366  19.156  0.00  0.00    +0.000 NA
ATOM     14  C   UNL     1       8.480  13.874  20.098  0.00  0.00    +0.000 A 
ATOM     15  N   UNL     1       7.329  14.410  20.556  0.00  0.00    +0.000 NA
ATOM     16  C   UNL     1       7.054  15.574  19.940  0.00  0.00    +0.000 A 
ATOM     17  C   UNL     1       7.801  16.206  18.957  0.00  0.00    +0.000 A 
ATOM     18  N   UNL     1       7.203  17.388  18.581  0.00  0.00    +0.000 NA
ATOM     19  C   UNL     1       6.115  17.473  19.318  0.00  0.00    +0.000 A 
ATOM     20  N   UNL     1       5.976  16.397  20.149  0.00  0.00    +0.000 N 
BRANCH  12  22
ATOM     21  N   UNL     1      10.524  16.555  16.770  0.00  0.00    +0.000 NA
ATOM     22  C   UNL     1       9.823  16.111  17.589  0.00  0.00    +0.000 C 
ENDBRANCH  12  22
ENDBRANCH  11  20
ENDBRANCH   8  11
ENDBRANCH   7   8
ENDBRANCH   1   7
BRANCH   4  23
ATOM     23  C   UNL     1      -0.034  11.726  19.649  0.00  0.00    +0.000 C 
BRANCH  23  24
ATOM     24  C   UNL     1      -0.003  10.978  20.988  0.00  0.00    +0.000 A 
ATOM     25  C   UNL     1       0.915   9.941  21.223  0.00  0.00    +0.000 A 
ATOM     26  C   UNL     1       0.854   9.189  22.396  0.00  0.00    +0.000 A 
ATOM     27  C   UNL     1      -0.123   9.461  23.352  0.00  0.00    +0.000 A 
ATOM     28  C   UNL     1      -1.024  10.505  23.149  0.00  0.00    +0.000 A 
ATOM     29  C   UNL     1      -0.959  11.266  21.980  0.00  0.00    +0.000 A 
ENDBRANCH  23  24
BRANCH  23  30
ATOM     30  C   UNL     1      -1.211  11.240  18.782  0.00  0.00    +0.000 A 
ATOM     31  C   UNL     1      -2.464  11.876  18.889  0.00  0.00    +0.000 A 
ATOM     32  C   UNL     1      -3.536  11.496  18.078  0.00  0.00    +0.000 A 
ATOM     33  C   UNL     1      -3.383  10.470  17.150  0.00  0.00    +0.000 A 
ATOM     34  C   UNL     1      -2.158   9.815  17.042  0.00  0.00    +0.000 A 
ATOM     35  C   UNL     1      -1.081  10.203  17.843  0.00  0.00    +0.000 A 
ENDBRANCH  23  30
ENDBRANCH   4  23
TORSDOF 9
ENDMDL
MODEL 8
REMARK VINA RESULT:      -6.7      5.597      8.504
REMARK  Name = 
REMARK  9 active torsions:
REMARK  status: ('A' for Active; 'I' for Inactive)
REMARK    1  A    between atoms: C_2  and  C_3
REMARK    2  A    between atoms: N_11  and  C_12
REMARK    3  A    between atoms: C_12  and  C_13
REMARK    4  A    between atoms: C_13  and  O_14
REMARK    5  A    between atoms: C_13  and  C_15
REMARK    6  A    between atoms: C_15  and  N_16
REMARK    7  A    between atoms: N_19  and  C_20
REMARK    8  A    between atoms: C_20  and  C_21
REMARK    9  A    between atoms: C_20  and  C_27
REMARK                            x       y       z     vdW  Elec       q    Type
REMARK                         _______ _______ _______ _____ _____    ______ ____
ROOT
ATOM      1  N   UNL     1       0.543   9.850  19.549  0.00  0.00    +0.000 NA
ATOM      2  C   UNL     1      -0.492   9.723  20.603  0.00  0.00    +0.000 C 
ATOM      3  C   UNL     1      -0.362  10.600  21.882  0.00  0.00    +0.000 C 
ATOM      4  N   UNL     1       0.074  12.001  21.653  0.00  0.00    +0.000 NA
ATOM      5  C   UNL     1       1.325  11.892  20.878  0.00  0.00    +0.000 C 
ATOM      6  C   UNL     1       1.141  11.204  19.512  0.00  0.00    +0.000 C 
ENDROOT
BRANCH   1   7
ATOM      7  C   UNL     1       1.592   8.822  19.582  0.00  0.00    +0.000 C 
BRANCH   7   8
ATOM      8  C   UNL     1       2.309   8.527  18.240  0.00  0.00    +0.000 C 
BRANCH   8   9
ATOM      9  O   UNL     1       1.901   9.538  17.303  0.00  0.00    +0.000 OA
ATOM     10  H   UNL     1       1.283  10.146  17.749  0.00  0.00    +0.000 HD
ENDBRANCH   8   9
BRANCH   8  11
ATOM     11  C   UNL     1       1.986   7.127  17.692  0.00  0.00    +0.000 C 
BRANCH  11  20
ATOM     12  C   UNL     1       3.368   2.850  19.452  0.00  0.00    +0.000 A 
ATOM     13  N   UNL     1       2.254   2.168  19.086  0.00  0.00    +0.000 NA
ATOM     14  C   UNL     1       1.301   2.860  18.429  0.00  0.00    +0.000 A 
ATOM     15  N   UNL     1       1.307   4.164  18.081  0.00  0.00    +0.000 NA
ATOM     16  C   UNL     1       2.441   4.769  18.477  0.00  0.00    +0.000 A 
ATOM     17  C   UNL     1       3.510   4.199  19.156  0.00  0.00    +0.000 A 
ATOM     18  N   UNL     1       4.485   5.140  19.398  0.00  0.00    +0.000 NA
ATOM     19  C   UNL     1       4.022   6.258  18.877  0.00  0.00    +0.000 A 
ATOM     20  N   UNL     1       2.795   6.082  18.302  0.00  0.00    +0.000 N 
BRANCH  12  22
ATOM     21  N   UNL     1       5.225   1.592  20.760  0.00  0.00    +0.000 NA
ATOM     22  C   UNL     1       4.399   2.160  20.165  0.00  0.00    +0.000 C 
ENDBRANCH  12  22
ENDBRANCH  11  20
ENDBRANCH   8  11
ENDBRANCH   7   8
ENDBRANCH   1   7
BRANCH   4  23
ATOM     23  C   UNL     1      -0.976  12.822  20.958  0.00  0.00    +0.000 C 
BRANCH  23  24
ATOM     24  C   UNL     1      -2.270  12.891  21.779  0.00  0.00    +0.000 A 
ATOM     25  C   UNL     1      -2.249  12.813  23.181  0.00  0.00    +0.000 A 
ATOM     26  C   UNL     1      -3.438  12.755  23.909  0.00  0.00    +0.000 A 
ATOM     27  C   UNL     1      -4.664  12.776  23.248  0.00  0.00    +0.000 A 
ATOM     28  C   UNL     1      -4.705  12.883  21.859  0.00  0.00    +0.000 A 
ATOM     29  C   UNL     1      -3.517  12.951  21.129  0.00  0.00    +0.000 A 
ENDBRANCH  23  24
BRANCH  23  30
ATOM     30  C   UNL     1      -0.523  14.233  20.536  0.00  0.00    +0.000 A 
ATOM     31  C   UNL     1      -0.417  14.549  19.167  0.00  0.00    +0.000 A 
ATOM     32  C   UNL     1      -0.063  15.835  18.751  0.00  0.00    +0.000 A 
ATOM     33  C   UNL     1       0.199  16.828  19.691  0.00  0.00    +0.000 A 
ATOM     34  C   UNL     1       0.119  16.531  21.049  0.00  0.00    +0.000 A 
ATOM     35  C   UNL     1      -0.248  15.248  21.467  0.00  0.00    +0.000 A 
ENDBRANCH  23  30
ENDBRANCH   4  23
TORSDOF 9
ENDMDL
MODEL 9
REMARK VINA RESULT:      -6.7      3.144      9.212
REMARK  Name = 
REMARK  9 active torsions:
REMARK  status: ('A' for Active; 'I' for Inactive)
REMARK    1  A    between atoms: C_2  and  C_3
REMARK    2  A    between atoms: N_11  and  C_12
REMARK    3  A    between atoms: C_12  and  C_13
REMARK    4  A    between atoms: C_13  and  O_14
REMARK    5  A    between atoms: C_13  and  C_15
REMARK    6  A    between atoms: C_15  and  N_16
REMARK    7  A    between atoms: N_19  and  C_20
REMARK    8  A    between atoms: C_20  and  C_21
REMARK    9  A    between atoms: C_20  and  C_27
REMARK                            x       y       z     vdW  Elec       q    Type
REMARK                         _______ _______ _______ _____ _____    ______ ____
ROOT
ATOM      1  N   UNL     1       5.270  15.222  19.408  0.00  0.00    +0.000 NA
ATOM      2  C   UNL     1       6.453  14.962  18.553  0.00  0.00    +0.000 C 
ATOM      3  C   UNL     1       7.858  15.369  19.086  0.00  0.00    +0.000 C 
ATOM      4  N   UNL     1       8.100  15.092  20.524  0.00  0.00    +0.000 NA
ATOM      5  C   UNL     1       6.983  15.745  21.234  0.00  0.00    +0.000 C 
ATOM      6  C   UNL     1       5.601  15.183  20.850  0.00  0.00    +0.000 C 
ENDROOT
BRANCH   1   7
ATOM      7  C   UNL     1       4.525  16.444  19.080  0.00  0.00    +0.000 C 
BRANCH   7   8
ATOM      8  C   UNL     1       3.154  16.249  18.382  0.00  0.00    +0.000 C 
BRANCH   8   9
ATOM      9  O   UNL     1       3.124  17.124  17.242  0.00  0.00    +0.000 OA
ATOM     10  H   UNL     1       4.007  17.523  17.131  0.00  0.00    +0.000 HD
ENDBRANCH   8   9
BRANCH   8  11
ATOM     11  C   UNL     1       1.968  16.544  19.315  0.00  0.00    +0.000 C 
BRANCH  11  20
ATOM     12  C   UNL     1      -0.114  12.483  20.890  0.00  0.00    +0.000 A 
ATOM     13  N   UNL     1      -0.801  12.213  19.751  0.00  0.00    +0.000 NA
ATOM     14  C   UNL     1      -0.644  13.072  18.723  0.00  0.00    +0.000 A 
ATOM     15  N   UNL     1       0.116  14.186  18.675  0.00  0.00    +0.000 NA
ATOM     16  C   UNL     1       0.763  14.384  19.838  0.00  0.00    +0.000 A 
ATOM     17  C   UNL     1       0.709  13.596  20.980  0.00  0.00    +0.000 A 
ATOM     18  N   UNL     1       1.501  14.130  21.972  0.00  0.00    +0.000 NA
ATOM     19  C   UNL     1       2.025  15.218  21.446  0.00  0.00    +0.000 A 
ATOM     20  N   UNL     1       1.617  15.409  20.157  0.00  0.00    +0.000 N 
BRANCH  12  22
ATOM     21  N   UNL     1      -0.367  10.901  22.933  0.00  0.00    +0.000 NA
ATOM     22  C   UNL     1      -0.263  11.607  22.011  0.00  0.00    +0.000 C 
ENDBRANCH  12  22
ENDBRANCH  11  20
ENDBRANCH   8  11
ENDBRANCH   7   8
ENDBRANCH   1   7
BRANCH   4  23
ATOM     23  C   UNL     1       8.198  13.621  20.816  0.00  0.00    +0.000 C 
BRANCH  23  24
ATOM     24  C   UNL     1       9.385  12.981  20.083  0.00  0.00    +0.000 A 
ATOM     25  C   UNL     1       9.188  12.026  19.073  0.00  0.00    +0.000 A 
ATOM     26  C   UNL     1      10.273  11.363  18.499  0.00  0.00    +0.000 A 
ATOM     27  C   UNL     1      11.570  11.645  18.925  0.00  0.00    +0.000 A 
ATOM     28  C   UNL     1      11.786  12.610  19.905  0.00  0.00    +0.000 A 
ATOM     29  C   UNL     1      10.703  13.283  20.474  0.00  0.00    +0.000 A 
ENDBRANCH  23  24
BRANCH  23  30
ATOM     30  C   UNL     1       8.223  13.256  22.312  0.00  0.00    +0.000 A 
ATOM     31  C   UNL     1       7.915  11.940  22.713  0.00  0.00    +0.000 A 
ATOM     32  C   UNL     1       7.982  11.562  24.056  0.00  0.00    +0.000 A 
ATOM     33  C   UNL     1       8.350  12.490  25.027  0.00  0.00    +0.000 A 
ATOM     34  C   UNL     1       8.639  13.801  24.655  0.00  0.00    +0.000 A 
ATOM     35  C   UNL     1       8.585  14.177  23.310  0.00  0.00    +0.000 A 
ENDBRANCH  23  30
ENDBRANCH   4  23
TORSDOF 9
ENDMDL
