MODEL 1
REMARK VINA RESULT:      -6.6      0.000      0.000
REMARK  Name = 
REMARK  6 active torsions:
REMARK  status: ('A' for Active; 'I' for Inactive)
REMARK    1  A    between atoms: C_1  and  C_2
REMARK    2  A    between atoms: C_2  and  C_3
REMARK    3  A    between atoms: C_2  and  C_4
REMARK    4  A    between atoms: C_4  and  C_5
REMARK    5  A    between atoms: C_8  and  C_9
REMARK    6  A    between atoms: C_9  and  N_10
REMARK                            x       y       z     vdW  Elec       q    Type
REMARK                         _______ _______ _______ _____ _____    ______ ____
ROOT
ATOM      1  C   UNL     1       5.156   5.084  16.595  0.00  0.00    +0.000 A 
ATOM      2  C   UNL     1       5.319   5.844  17.738  0.00  0.00    +0.000 A 
ATOM      3  S   UNL     1       4.771   4.974  19.108  0.00  0.00    +0.000 S 
ATOM      4  C   UNL     1       4.358   3.648  18.091  0.00  0.00    +0.000 A 
ATOM      5  N   UNL     1       4.622   3.825  16.813  0.00  0.00    +0.000 NA
ENDROOT
BRANCH   1   6
ATOM      6  C   UNL     1       5.460   5.501  15.189  0.00  0.00    +0.000 C 
BRANCH   6   8
ATOM      7  C   UNL     1       5.470   3.791  13.310  0.00  0.00    +0.000 C 
ATOM      8  C   UNL     1       6.288   4.451  14.422  0.00  0.00    +0.000 C 
ATOM      9  C   UNL     1       7.549   5.082  13.826  0.00  0.00    +0.000 C 
ENDBRANCH   6   8
ENDBRANCH   1   6
BRANCH   4  10
ATOM     10  C   UNL     1       3.766   2.394  18.669  0.00  0.00    +0.000 C 
BRANCH  10  11
ATOM     11  N   UNL     1       2.647   2.719  19.526  0.00  0.00    +0.000 N 
ATOM     12  C   UNL     1       2.652   2.615  20.886  0.00  0.00    +0.000 C 
ATOM     13  O   UNL     1       3.574   2.224  21.587  0.00  0.00    +0.000 OA
ATOM     14  C   UNL     1       1.291   3.048  21.407  0.00  0.00    +0.000 C 
ATOM     15  N   UNL     1       0.624   3.364  20.179  0.00  0.00    +0.000 N 
ATOM     16  C   UNL     1       1.430   3.135  19.082  0.00  0.00    +0.000 C 
ATOM     17  O   UNL     1       1.050   3.260  17.932  0.00  0.00    +0.000 OA
ATOM     18  H   UNL     1      -0.336   3.660  20.066  0.00  0.00    +0.000 HD
ENDBRANCH  10  11
ENDBRANCH   4  10
TORSDOF 4
ENDMDL
MODEL 2
REMARK VINA RESULT:      -6.6      2.214      3.532
REMARK  Name = 
REMARK  6 active torsions:
REMARK  status: ('A' for Active; 'I' for Inactive)
REMARK    1  A    between atoms: C_1  and  C_2
REMARK    2  A    between atoms: C_2  and  C_3
REMARK    3  A    between atoms: C_2  and  C_4
REMARK    4  A    between atoms: C_4  and  C_5
REMARK    5  A    between atoms: C_8  and  C_9
REMARK    6  A    between atoms: C_9  and  N_10
REMARK                            x       y       z     vdW  Elec       q    Type
REMARK                         _______ _______ _______ _____ _____    ______ ____
ROOT
ATOM      1  C   UNL     1       6.293   4.378  13.993  0.00  0.00    +0.000 A 
ATOM      2  C   UNL     1       7.423   4.676  14.732  0.00  0.00    +0.000 A 
ATOM      3  S   UNL     1       6.988   5.090  16.335  0.00  0.00    +0.000 S 
ATOM      4  C   UNL     1       5.330   4.843  15.941  0.00  0.00    +0.000 A 
ATOM      5  N   UNL     1       5.106   4.461  14.701  0.00  0.00    +0.000 NA
ENDROOT
BRANCH   1   6
ATOM      6  C   UNL     1       6.238   4.023  12.539  0.00  0.00    +0.000 C 
BRANCH   6   8
ATOM      7  C   UNL     1       4.072   3.360  11.388  0.00  0.00    +0.000 C 
ATOM      8  C   UNL     1       5.248   2.880  12.242  0.00  0.00    +0.000 C 
ATOM      9  C   UNL     1       5.954   1.719  11.536  0.00  0.00    +0.000 C 
ENDBRANCH   6   8
ENDBRANCH   1   6
BRANCH   4  10
ATOM     10  C   UNL     1       4.258   5.038  16.976  0.00  0.00    +0.000 C 
BRANCH  10  11
ATOM     11  N   UNL     1       4.107   3.840  17.771  0.00  0.00    +0.000 N 
ATOM     12  C   UNL     1       3.152   2.886  17.570  0.00  0.00    +0.000 C 
ATOM     13  O   UNL     1       2.277   2.897  16.716  0.00  0.00    +0.000 OA
ATOM     14  C   UNL     1       3.331   1.796  18.613  0.00  0.00    +0.000 C 
ATOM     15  N   UNL     1       4.454   2.307  19.342  0.00  0.00    +0.000 N 
ATOM     16  C   UNL     1       4.876   3.525  18.849  0.00  0.00    +0.000 C 
ATOM     17  O   UNL     1       5.764   4.184  19.358  0.00  0.00    +0.000 OA
ATOM     18  H   UNL     1       4.883   1.901  20.162  0.00  0.00    +0.000 HD
ENDBRANCH  10  11
ENDBRANCH   4  10
TORSDOF 4
ENDMDL
MODEL 3
REMARK VINA RESULT:      -6.4      1.883      2.301
REMARK  Name = 
REMARK  6 active torsions:
REMARK  status: ('A' for Active; 'I' for Inactive)
REMARK    1  A    between atoms: C_1  and  C_2
REMARK    2  A    between atoms: C_2  and  C_3
REMARK    3  A    between atoms: C_2  and  C_4
REMARK    4  A    between atoms: C_4  and  C_5
REMARK    5  A    between atoms: C_8  and  C_9
REMARK    6  A    between atoms: C_9  and  N_10
REMARK                            x       y       z     vdW  Elec       q    Type
REMARK                         _______ _______ _______ _____ _____    ______ ____
ROOT
ATOM      1  C   UNL     1       5.864   4.437  15.606  0.00  0.00    +0.000 A 
ATOM      2  C   UNL     1       7.113   4.781  16.086  0.00  0.00    +0.000 A 
ATOM      3  S   UNL     1       7.141   4.668  17.794  0.00  0.00    +0.000 S 
ATOM      4  C   UNL     1       5.495   4.166  17.781  0.00  0.00    +0.000 A 
ATOM      5  N   UNL     1       4.954   4.071  16.583  0.00  0.00    +0.000 NA
ENDROOT
BRANCH   1   6
ATOM      6  C   UNL     1       5.413   4.459  14.178  0.00  0.00    +0.000 C 
BRANCH   6   8
ATOM      7  C   UNL     1       5.724   3.023  12.104  0.00  0.00    +0.000 C 
ATOM      8  C   UNL     1       6.426   3.797  13.223  0.00  0.00    +0.000 C 
ATOM      9  C   UNL     1       7.361   4.845  12.613  0.00  0.00    +0.000 C 
ENDBRANCH   6   8
ENDBRANCH   1   6
BRANCH   4  10
ATOM     10  C   UNL     1       4.779   3.849  19.063  0.00  0.00    +0.000 C 
BRANCH  10  11
ATOM     11  N   UNL     1       3.468   3.307  18.783  0.00  0.00    +0.000 N 
ATOM     12  C   UNL     1       2.313   4.033  18.761  0.00  0.00    +0.000 C 
ATOM     13  O   UNL     1       2.196   5.229  18.987  0.00  0.00    +0.000 OA
ATOM     14  C   UNL     1       1.161   3.098  18.431  0.00  0.00    +0.000 C 
ATOM     15  N   UNL     1       1.859   1.853  18.300  0.00  0.00    +0.000 N 
ATOM     16  C   UNL     1       3.211   1.993  18.541  0.00  0.00    +0.000 C 
ATOM     17  O   UNL     1       3.990   1.057  18.562  0.00  0.00    +0.000 OA
ATOM     18  H   UNL     1       1.455   0.944  18.120  0.00  0.00    +0.000 HD
ENDBRANCH  10  11
ENDBRANCH   4  10
TORSDOF 4
ENDMDL
MODEL 4
REMARK VINA RESULT:      -6.4      3.292      6.431
REMARK  Name = 
REMARK  6 active torsions:
REMARK  status: ('A' for Active; 'I' for Inactive)
REMARK    1  A    between atoms: C_1  and  C_2
REMARK    2  A    between atoms: C_2  and  C_3
REMARK    3  A    between atoms: C_2  and  C_4
REMARK    4  A    between atoms: C_4  and  C_5
REMARK    5  A    between atoms: C_8  and  C_9
REMARK    6  A    between atoms: C_9  and  N_10
REMARK                            x       y       z     vdW  Elec       q    Type
REMARK                         _______ _______ _______ _____ _____    ______ ____
ROOT
ATOM      1  C   UNL     1       3.015   4.736  19.089  0.00  0.00    +0.000 A 
ATOM      2  C   UNL     1       2.580   4.512  17.797  0.00  0.00    +0.000 A 
ATOM      3  S   UNL     1       3.916   4.218  16.767  0.00  0.00    +0.000 S 
ATOM      4  C   UNL     1       4.981   4.403  18.107  0.00  0.00    +0.000 A 
ATOM      5  N   UNL     1       4.387   4.654  19.256  0.00  0.00    +0.000 NA
ENDROOT
BRANCH   1   6
ATOM      6  C   UNL     1       2.168   5.084  20.275  0.00  0.00    +0.000 C 
BRANCH   6   8
ATOM      7  C   UNL     1       0.713   3.063  19.766  0.00  0.00    +0.000 C 
ATOM      8  C   UNL     1       1.430   3.863  20.857  0.00  0.00    +0.000 C 
ATOM      9  C   UNL     1       2.401   2.948  21.609  0.00  0.00    +0.000 C 
ENDBRANCH   6   8
ENDBRANCH   1   6
BRANCH   4  10
ATOM     10  C   UNL     1       6.466   4.258  17.933  0.00  0.00    +0.000 C 
BRANCH  10  11
ATOM     11  N   UNL     1       7.116   5.539  18.096  0.00  0.00    +0.000 N 
ATOM     12  C   UNL     1       7.178   6.509  17.137  0.00  0.00    +0.000 C 
ATOM     13  O   UNL     1       6.720   6.448  16.006  0.00  0.00    +0.000 OA
ATOM     14  C   UNL     1       7.945   7.694  17.700  0.00  0.00    +0.000 C 
ATOM     15  N   UNL     1       8.256   7.212  19.013  0.00  0.00    +0.000 N 
ATOM     16  C   UNL     1       7.784   5.930  19.214  0.00  0.00    +0.000 C 
ATOM     17  O   UNL     1       7.996   5.288  20.227  0.00  0.00    +0.000 OA
ATOM     18  H   UNL     1       8.803   7.681  19.721  0.00  0.00    +0.000 HD
ENDBRANCH  10  11
ENDBRANCH   4  10
TORSDOF 4
ENDMDL
MODEL 5
REMARK VINA RESULT:      -6.4      2.082      3.025
REMARK  Name = 
REMARK  6 active torsions:
REMARK  status: ('A' for Active; 'I' for Inactive)
REMARK    1  A    between atoms: C_1  and  C_2
REMARK    2  A    between atoms: C_2  and  C_3
REMARK    3  A    between atoms: C_2  and  C_4
REMARK    4  A    between atoms: C_4  and  C_5
REMARK    5  A    between atoms: C_8  and  C_9
REMARK    6  A    between atoms: C_9  and  N_10
REMARK                            x       y       z     vdW  Elec       q    Type
REMARK                         _______ _______ _______ _____ _____    ______ ____
ROOT
ATOM      1  C   UNL     1       5.888   5.903  16.639  0.00  0.00    +0.000 A 
ATOM      2  C   UNL     1       6.464   5.282  15.548  0.00  0.00    +0.000 A 
ATOM      3  S   UNL     1       5.824   3.705  15.359  0.00  0.00    +0.000 S 
ATOM      4  C   UNL     1       4.822   3.956  16.737  0.00  0.00    +0.000 A 
ATOM      5  N   UNL     1       4.939   5.141  17.300  0.00  0.00    +0.000 NA
ENDROOT
BRANCH   1   6
ATOM      6  C   UNL     1       6.213   7.264  17.174  0.00  0.00    +0.000 C 
BRANCH   6   8
ATOM      7  C   UNL     1       8.051   8.852  17.921  0.00  0.00    +0.000 C 
ATOM      8  C   UNL     1       7.689   7.401  17.596  0.00  0.00    +0.000 C 
ATOM      9  C   UNL     1       7.993   6.514  18.807  0.00  0.00    +0.000 C 
ENDBRANCH   6   8
ENDBRANCH   1   6
BRANCH   4  10
ATOM     10  C   UNL     1       3.884   2.880  17.209  0.00  0.00    +0.000 C 
BRANCH  10  11
ATOM     11  N   UNL     1       3.184   3.315  18.397  0.00  0.00    +0.000 N 
ATOM     12  C   UNL     1       3.643   3.161  19.673  0.00  0.00    +0.000 C 
ATOM     13  O   UNL     1       4.689   2.628  20.014  0.00  0.00    +0.000 OA
ATOM     14  C   UNL     1       2.616   3.745  20.629  0.00  0.00    +0.000 C 
ATOM     15  N   UNL     1       1.615   4.191  19.705  0.00  0.00    +0.000 N 
ATOM     16  C   UNL     1       1.956   3.901  18.399  0.00  0.00    +0.000 C 
ATOM     17  O   UNL     1       1.224   4.118  17.450  0.00  0.00    +0.000 OA
ATOM     18  H   UNL     1       0.725   4.613  19.928  0.00  0.00    +0.000 HD
ENDBRANCH  10  11
ENDBRANCH   4  10
TORSDOF 4
ENDMDL
MODEL 6
REMARK VINA RESULT:      -6.3      2.893      6.298
REMARK  Name = 
REMARK  6 active torsions:
REMARK  status: ('A' for Active; 'I' for Inactive)
REMARK    1  A    between atoms: C_1  and  C_2
REMARK    2  A    between atoms: C_2  and  C_3
REMARK    3  A    between atoms: C_2  and  C_4
REMARK    4  A    between atoms: C_4  and  C_5
REMARK    5  A    between atoms: C_8  and  C_9
REMARK    6  A    between atoms: C_9  and  N_10
REMARK                            x       y       z     vdW  Elec       q    Type
REMARK                         _______ _______ _______ _____ _____    ______ ____
ROOT
ATOM      1  C   UNL     1       2.547   5.378  19.348  0.00  0.00    +0.000 A 
ATOM      2  C   UNL     1       2.397   6.494  18.546  0.00  0.00    +0.000 A 
ATOM      3  S   UNL     1       3.892   6.905  17.820  0.00  0.00    +0.000 S 
ATOM      4  C   UNL     1       4.637   5.572  18.615  0.00  0.00    +0.000 A 
ATOM      5  N   UNL     1       3.828   4.852  19.365  0.00  0.00    +0.000 NA
ENDROOT
BRANCH   1   6
ATOM      6  C   UNL     1       1.496   4.734  20.197  0.00  0.00    +0.000 C 
BRANCH   6   8
ATOM      7  C   UNL     1       1.354   2.667  21.668  0.00  0.00    +0.000 C 
ATOM      8  C   UNL     1       1.639   3.201  20.263  0.00  0.00    +0.000 C 
ATOM      9  C   UNL     1       0.703   2.524  19.258  0.00  0.00    +0.000 C 
ENDBRANCH   6   8
ENDBRANCH   1   6
BRANCH   4  10
ATOM     10  C   UNL     1       6.098   5.280  18.419  0.00  0.00    +0.000 C 
BRANCH  10  11
ATOM     11  N   UNL     1       6.396   5.152  17.010  0.00  0.00    +0.000 N 
ATOM     12  C   UNL     1       5.959   4.137  16.210  0.00  0.00    +0.000 C 
ATOM     13  O   UNL     1       5.274   3.183  16.548  0.00  0.00    +0.000 OA
ATOM     14  C   UNL     1       6.491   4.368  14.805  0.00  0.00    +0.000 C 
ATOM     15  N   UNL     1       7.229   5.581  14.995  0.00  0.00    +0.000 N 
ATOM     16  C   UNL     1       7.185   6.009  16.307  0.00  0.00    +0.000 C 
ATOM     17  O   UNL     1       7.802   6.975  16.718  0.00  0.00    +0.000 OA
ATOM     18  H   UNL     1       7.784   6.071  14.307  0.00  0.00    +0.000 HD
ENDBRANCH  10  11
ENDBRANCH   4  10
TORSDOF 4
ENDMDL
MODEL 7
REMARK VINA RESULT:      -6.3      2.213      3.543
REMARK  Name = 
REMARK  6 active torsions:
REMARK  status: ('A' for Active; 'I' for Inactive)
REMARK    1  A    between atoms: C_1  and  C_2
REMARK    2  A    between atoms: C_2  and  C_3
REMARK    3  A    between atoms: C_2  and  C_4
REMARK    4  A    between atoms: C_4  and  C_5
REMARK    5  A    between atoms: C_8  and  C_9
REMARK    6  A    between atoms: C_9  and  N_10
REMARK                            x       y       z     vdW  Elec       q    Type
REMARK                         _______ _______ _______ _____ _____    ______ ____
ROOT
ATOM      1  C   UNL     1       4.102   6.091  17.237  0.00  0.00    +0.000 A 
ATOM      2  C   UNL     1       5.184   5.710  16.467  0.00  0.00    +0.000 A 
ATOM      3  S   UNL     1       5.261   4.002  16.362  0.00  0.00    +0.000 S 
ATOM      4  C   UNL     1       3.851   3.886  17.343  0.00  0.00    +0.000 A 
ATOM      5  N   UNL     1       3.339   5.040  17.717  0.00  0.00    +0.000 NA
ENDROOT
BRANCH   1   6
ATOM      6  C   UNL     1       3.716   7.489  17.614  0.00  0.00    +0.000 C 
BRANCH   6   8
ATOM      7  C   UNL     1       2.261   7.452  19.697  0.00  0.00    +0.000 C 
ATOM      8  C   UNL     1       2.283   7.581  18.172  0.00  0.00    +0.000 C 
ATOM      9  C   UNL     1       1.623   8.900  17.760  0.00  0.00    +0.000 C 
ENDBRANCH   6   8
ENDBRANCH   1   6
BRANCH   4  10
ATOM     10  C   UNL     1       3.273   2.545  17.699  0.00  0.00    +0.000 C 
BRANCH  10  11
ATOM     11  N   UNL     1       2.825   2.544  19.074  0.00  0.00    +0.000 N 
ATOM     12  C   UNL     1       3.649   2.512  20.161  0.00  0.00    +0.000 C 
ATOM     13  O   UNL     1       4.870   2.463  20.152  0.00  0.00    +0.000 OA
ATOM     14  C   UNL     1       2.791   2.519  21.416  0.00  0.00    +0.000 C 
ATOM     15  N   UNL     1       1.479   2.552  20.842  0.00  0.00    +0.000 N 
ATOM     16  C   UNL     1       1.521   2.536  19.462  0.00  0.00    +0.000 C 
ATOM     17  O   UNL     1       0.527   2.481  18.761  0.00  0.00    +0.000 OA
ATOM     18  H   UNL     1       0.597   2.527  21.335  0.00  0.00    +0.000 HD
ENDBRANCH  10  11
ENDBRANCH   4  10
TORSDOF 4
ENDMDL
MODEL 8
REMARK VINA RESULT:      -6.3      2.107      3.510
REMARK  Name = 
REMARK  6 active torsions:
REMARK  status: ('A' for Active; 'I' for Inactive)
REMARK    1  A    between atoms: C_1  and  C_2
REMARK    2  A    between atoms: C_2  and  C_3
REMARK    3  A    between atoms: C_2  and  C_4
REMARK    4  A    between atoms: C_4  and  C_5
REMARK    5  A    between atoms: C_8  and  C_9
REMARK    6  A    between atoms: C_9  and  N_10
REMARK                            x       y       z     vdW  Elec       q    Type
REMARK                         _______ _______ _______ _____ _____    ______ ____
ROOT
ATOM      1  C   UNL     1       5.880   5.928  16.645  0.00  0.00    +0.000 A 
ATOM      2  C   UNL     1       6.514   5.286  15.598  0.00  0.00    +0.000 A 
ATOM      3  S   UNL     1       5.858   3.719  15.383  0.00  0.00    +0.000 S 
ATOM      4  C   UNL     1       4.775   4.001  16.692  0.00  0.00    +0.000 A 
ATOM      5  N   UNL     1       4.878   5.189  17.250  0.00  0.00    +0.000 NA
ENDROOT
BRANCH   1   6
ATOM      6  C   UNL     1       6.195   7.288  17.187  0.00  0.00    +0.000 C 
BRANCH   6   8
ATOM      7  C   UNL     1       8.023   8.895  17.920  0.00  0.00    +0.000 C 
ATOM      8  C   UNL     1       7.676   7.441  17.588  0.00  0.00    +0.000 C 
ATOM      9  C   UNL     1       8.009   6.548  18.787  0.00  0.00    +0.000 C 
ENDBRANCH   6   8
ENDBRANCH   1   6
BRANCH   4  10
ATOM     10  C   UNL     1       3.790   2.947  17.113  0.00  0.00    +0.000 C 
BRANCH  10  11
ATOM     11  N   UNL     1       3.140   3.335  18.345  0.00  0.00    +0.000 N 
ATOM     12  C   UNL     1       1.916   3.933  18.425  0.00  0.00    +0.000 C 
ATOM     13  O   UNL     1       1.193   4.246  17.490  0.00  0.00    +0.000 OA
ATOM     14  C   UNL     1       1.594   4.178  19.890  0.00  0.00    +0.000 C 
ATOM     15  N   UNL     1       2.772   3.652  20.513  0.00  0.00    +0.000 N 
ATOM     16  C   UNL     1       3.682   3.188  19.584  0.00  0.00    +0.000 C 
ATOM     17  O   UNL     1       4.786   2.768  19.878  0.00  0.00    +0.000 OA
ATOM     18  H   UNL     1       2.992   3.652  21.499  0.00  0.00    +0.000 HD
ENDBRANCH  10  11
ENDBRANCH   4  10
TORSDOF 4
ENDMDL
MODEL 9
REMARK VINA RESULT:      -6.3      1.807      2.955
REMARK  Name = 
REMARK  6 active torsions:
REMARK  status: ('A' for Active; 'I' for Inactive)
REMARK    1  A    between atoms: C_1  and  C_2
REMARK    2  A    between atoms: C_2  and  C_3
REMARK    3  A    between atoms: C_2  and  C_4
REMARK    4  A    between atoms: C_4  and  C_5
REMARK    5  A    between atoms: C_8  and  C_9
REMARK    6  A    between atoms: C_9  and  N_10
REMARK                            x       y       z     vdW  Elec       q    Type
REMARK                         _______ _______ _______ _____ _____    ______ ____
ROOT
ATOM      1  C   UNL     1       5.296   5.511  17.053  0.00  0.00    +0.000 A 
ATOM      2  C   UNL     1       4.302   6.397  17.422  0.00  0.00    +0.000 A 
ATOM      3  S   UNL     1       2.920   5.543  17.966  0.00  0.00    +0.000 S 
ATOM      4  C   UNL     1       3.737   4.055  17.677  0.00  0.00    +0.000 A 
ATOM      5  N   UNL     1       4.966   4.176  17.220  0.00  0.00    +0.000 NA
ENDROOT
BRANCH   1   6
ATOM      6  C   UNL     1       6.635   5.852  16.475  0.00  0.00    +0.000 C 
BRANCH   6   8
ATOM      7  C   UNL     1       7.597   7.911  17.612  0.00  0.00    +0.000 C 
ATOM      8  C   UNL     1       7.622   6.382  17.533  0.00  0.00    +0.000 C 
ATOM      9  C   UNL     1       7.311   5.793  18.911  0.00  0.00    +0.000 C 
ENDBRANCH   6   8
ENDBRANCH   1   6
BRANCH   4  10
ATOM     10  C   UNL     1       3.063   2.743  17.964  0.00  0.00    +0.000 C 
BRANCH  10  11
ATOM     11  N   UNL     1       2.738   2.645  19.370  0.00  0.00    +0.000 N 
ATOM     12  C   UNL     1       1.481   2.759  19.888  0.00  0.00    +0.000 C 
ATOM     13  O   UNL     1       0.450   2.974  19.267  0.00  0.00    +0.000 OA
ATOM     14  C   UNL     1       1.566   2.599  21.398  0.00  0.00    +0.000 C 
ATOM     15  N   UNL     1       2.976   2.403  21.566  0.00  0.00    +0.000 N 
ATOM     16  C   UNL     1       3.650   2.464  20.363  0.00  0.00    +0.000 C 
ATOM     17  O   UNL     1       4.863   2.403  20.269  0.00  0.00    +0.000 OA
ATOM     18  H   UNL     1       3.476   2.295  22.437  0.00  0.00    +0.000 HD
ENDBRANCH  10  11
ENDBRANCH   4  10
TORSDOF 4
ENDMDL
