MODEL 1
REMARK VINA RESULT:      -7.8      0.000      0.000
REMARK  Name = 
REMARK  6 active torsions:
REMARK  status: ('A' for Active; 'I' for Inactive)
REMARK    1  A    between atoms: C_1  and  C_2
REMARK    2  A    between atoms: C_2  and  C_3
REMARK    3  A    between atoms: C_3  and  C_4
REMARK    4  A    between atoms: C_4  and  O_5
REMARK    5  A    between atoms: O_5  and  C_6
REMARK    6  A    between atoms: C_9  and  C_10
REMARK                            x       y       z     vdW  Elec       q    Type
REMARK                         _______ _______ _______ _____ _____    ______ ____
ROOT
ATOM      1  C   UNL     1       3.301   4.199  19.198  0.00  0.00    +0.000 C 
ATOM      2  O   UNL     1       3.115   3.187  19.864  0.00  0.00    +0.000 OA
ATOM      3  N   UNL     1       2.572   5.376  19.402  0.00  0.00    +0.000 N 
ATOM      4  C   UNL     1       1.699   5.499  20.579  0.00  0.00    +0.000 C 
ATOM      5  C   UNL     1       1.863   6.896  21.240  0.00  0.00    +0.000 C 
ATOM      6  N   UNL     1       1.632   7.903  20.197  0.00  0.00    +0.000 N 
ATOM      7  C   UNL     1       0.983   9.088  20.466  0.00  0.00    +0.000 A 
ATOM      8  C   UNL     1       0.250   9.682  19.447  0.00  0.00    +0.000 A 
ATOM      9  C   UNL     1      -0.461  10.856  19.674  0.00  0.00    +0.000 A 
ATOM     10  C   UNL     1      -0.430  11.462  20.913  0.00  0.00    +0.000 A 
ATOM     11  N   UNL     1      -1.119  12.629  21.133  0.00  0.00    +0.000 N 
ATOM     12  C   UNL     1      -1.333  13.653  20.109  0.00  0.00    +0.000 C 
ATOM     13  C   UNL     1      -0.806  15.011  20.603  0.00  0.00    +0.000 C 
ATOM     14  O   UNL     1      -1.354  15.357  21.886  0.00  0.00    +0.000 OA
ATOM     15  C   UNL     1      -1.023  14.354  22.865  0.00  0.00    +0.000 C 
ATOM     16  C   UNL     1      -1.585  12.981  22.474  0.00  0.00    +0.000 C 
ATOM     17  N   UNL     1       0.270  10.860  21.898  0.00  0.00    +0.000 NA
ATOM     18  N   UNL     1       0.969   9.663  21.677  0.00  0.00    +0.000 NA
ATOM     19  C   UNL     1       2.545   7.833  19.058  0.00  0.00    +0.000 C 
ATOM     20  C   UNL     1       2.384   6.450  18.404  0.00  0.00    +0.000 C 
ENDROOT
BRANCH   1  24
ATOM     21  C   UNL     1       6.413   4.459  16.250  0.00  0.00    +0.000 A 
ATOM     22  C   UNL     1       6.641   4.775  17.580  0.00  0.00    +0.000 A 
ATOM     23  C   UNL     1       5.655   4.629  18.558  0.00  0.00    +0.000 A 
ATOM     24  C   UNL     1       4.386   4.194  18.180  0.00  0.00    +0.000 A 
ATOM     25  C   UNL     1       4.150   3.892  16.834  0.00  0.00    +0.000 A 
ATOM     26  C   UNL     1       5.166   3.987  15.866  0.00  0.00    +0.000 A 
BRANCH  21  27
ATOM     27  O   UNL     1       7.376   4.634  15.278  0.00  0.00    +0.000 OA
BRANCH  27  28
ATOM     28  C   UNL     1       6.869   5.149  14.041  0.00  0.00    +0.000 C 
BRANCH  28  29
ATOM     29  C   UNL     1       7.838   4.859  12.908  0.00  0.00    +0.000 C 
BRANCH  29  31
ATOM     30  C   UNL     1       5.898   3.362  12.353  0.00  0.00    +0.000 C 
ATOM     31  C   UNL     1       7.191   3.974  11.841  0.00  0.00    +0.000 C 
ENDBRANCH  29  31
ENDBRANCH  28  29
ENDBRANCH  27  28
ENDBRANCH  21  27
ENDBRANCH   1  24
TORSDOF 5
ENDMDL
MODEL 2
REMARK VINA RESULT:      -7.6      1.195      1.422
REMARK  Name = 
REMARK  6 active torsions:
REMARK  status: ('A' for Active; 'I' for Inactive)
REMARK    1  A    between atoms: C_1  and  C_2
REMARK    2  A    between atoms: C_2  and  C_3
REMARK    3  A    between atoms: C_3  and  C_4
REMARK    4  A    between atoms: C_4  and  O_5
REMARK    5  A    between atoms: O_5  and  C_6
REMARK    6  A    between atoms: C_9  and  C_10
REMARK                            x       y       z     vdW  Elec       q    Type
REMARK                         _______ _______ _______ _____ _____    ______ ____
ROOT
ATOM      1  C   UNL     1       3.036   5.398  19.036  0.00  0.00    +0.000 C 
ATOM      2  O   UNL     1       3.085   4.399  19.745  0.00  0.00    +0.000 OA
ATOM      3  N   UNL     1       2.239   6.503  19.353  0.00  0.00    +0.000 N 
ATOM      4  C   UNL     1       1.596   6.586  20.672  0.00  0.00    +0.000 C 
ATOM      5  C   UNL     1       1.734   8.017  21.262  0.00  0.00    +0.000 C 
ATOM      6  N   UNL     1       1.207   8.954  20.263  0.00  0.00    +0.000 N 
ATOM      7  C   UNL     1       0.500  10.079  20.628  0.00  0.00    +0.000 A 
ATOM      8  C   UNL     1      -0.470  10.557  19.756  0.00  0.00    +0.000 A 
ATOM      9  C   UNL     1      -1.244  11.663  20.091  0.00  0.00    +0.000 A 
ATOM     10  C   UNL     1      -1.045  12.317  21.289  0.00  0.00    +0.000 A 
ATOM     11  N   UNL     1      -1.797  13.419  21.614  0.00  0.00    +0.000 N 
ATOM     12  C   UNL     1      -2.306  14.375  20.629  0.00  0.00    +0.000 C 
ATOM     13  C   UNL     1      -1.841  15.797  20.987  0.00  0.00    +0.000 C 
ATOM     14  O   UNL     1      -2.170  16.138  22.344  0.00  0.00    +0.000 OA
ATOM     15  C   UNL     1      -1.558  15.212  23.261  0.00  0.00    +0.000 C 
ATOM     16  C   UNL     1      -2.037  13.775  23.012  0.00  0.00    +0.000 C 
ATOM     17  N   UNL     1      -0.112  11.827  22.134  0.00  0.00    +0.000 NA
ATOM     18  N   UNL     1       0.654  10.697  21.807  0.00  0.00    +0.000 NA
ATOM     19  C   UNL     1       1.891   8.930  18.971  0.00  0.00    +0.000 C 
ATOM     20  C   UNL     1       1.755   7.513  18.389  0.00  0.00    +0.000 C 
ENDROOT
BRANCH   1  24
ATOM     21  C   UNL     1       5.730   5.423  15.692  0.00  0.00    +0.000 A 
ATOM     22  C   UNL     1       4.961   4.311  16.000  0.00  0.00    +0.000 A 
ATOM     23  C   UNL     1       4.032   4.316  17.043  0.00  0.00    +0.000 A 
ATOM     24  C   UNL     1       3.904   5.459  17.830  0.00  0.00    +0.000 A 
ATOM     25  C   UNL     1       4.694   6.576  17.531  0.00  0.00    +0.000 A 
ATOM     26  C   UNL     1       5.584   6.581  16.443  0.00  0.00    +0.000 A 
BRANCH  21  27
ATOM     27  O   UNL     1       6.670   5.408  14.684  0.00  0.00    +0.000 OA
BRANCH  27  28
ATOM     28  C   UNL     1       6.801   4.143  14.026  0.00  0.00    +0.000 C 
BRANCH  28  29
ATOM     29  C   UNL     1       7.106   4.339  12.551  0.00  0.00    +0.000 C 
BRANCH  29  31
ATOM     30  C   UNL     1       4.964   3.202  11.895  0.00  0.00    +0.000 C 
ATOM     31  C   UNL     1       6.471   3.234  11.705  0.00  0.00    +0.000 C 
ENDBRANCH  29  31
ENDBRANCH  28  29
ENDBRANCH  27  28
ENDBRANCH  21  27
ENDBRANCH   1  24
TORSDOF 5
ENDMDL
MODEL 3
REMARK VINA RESULT:      -7.5      1.011      1.215
REMARK  Name = 
REMARK  6 active torsions:
REMARK  status: ('A' for Active; 'I' for Inactive)
REMARK    1  A    between atoms: C_1  and  C_2
REMARK    2  A    between atoms: C_2  and  C_3
REMARK    3  A    between atoms: C_3  and  C_4
REMARK    4  A    between atoms: C_4  and  O_5
REMARK    5  A    between atoms: O_5  and  C_6
REMARK    6  A    between atoms: C_9  and  C_10
REMARK                            x       y       z     vdW  Elec       q    Type
REMARK                         _______ _______ _______ _____ _____    ______ ____
ROOT
ATOM      1  C   UNL     1       3.244   4.771  18.793  0.00  0.00    +0.000 C 
ATOM      2  O   UNL     1       3.168   3.724  19.425  0.00  0.00    +0.000 OA
ATOM      3  N   UNL     1       2.490   5.902  19.123  0.00  0.00    +0.000 N 
ATOM      4  C   UNL     1       1.734   5.934  20.384  0.00  0.00    +0.000 C 
ATOM      5  C   UNL     1       1.904   7.308  21.091  0.00  0.00    +0.000 C 
ATOM      6  N   UNL     1       1.527   8.346  20.125  0.00  0.00    +0.000 N 
ATOM      7  C   UNL     1       0.859   9.487  20.512  0.00  0.00    +0.000 A 
ATOM      8  C   UNL     1       0.004  10.090  19.598  0.00  0.00    +0.000 A 
ATOM      9  C   UNL     1      -0.730  11.218  19.949  0.00  0.00    +0.000 A 
ATOM     10  C   UNL     1      -0.602  11.771  21.206  0.00  0.00    +0.000 A 
ATOM     11  N   UNL     1      -1.314  12.894  21.547  0.00  0.00    +0.000 N 
ATOM     12  C   UNL     1      -1.672  13.950  20.599  0.00  0.00    +0.000 C 
ATOM     13  C   UNL     1      -1.157  15.309  21.103  0.00  0.00    +0.000 C 
ATOM     14  O   UNL     1      -1.588  15.573  22.449  0.00  0.00    +0.000 OA
ATOM     15  C   UNL     1      -1.119  14.546  23.342  0.00  0.00    +0.000 C 
ATOM     16  C   UNL     1      -1.659  13.165  22.943  0.00  0.00    +0.000 C 
ATOM     17  N   UNL     1       0.218  11.160  22.089  0.00  0.00    +0.000 NA
ATOM     18  N   UNL     1       0.941  10.008  21.744  0.00  0.00    +0.000 NA
ATOM     19  C   UNL     1       2.325   8.369  18.900  0.00  0.00    +0.000 C 
ATOM     20  C   UNL     1       2.158   7.008  18.200  0.00  0.00    +0.000 C 
ENDROOT
BRANCH   1  24
ATOM     21  C   UNL     1       5.855   5.076  15.397  0.00  0.00    +0.000 A 
ATOM     22  C   UNL     1       5.306   6.199  15.996  0.00  0.00    +0.000 A 
ATOM     23  C   UNL     1       4.511   6.115  17.142  0.00  0.00    +0.000 A 
ATOM     24  C   UNL     1       4.222   4.860  17.676  0.00  0.00    +0.000 A 
ATOM     25  C   UNL     1       4.761   3.725  17.059  0.00  0.00    +0.000 A 
ATOM     26  C   UNL     1       5.607   3.823  15.940  0.00  0.00    +0.000 A 
BRANCH  21  27
ATOM     27  O   UNL     1       6.611   5.155  14.247  0.00  0.00    +0.000 OA
BRANCH  27  28
ATOM     28  C   UNL     1       6.456   4.035  13.367  0.00  0.00    +0.000 C 
BRANCH  28  29
ATOM     29  C   UNL     1       5.121   4.105  12.647  0.00  0.00    +0.000 C 
BRANCH  29  31
ATOM     30  C   UNL     1       3.699   3.099  10.838  0.00  0.00    +0.000 C 
ATOM     31  C   UNL     1       4.958   2.939  11.671  0.00  0.00    +0.000 C 
ENDBRANCH  29  31
ENDBRANCH  28  29
ENDBRANCH  27  28
ENDBRANCH  21  27
ENDBRANCH   1  24
TORSDOF 5
ENDMDL
MODEL 4
REMARK VINA RESULT:      -7.4      2.275     11.788
REMARK  Name = 
REMARK  6 active torsions:
REMARK  status: ('A' for Active; 'I' for Inactive)
REMARK    1  A    between atoms: C_1  and  C_2
REMARK    2  A    between atoms: C_2  and  C_3
REMARK    3  A    between atoms: C_3  and  C_4
REMARK    4  A    between atoms: C_4  and  O_5
REMARK    5  A    between atoms: O_5  and  C_6
REMARK    6  A    between atoms: C_9  and  C_10
REMARK                            x       y       z     vdW  Elec       q    Type
REMARK                         _______ _______ _______ _____ _____    ______ ____
ROOT
ATOM      1  C   UNL     1      -1.875  11.776  20.163  0.00  0.00    +0.000 C 
ATOM      2  O   UNL     1      -2.800  12.099  19.426  0.00  0.00    +0.000 OA
ATOM      3  N   UNL     1      -0.968  10.764  19.828  0.00  0.00    +0.000 N 
ATOM      4  C   UNL     1      -0.972  10.201  18.470  0.00  0.00    +0.000 C 
ATOM      5  C   UNL     1       0.481  10.038  17.940  0.00  0.00    +0.000 C 
ATOM      6  N   UNL     1       1.221   9.247  18.930  0.00  0.00    +0.000 N 
ATOM      7  C   UNL     1       2.170   8.322  18.554  0.00  0.00    +0.000 A 
ATOM      8  C   UNL     1       2.370   7.216  19.371  0.00  0.00    +0.000 A 
ATOM      9  C   UNL     1       3.282   6.228  19.019  0.00  0.00    +0.000 A 
ATOM     10  C   UNL     1       4.023   6.342  17.860  0.00  0.00    +0.000 A 
ATOM     11  N   UNL     1       4.936   5.375  17.521  0.00  0.00    +0.000 N 
ATOM     12  C   UNL     1       5.701   4.598  18.498  0.00  0.00    +0.000 C 
ATOM     13  C   UNL     1       7.207   4.741  18.222  0.00  0.00    +0.000 C 
ATOM     14  O   UNL     1       7.528   4.425  16.857  0.00  0.00    +0.000 OA
ATOM     15  C   UNL     1       6.814   5.290  15.955  0.00  0.00    +0.000 C 
ATOM     16  C   UNL     1       5.295   5.144  16.121  0.00  0.00    +0.000 C 
ATOM     17  N   UNL     1       3.801   7.413  17.068  0.00  0.00    +0.000 NA
ATOM     18  N   UNL     1       2.863   8.399  17.410  0.00  0.00    +0.000 NA
ATOM     19  C   UNL     1       1.293   9.839  20.265  0.00  0.00    +0.000 C 
ATOM     20  C   UNL     1      -0.145  10.001  20.789  0.00  0.00    +0.000 C 
ENDROOT
BRANCH   1  24
ATOM     21  C   UNL     1      -1.521  14.104  23.754  0.00  0.00    +0.000 A 
ATOM     22  C   UNL     1      -2.455  13.087  23.635  0.00  0.00    +0.000 A 
ATOM     23  C   UNL     1      -2.532  12.279  22.498  0.00  0.00    +0.000 A 
ATOM     24  C   UNL     1      -1.674  12.531  21.429  0.00  0.00    +0.000 A 
ATOM     25  C   UNL     1      -0.743  13.571  21.542  0.00  0.00    +0.000 A 
ATOM     26  C   UNL     1      -0.634  14.341  22.713  0.00  0.00    +0.000 A 
BRANCH  21  27
ATOM     27  O   UNL     1      -1.466  14.923  24.862  0.00  0.00    +0.000 OA
BRANCH  27  28
ATOM     28  C   UNL     1      -2.724  15.093  25.526  0.00  0.00    +0.000 C 
BRANCH  28  29
ATOM     29  C   UNL     1      -3.427  16.341  25.025  0.00  0.00    +0.000 C 
BRANCH  29  31
ATOM     30  C   UNL     1      -4.576  16.466  22.795  0.00  0.00    +0.000 C 
ATOM     31  C   UNL     1      -4.685  15.986  24.232  0.00  0.00    +0.000 C 
ENDBRANCH  29  31
ENDBRANCH  28  29
ENDBRANCH  27  28
ENDBRANCH  21  27
ENDBRANCH   1  24
TORSDOF 5
ENDMDL
MODEL 5
REMARK VINA RESULT:      -7.3      2.266     11.776
REMARK  Name = 
REMARK  6 active torsions:
REMARK  status: ('A' for Active; 'I' for Inactive)
REMARK    1  A    between atoms: C_1  and  C_2
REMARK    2  A    between atoms: C_2  and  C_3
REMARK    3  A    between atoms: C_3  and  C_4
REMARK    4  A    between atoms: C_4  and  O_5
REMARK    5  A    between atoms: O_5  and  C_6
REMARK    6  A    between atoms: C_9  and  C_10
REMARK                            x       y       z     vdW  Elec       q    Type
REMARK                         _______ _______ _______ _____ _____    ______ ____
ROOT
ATOM      1  C   UNL     1      -2.068  11.983  20.161  0.00  0.00    +0.000 C 
ATOM      2  O   UNL     1      -3.018  12.243  19.431  0.00  0.00    +0.000 OA
ATOM      3  N   UNL     1      -1.162  10.957  19.874  0.00  0.00    +0.000 N 
ATOM      4  C   UNL     1      -1.201  10.294  18.562  0.00  0.00    +0.000 C 
ATOM      5  C   UNL     1       0.237  10.103  18.001  0.00  0.00    +0.000 C 
ATOM      6  N   UNL     1       1.014   9.394  19.023  0.00  0.00    +0.000 N 
ATOM      7  C   UNL     1       1.961   8.451  18.688  0.00  0.00    +0.000 A 
ATOM      8  C   UNL     1       2.196   7.410  19.577  0.00  0.00    +0.000 A 
ATOM      9  C   UNL     1       3.107   6.406  19.272  0.00  0.00    +0.000 A 
ATOM     10  C   UNL     1       3.811   6.440  18.086  0.00  0.00    +0.000 A 
ATOM     11  N   UNL     1       4.724   5.457  17.791  0.00  0.00    +0.000 N 
ATOM     12  C   UNL     1       5.525   4.761  18.799  0.00  0.00    +0.000 C 
ATOM     13  C   UNL     1       7.021   4.894  18.467  0.00  0.00    +0.000 C 
ATOM     14  O   UNL     1       7.304   4.480  17.120  0.00  0.00    +0.000 OA
ATOM     15  C   UNL     1       6.555   5.271  16.179  0.00  0.00    +0.000 C 
ATOM     16  C   UNL     1       5.043   5.126  16.402  0.00  0.00    +0.000 C 
ATOM     17  N   UNL     1       3.556   7.446  17.223  0.00  0.00    +0.000 NA
ATOM     18  N   UNL     1       2.618   8.449  17.520  0.00  0.00    +0.000 NA
ATOM     19  C   UNL     1       1.120  10.084  20.308  0.00  0.00    +0.000 C 
ATOM     20  C   UNL     1      -0.303  10.273  20.863  0.00  0.00    +0.000 C 
ENDROOT
BRANCH   1  24
ATOM     21  C   UNL     1      -1.190  14.268  23.690  0.00  0.00    +0.000 A 
ATOM     22  C   UNL     1      -0.422  14.377  22.540  0.00  0.00    +0.000 A 
ATOM     23  C   UNL     1      -0.740  13.691  21.366  0.00  0.00    +0.000 A 
ATOM     24  C   UNL     1      -1.837  12.832  21.360  0.00  0.00    +0.000 A 
ATOM     25  C   UNL     1      -2.602  12.706  22.527  0.00  0.00    +0.000 A 
ATOM     26  C   UNL     1      -2.308  13.446  23.686  0.00  0.00    +0.000 A 
BRANCH  21  27
ATOM     27  O   UNL     1      -0.858  14.919  24.859  0.00  0.00    +0.000 OA
BRANCH  27  28
ATOM     28  C   UNL     1      -1.938  15.654  25.445  0.00  0.00    +0.000 C 
BRANCH  28  29
ATOM     29  C   UNL     1      -1.996  17.061  24.877  0.00  0.00    +0.000 C 
BRANCH  29  31
ATOM     30  C   UNL     1      -4.465  16.600  24.872  0.00  0.00    +0.000 C 
ATOM     31  C   UNL     1      -3.327  17.315  24.166  0.00  0.00    +0.000 C 
ENDBRANCH  29  31
ENDBRANCH  28  29
ENDBRANCH  27  28
ENDBRANCH  21  27
ENDBRANCH   1  24
TORSDOF 5
ENDMDL
MODEL 6
REMARK VINA RESULT:      -7.1      1.239      1.405
REMARK  Name = 
REMARK  6 active torsions:
REMARK  status: ('A' for Active; 'I' for Inactive)
REMARK    1  A    between atoms: C_1  and  C_2
REMARK    2  A    between atoms: C_2  and  C_3
REMARK    3  A    between atoms: C_3  and  C_4
REMARK    4  A    between atoms: C_4  and  O_5
REMARK    5  A    between atoms: O_5  and  C_6
REMARK    6  A    between atoms: C_9  and  C_10
REMARK                            x       y       z     vdW  Elec       q    Type
REMARK                         _______ _______ _______ _____ _____    ______ ____
ROOT
ATOM      1  C   UNL     1       2.602   5.032  19.801  0.00  0.00    +0.000 C 
ATOM      2  O   UNL     1       2.275   4.164  20.604  0.00  0.00    +0.000 OA
ATOM      3  N   UNL     1       2.034   6.310  19.807  0.00  0.00    +0.000 N 
ATOM      4  C   UNL     1       1.173   6.722  20.926  0.00  0.00    +0.000 C 
ATOM      5  C   UNL     1       1.515   8.170  21.378  0.00  0.00    +0.000 C 
ATOM      6  N   UNL     1       1.431   9.029  20.192  0.00  0.00    +0.000 N 
ATOM      7  C   UNL     1       0.944  10.315  20.262  0.00  0.00    +0.000 A 
ATOM      8  C   UNL     1       0.307  10.840  19.145  0.00  0.00    +0.000 A 
ATOM      9  C   UNL     1      -0.243  12.117  19.174  0.00  0.00    +0.000 A 
ATOM     10  C   UNL     1      -0.145  12.893  20.310  0.00  0.00    +0.000 A 
ATOM     11  N   UNL     1      -0.674  14.160  20.334  0.00  0.00    +0.000 N 
ATOM     12  C   UNL     1      -0.738  15.037  19.164  0.00  0.00    +0.000 C 
ATOM     13  C   UNL     1      -0.041  16.374  19.468  0.00  0.00    +0.000 C 
ATOM     14  O   UNL     1      -0.550  16.977  20.668  0.00  0.00    +0.000 OA
ATOM     15  C   UNL     1      -0.366  16.099  21.794  0.00  0.00    +0.000 C 
ATOM     16  C   UNL     1      -1.103  14.767  21.594  0.00  0.00    +0.000 C 
ATOM     17  N   UNL     1       0.459  12.360  21.394  0.00  0.00    +0.000 NA
ATOM     18  N   UNL     1       0.994  11.063  21.374  0.00  0.00    +0.000 NA
ATOM     19  C   UNL     1       2.339   8.670  19.103  0.00  0.00    +0.000 C 
ATOM     20  C   UNL     1       2.001   7.237  18.657  0.00  0.00    +0.000 C 
ENDROOT
BRANCH   1  24
ATOM     21  C   UNL     1       5.731   4.432  16.922  0.00  0.00    +0.000 A 
ATOM     22  C   UNL     1       5.975   5.028  18.149  0.00  0.00    +0.000 A 
ATOM     23  C   UNL     1       4.979   5.165  19.120  0.00  0.00    +0.000 A 
ATOM     24  C   UNL     1       3.687   4.731  18.829  0.00  0.00    +0.000 A 
ATOM     25  C   UNL     1       3.436   4.146  17.582  0.00  0.00    +0.000 A 
ATOM     26  C   UNL     1       4.458   3.960  16.635  0.00  0.00    +0.000 A 
BRANCH  21  27
ATOM     27  O   UNL     1       6.704   4.326  15.952  0.00  0.00    +0.000 OA
BRANCH  27  28
ATOM     28  C   UNL     1       6.277   3.644  14.767  0.00  0.00    +0.000 C 
BRANCH  28  29
ATOM     29  C   UNL     1       6.649   4.441  13.529  0.00  0.00    +0.000 C 
BRANCH  29  31
ATOM     30  C   UNL     1       5.047   3.277  11.984  0.00  0.00    +0.000 C 
ATOM     31  C   UNL     1       6.506   3.594  12.263  0.00  0.00    +0.000 C 
ENDBRANCH  29  31
ENDBRANCH  28  29
ENDBRANCH  27  28
ENDBRANCH  21  27
ENDBRANCH   1  24
TORSDOF 5
ENDMDL
MODEL 7
REMARK VINA RESULT:      -7.0      3.163      4.951
REMARK  Name = 
REMARK  6 active torsions:
REMARK  status: ('A' for Active; 'I' for Inactive)
REMARK    1  A    between atoms: C_1  and  C_2
REMARK    2  A    between atoms: C_2  and  C_3
REMARK    3  A    between atoms: C_3  and  C_4
REMARK    4  A    between atoms: C_4  and  O_5
REMARK    5  A    between atoms: O_5  and  C_6
REMARK    6  A    between atoms: C_9  and  C_10
REMARK                            x       y       z     vdW  Elec       q    Type
REMARK                         _______ _______ _______ _____ _____    ______ ____
ROOT
ATOM      1  C   UNL     1       3.019   7.853  17.743  0.00  0.00    +0.000 C 
ATOM      2  O   UNL     1       3.666   8.307  16.806  0.00  0.00    +0.000 OA
ATOM      3  N   UNL     1       2.210   8.657  18.554  0.00  0.00    +0.000 N 
ATOM      4  C   UNL     1       1.941  10.049  18.166  0.00  0.00    +0.000 C 
ATOM      5  C   UNL     1       0.439  10.396  18.369  0.00  0.00    +0.000 C 
ATOM      6  N   UNL     1       0.100  10.071  19.760  0.00  0.00    +0.000 N 
ATOM      7  C   UNL     1      -0.772  10.845  20.493  0.00  0.00    +0.000 A 
ATOM      8  C   UNL     1      -0.594  10.913  21.868  0.00  0.00    +0.000 A 
ATOM      9  C   UNL     1      -1.417  11.714  22.653  0.00  0.00    +0.000 A 
ATOM     10  C   UNL     1      -2.441  12.438  22.077  0.00  0.00    +0.000 A 
ATOM     11  N   UNL     1      -3.264  13.215  22.853  0.00  0.00    +0.000 N 
ATOM     12  C   UNL     1      -3.632  12.888  24.232  0.00  0.00    +0.000 C 
ATOM     13  C   UNL     1      -5.162  12.840  24.372  0.00  0.00    +0.000 C 
ATOM     14  O   UNL     1      -5.778  14.043  23.883  0.00  0.00    +0.000 OA
ATOM     15  C   UNL     1      -5.451  14.251  22.496  0.00  0.00    +0.000 C 
ATOM     16  C   UNL     1      -3.936  14.386  22.289  0.00  0.00    +0.000 C 
ATOM     17  N   UNL     1      -2.586  12.377  20.736  0.00  0.00    +0.000 NA
ATOM     18  N   UNL     1      -1.741  11.587  19.940  0.00  0.00    +0.000 NA
ATOM     19  C   UNL     1       0.294   8.670  20.131  0.00  0.00    +0.000 C 
ATOM     20  C   UNL     1       1.780   8.326  19.928  0.00  0.00    +0.000 C 
ENDROOT
BRANCH   1  24
ATOM     21  C   UNL     1       3.225   3.588  18.195  0.00  0.00    +0.000 A 
ATOM     22  C   UNL     1       4.337   4.395  18.380  0.00  0.00    +0.000 A 
ATOM     23  C   UNL     1       4.265   5.787  18.303  0.00  0.00    +0.000 A 
ATOM     24  C   UNL     1       3.047   6.386  17.985  0.00  0.00    +0.000 A 
ATOM     25  C   UNL     1       1.928   5.570  17.779  0.00  0.00    +0.000 A 
ATOM     26  C   UNL     1       1.998   4.172  17.916  0.00  0.00    +0.000 A 
BRANCH  21  27
ATOM     27  O   UNL     1       3.301   2.212  18.238  0.00  0.00    +0.000 OA
BRANCH  27  28
ATOM     28  C   UNL     1       2.694   1.629  19.396  0.00  0.00    +0.000 C 
BRANCH  28  29
ATOM     29  C   UNL     1       3.219   2.284  20.661  0.00  0.00    +0.000 C 
BRANCH  29  31
ATOM     30  C   UNL     1       2.185   4.430  21.459  0.00  0.00    +0.000 C 
ATOM     31  C   UNL     1       2.083   2.915  21.469  0.00  0.00    +0.000 C 
ENDBRANCH  29  31
ENDBRANCH  28  29
ENDBRANCH  27  28
ENDBRANCH  21  27
ENDBRANCH   1  24
TORSDOF 5
ENDMDL
MODEL 8
REMARK VINA RESULT:      -7.0      2.304     11.853
REMARK  Name = 
REMARK  6 active torsions:
REMARK  status: ('A' for Active; 'I' for Inactive)
REMARK    1  A    between atoms: C_1  and  C_2
REMARK    2  A    between atoms: C_2  and  C_3
REMARK    3  A    between atoms: C_3  and  C_4
REMARK    4  A    between atoms: C_4  and  O_5
REMARK    5  A    between atoms: O_5  and  C_6
REMARK    6  A    between atoms: C_9  and  C_10
REMARK                            x       y       z     vdW  Elec       q    Type
REMARK                         _______ _______ _______ _____ _____    ______ ____
ROOT
ATOM      1  C   UNL     1      -2.039  11.882  20.294  0.00  0.00    +0.000 C 
ATOM      2  O   UNL     1      -2.947  12.232  19.548  0.00  0.00    +0.000 OA
ATOM      3  N   UNL     1      -1.130  10.877  19.948  0.00  0.00    +0.000 N 
ATOM      4  C   UNL     1      -1.106  10.356  18.573  0.00  0.00    +0.000 C 
ATOM      5  C   UNL     1       0.357  10.203  18.069  0.00  0.00    +0.000 C 
ATOM      6  N   UNL     1       1.073   9.378  19.050  0.00  0.00    +0.000 N 
ATOM      7  C   UNL     1       2.025   8.460  18.667  0.00  0.00    +0.000 A 
ATOM      8  C   UNL     1       2.203   7.329  19.453  0.00  0.00    +0.000 A 
ATOM      9  C   UNL     1       3.119   6.348  19.091  0.00  0.00    +0.000 A 
ATOM     10  C   UNL     1       3.885   6.494  17.953  0.00  0.00    +0.000 A 
ATOM     11  N   UNL     1       4.801   5.534  17.603  0.00  0.00    +0.000 N 
ATOM     12  C   UNL     1       5.542   4.724  18.573  0.00  0.00    +0.000 C 
ATOM     13  C   UNL     1       7.054   4.868  18.333  0.00  0.00    +0.000 C 
ATOM     14  O   UNL     1       7.404   4.592  16.967  0.00  0.00    +0.000 OA
ATOM     15  C   UNL     1       6.713   5.489  16.077  0.00  0.00    +0.000 C 
ATOM     16  C   UNL     1       5.190   5.345  16.206  0.00  0.00    +0.000 C 
ATOM     17  N   UNL     1       3.685   7.590  17.189  0.00  0.00    +0.000 NA
ATOM     18  N   UNL     1       2.744   8.570  17.541  0.00  0.00    +0.000 NA
ATOM     19  C   UNL     1       1.117   9.928  20.404  0.00  0.00    +0.000 C 
ATOM     20  C   UNL     1      -0.330  10.081  20.902  0.00  0.00    +0.000 C 
ENDROOT
BRANCH   1  24
ATOM     21  C   UNL     1      -1.742  14.111  23.953  0.00  0.00    +0.000 A 
ATOM     22  C   UNL     1      -2.734  13.163  23.756  0.00  0.00    +0.000 A 
ATOM     23  C   UNL     1      -2.798  12.384  22.598  0.00  0.00    +0.000 A 
ATOM     24  C   UNL     1      -1.863  12.598  21.586  0.00  0.00    +0.000 A 
ATOM     25  C   UNL     1      -0.873  13.569  21.777  0.00  0.00    +0.000 A 
ATOM     26  C   UNL     1      -0.781  14.307  22.971  0.00  0.00    +0.000 A 
BRANCH  21  27
ATOM     27  O   UNL     1      -1.697  14.903  25.081  0.00  0.00    +0.000 OA
BRANCH  27  28
ATOM     28  C   UNL     1      -2.557  16.047  25.026  0.00  0.00    +0.000 C 
BRANCH  28  29
ATOM     29  C   UNL     1      -1.899  17.240  25.696  0.00  0.00    +0.000 C 
BRANCH  29  31
ATOM     30  C   UNL     1       0.589  17.398  26.003  0.00  0.00    +0.000 C 
ATOM     31  C   UNL     1      -0.702  16.807  26.543  0.00  0.00    +0.000 C 
ENDBRANCH  29  31
ENDBRANCH  28  29
ENDBRANCH  27  28
ENDBRANCH  21  27
ENDBRANCH   1  24
TORSDOF 5
ENDMDL
MODEL 9
REMARK VINA RESULT:      -6.8      3.404      5.131
REMARK  Name = 
REMARK  6 active torsions:
REMARK  status: ('A' for Active; 'I' for Inactive)
REMARK    1  A    between atoms: C_1  and  C_2
REMARK    2  A    between atoms: C_2  and  C_3
REMARK    3  A    between atoms: C_3  and  C_4
REMARK    4  A    between atoms: C_4  and  O_5
REMARK    5  A    between atoms: O_5  and  C_6
REMARK    6  A    between atoms: C_9  and  C_10
REMARK                            x       y       z     vdW  Elec       q    Type
REMARK                         _______ _______ _______ _____ _____    ______ ____
ROOT
ATOM      1  C   UNL     1       2.275   8.201  18.498  0.00  0.00    +0.000 C 
ATOM      2  O   UNL     1       2.780   8.313  17.387  0.00  0.00    +0.000 OA
ATOM      3  N   UNL     1       1.446   9.185  19.048  0.00  0.00    +0.000 N 
ATOM      4  C   UNL     1       0.978  10.298  18.208  0.00  0.00    +0.000 C 
ATOM      5  C   UNL     1      -0.532  10.575  18.454  0.00  0.00    +0.000 C 
ATOM      6  N   UNL     1      -0.709  10.778  19.896  0.00  0.00    +0.000 N 
ATOM      7  C   UNL     1      -1.604  11.700  20.393  0.00  0.00    +0.000 A 
ATOM      8  C   UNL     1      -1.320  12.302  21.612  0.00  0.00    +0.000 A 
ATOM      9  C   UNL     1      -2.164  13.273  22.140  0.00  0.00    +0.000 A 
ATOM     10  C   UNL     1      -3.313  13.638  21.469  0.00  0.00    +0.000 A 
ATOM     11  N   UNL     1      -4.155  14.584  21.998  0.00  0.00    +0.000 N 
ATOM     12  C   UNL     1      -4.362  14.779  23.434  0.00  0.00    +0.000 C 
ATOM     13  C   UNL     1      -5.858  14.665  23.771  0.00  0.00    +0.000 C 
ATOM     14  O   UNL     1      -6.655  15.537  22.952  0.00  0.00    +0.000 OA
ATOM     15  C   UNL     1      -6.475  15.226  21.557  0.00  0.00    +0.000 C 
ATOM     16  C   UNL     1      -5.010  15.393  21.129  0.00  0.00    +0.000 C 
ATOM     17  N   UNL     1      -3.563  13.059  20.275  0.00  0.00    +0.000 NA
ATOM     18  N   UNL     1      -2.699  12.096  19.730  0.00  0.00    +0.000 NA
ATOM     19  C   UNL     1      -0.316   9.645  20.733  0.00  0.00    +0.000 C 
ATOM     20  C   UNL     1       1.178   9.370  20.489  0.00  0.00    +0.000 C 
ENDROOT
BRANCH   1  24
ATOM     21  C   UNL     1       2.912   4.434  20.461  0.00  0.00    +0.000 A 
ATOM     22  C   UNL     1       3.917   5.059  19.738  0.00  0.00    +0.000 A 
ATOM     23  C   UNL     1       3.741   6.315  19.155  0.00  0.00    +0.000 A 
ATOM     24  C   UNL     1       2.502   6.944  19.261  0.00  0.00    +0.000 A 
ATOM     25  C   UNL     1       1.480   6.305  19.974  0.00  0.00    +0.000 A 
ATOM     26  C   UNL     1       1.685   5.066  20.608  0.00  0.00    +0.000 A 
BRANCH  21  27
ATOM     27  O   UNL     1       3.073   3.180  21.009  0.00  0.00    +0.000 OA
BRANCH  27  28
ATOM     28  C   UNL     1       3.548   2.194  20.084  0.00  0.00    +0.000 C 
BRANCH  28  29
ATOM     29  C   UNL     1       2.452   1.811  19.105  0.00  0.00    +0.000 C 
BRANCH  29  31
ATOM     30  C   UNL     1       2.255   3.387  17.159  0.00  0.00    +0.000 C 
ATOM     31  C   UNL     1       2.875   2.095  17.663  0.00  0.00    +0.000 C 
ENDBRANCH  29  31
ENDBRANCH  28  29
ENDBRANCH  27  28
ENDBRANCH  21  27
ENDBRANCH   1  24
TORSDOF 5
ENDMDL
