MODEL 1
REMARK VINA RESULT:      -6.9      0.000      0.000
REMARK  Name = 
REMARK  13 active torsions:
REMARK  status: ('A' for Active; 'I' for Inactive)
REMARK    1  A    between atoms: C_2  and  C_3
REMARK    2  A    between atoms: C_3  and  O_4
REMARK    3  A    between atoms: O_4  and  C_5
REMARK    4  A    between atoms: C_8  and  C_9
REMARK    5  A    between atoms: C_9  and  C_11
REMARK    6  A    between atoms: C_12  and  C_13
REMARK    7  A    between atoms: C_15  and  O_16
REMARK    8  A    between atoms: O_16  and  C_17
REMARK    9  A    between atoms: C_18  and  O_19
REMARK   10  A    between atoms: O_19  and  C_20
REMARK   11  A    between atoms: C_22  and  O_23
REMARK   12  A    between atoms: O_23  and  C_24
REMARK   13  A    between atoms: C_25  and  O_26
REMARK                            x       y       z     vdW  Elec       q    Type
REMARK                         _______ _______ _______ _____ _____    ______ ____
ROOT
ATOM      1  C   UNL     1       1.655   9.528  18.462  0.00  0.00    +0.000 C 
ATOM      2  O   UNL     1       2.099  10.315  17.634  0.00  0.00    +0.000 OA
ENDROOT
BRANCH   1   6
ATOM      3  C   UNL     1      -0.668  10.843  21.861  0.00  0.00    +0.000 A 
ATOM      4  C   UNL     1       0.214   9.764  21.951  0.00  0.00    +0.000 A 
ATOM      5  C   UNL     1       0.951   9.346  20.834  0.00  0.00    +0.000 A 
ATOM      6  C   UNL     1       0.852  10.032  19.615  0.00  0.00    +0.000 A 
ATOM      7  C   UNL     1      -0.039  11.108  19.535  0.00  0.00    +0.000 A 
ATOM      8  C   UNL     1      -0.799  11.509  20.640  0.00  0.00    +0.000 A 
BRANCH   7   9
ATOM      9  O   UNL     1      -0.208  11.819  18.380  0.00  0.00    +0.000 OA
ATOM     10  H   UNL     1       0.501  12.488  18.353  0.00  0.00    +0.000 HD
ENDBRANCH   7   9
BRANCH   3  11
ATOM     11  O   UNL     1      -1.296  11.197  23.025  0.00  0.00    +0.000 OA
BRANCH  11  12
ATOM     12  C   UNL     1      -1.890  12.494  23.050  0.00  0.00    +0.000 C 
BRANCH  12  14
ATOM     13  C   UNL     1      -3.950  12.854  24.446  0.00  0.00    +0.000 C 
ATOM     14  C   UNL     1      -3.353  12.357  23.353  0.00  0.00    +0.000 C 
ENDBRANCH  12  14
ENDBRANCH  11  12
ENDBRANCH   3  11
ENDBRANCH   1   6
BRANCH   1  15
ATOM     15  C   UNL     1       1.882   8.062  18.337  0.00  0.00    +0.000 C 
ATOM     16  C   UNL     1       3.084   7.588  17.972  0.00  0.00    +0.000 C 
BRANCH  16  17
ATOM     17  C   UNL     1       3.344   6.143  17.914  0.00  0.00    +0.000 A 
ATOM     18  C   UNL     1       2.204   5.314  17.971  0.00  0.00    +0.000 A 
ATOM     19  C   UNL     1       2.286   3.916  17.869  0.00  0.00    +0.000 A 
ATOM     20  C   UNL     1       3.543   3.331  17.671  0.00  0.00    +0.000 A 
ATOM     21  C   UNL     1       4.680   4.162  17.607  0.00  0.00    +0.000 A 
ATOM     22  C   UNL     1       4.599   5.554  17.745  0.00  0.00    +0.000 A 
BRANCH  19  23
ATOM     23  O   UNL     1       1.189   3.099  17.942  0.00  0.00    +0.000 OA
ATOM     24  C   UNL     1       0.619   2.834  19.216  0.00  0.00    +0.000 C 
ENDBRANCH  19  23
BRANCH  20  25
ATOM     25  O   UNL     1       3.858   2.008  17.507  0.00  0.00    +0.000 OA
ATOM     26  C   UNL     1       3.867   1.153  18.642  0.00  0.00    +0.000 C 
ENDBRANCH  20  25
BRANCH  22  27
ATOM     27  O   UNL     1       5.812   6.179  17.611  0.00  0.00    +0.000 OA
ATOM     28  C   UNL     1       6.909   5.643  18.340  0.00  0.00    +0.000 C 
ENDBRANCH  22  27
ENDBRANCH  16  17
ENDBRANCH   1  15
TORSDOF 10
ENDMDL
MODEL 2
REMARK VINA RESULT:      -6.8      2.701      3.195
REMARK  Name = 
REMARK  13 active torsions:
REMARK  status: ('A' for Active; 'I' for Inactive)
REMARK    1  A    between atoms: C_2  and  C_3
REMARK    2  A    between atoms: C_3  and  O_4
REMARK    3  A    between atoms: O_4  and  C_5
REMARK    4  A    between atoms: C_8  and  C_9
REMARK    5  A    between atoms: C_9  and  C_11
REMARK    6  A    between atoms: C_12  and  C_13
REMARK    7  A    between atoms: C_15  and  O_16
REMARK    8  A    between atoms: O_16  and  C_17
REMARK    9  A    between atoms: C_18  and  O_19
REMARK   10  A    between atoms: O_19  and  C_20
REMARK   11  A    between atoms: C_22  and  O_23
REMARK   12  A    between atoms: O_23  and  C_24
REMARK   13  A    between atoms: C_25  and  O_26
REMARK                            x       y       z     vdW  Elec       q    Type
REMARK                         _______ _______ _______ _____ _____    ______ ____
ROOT
ATOM      1  C   UNL     1       1.437  10.095  18.250  0.00  0.00    +0.000 C 
ATOM      2  O   UNL     1       2.289  10.914  17.924  0.00  0.00    +0.000 OA
ENDROOT
BRANCH   1   6
ATOM      3  C   UNL     1      -2.733  11.221  18.382  0.00  0.00    +0.000 A 
ATOM      4  C   UNL     1      -2.294  10.130  17.630  0.00  0.00    +0.000 A 
ATOM      5  C   UNL     1      -0.935   9.786  17.592  0.00  0.00    +0.000 A 
ATOM      6  C   UNL     1       0.005  10.505  18.345  0.00  0.00    +0.000 A 
ATOM      7  C   UNL     1      -0.446  11.601  19.089  0.00  0.00    +0.000 A 
ATOM      8  C   UNL     1      -1.797  11.964  19.106  0.00  0.00    +0.000 A 
BRANCH   7   9
ATOM      9  O   UNL     1       0.407  12.363  19.836  0.00  0.00    +0.000 OA
ATOM     10  H   UNL     1       0.872  12.956  19.219  0.00  0.00    +0.000 HD
ENDBRANCH   7   9
BRANCH   3  11
ATOM     11  O   UNL     1      -4.086  11.433  18.389  0.00  0.00    +0.000 OA
BRANCH  11  12
ATOM     12  C   UNL     1      -4.673  11.781  17.136  0.00  0.00    +0.000 C 
BRANCH  12  14
ATOM     13  C   UNL     1      -6.584  13.412  17.034  0.00  0.00    +0.000 C 
ATOM     14  C   UNL     1      -6.093  12.208  17.362  0.00  0.00    +0.000 C 
ENDBRANCH  12  14
ENDBRANCH  11  12
ENDBRANCH   3  11
ENDBRANCH   1   6
BRANCH   1  15
ATOM     15  C   UNL     1       1.794   8.678  18.538  0.00  0.00    +0.000 C 
ATOM     16  C   UNL     1       2.721   8.046  17.799  0.00  0.00    +0.000 C 
BRANCH  16  17
ATOM     17  C   UNL     1       3.135   6.672  18.116  0.00  0.00    +0.000 A 
ATOM     18  C   UNL     1       2.299   5.973  19.011  0.00  0.00    +0.000 A 
ATOM     19  C   UNL     1       2.531   4.634  19.366  0.00  0.00    +0.000 A 
ATOM     20  C   UNL     1       3.614   3.965  18.782  0.00  0.00    +0.000 A 
ATOM     21  C   UNL     1       4.444   4.663  17.883  0.00  0.00    +0.000 A 
ATOM     22  C   UNL     1       4.230   6.010  17.558  0.00  0.00    +0.000 A 
BRANCH  19  23
ATOM     23  O   UNL     1       1.739   3.949  20.248  0.00  0.00    +0.000 OA
ATOM     24  C   UNL     1       2.224   3.714  21.562  0.00  0.00    +0.000 C 
ENDBRANCH  19  23
BRANCH  20  25
ATOM     25  O   UNL     1       4.008   2.662  18.946  0.00  0.00    +0.000 OA
ATOM     26  C   UNL     1       3.483   1.666  18.079  0.00  0.00    +0.000 C 
ENDBRANCH  20  25
BRANCH  22  27
ATOM     27  O   UNL     1       5.124   6.489  16.635  0.00  0.00    +0.000 OA
ATOM     28  C   UNL     1       6.421   5.908  16.616  0.00  0.00    +0.000 C 
ENDBRANCH  22  27
ENDBRANCH  16  17
ENDBRANCH   1  15
TORSDOF 10
ENDMDL
MODEL 3
REMARK VINA RESULT:      -6.7      2.343      4.424
REMARK  Name = 
REMARK  13 active torsions:
REMARK  status: ('A' for Active; 'I' for Inactive)
REMARK    1  A    between atoms: C_2  and  C_3
REMARK    2  A    between atoms: C_3  and  O_4
REMARK    3  A    between atoms: O_4  and  C_5
REMARK    4  A    between atoms: C_8  and  C_9
REMARK    5  A    between atoms: C_9  and  C_11
REMARK    6  A    between atoms: C_12  and  C_13
REMARK    7  A    between atoms: C_15  and  O_16
REMARK    8  A    between atoms: O_16  and  C_17
REMARK    9  A    between atoms: C_18  and  O_19
REMARK   10  A    between atoms: O_19  and  C_20
REMARK   11  A    between atoms: C_22  and  O_23
REMARK   12  A    between atoms: O_23  and  C_24
REMARK   13  A    between atoms: C_25  and  O_26
REMARK                            x       y       z     vdW  Elec       q    Type
REMARK                         _______ _______ _______ _____ _____    ______ ____
ROOT
ATOM      1  C   UNL     1       1.716   7.670  20.108  0.00  0.00    +0.000 C 
ATOM      2  O   UNL     1       1.417   6.900  21.013  0.00  0.00    +0.000 OA
ENDROOT
BRANCH   1   6
ATOM      3  C   UNL     1       0.162  11.698  19.918  0.00  0.00    +0.000 A 
ATOM      4  C   UNL     1       0.337  10.926  18.767  0.00  0.00    +0.000 A 
ATOM      5  C   UNL     1       0.851   9.625  18.848  0.00  0.00    +0.000 A 
ATOM      6  C   UNL     1       1.160   9.056  20.093  0.00  0.00    +0.000 A 
ATOM      7  C   UNL     1       0.988   9.841  21.238  0.00  0.00    +0.000 A 
ATOM      8  C   UNL     1       0.502  11.151  21.157  0.00  0.00    +0.000 A 
BRANCH   7   9
ATOM      9  O   UNL     1       1.281   9.367  22.486  0.00  0.00    +0.000 OA
ATOM     10  H   UNL     1       2.179   8.991  22.443  0.00  0.00    +0.000 HD
ENDBRANCH   7   9
BRANCH   3  11
ATOM     11  O   UNL     1      -0.396  12.934  19.726  0.00  0.00    +0.000 OA
BRANCH  11  12
ATOM     12  C   UNL     1       0.185  13.733  18.697  0.00  0.00    +0.000 C 
BRANCH  12  14
ATOM     13  C   UNL     1       2.031  15.436  18.589  0.00  0.00    +0.000 C 
ATOM     14  C   UNL     1       1.272  14.580  19.288  0.00  0.00    +0.000 C 
ENDBRANCH  12  14
ENDBRANCH  11  12
ENDBRANCH   3  11
ENDBRANCH   1   6
BRANCH   1  15
ATOM     15  C   UNL     1       2.647   7.263  19.020  0.00  0.00    +0.000 C 
ATOM     16  C   UNL     1       3.289   6.085  19.079  0.00  0.00    +0.000 C 
BRANCH  16  17
ATOM     17  C   UNL     1       4.155   5.637  17.980  0.00  0.00    +0.000 A 
ATOM     18  C   UNL     1       5.352   6.363  17.810  0.00  0.00    +0.000 A 
ATOM     19  C   UNL     1       6.308   6.019  16.840  0.00  0.00    +0.000 A 
ATOM     20  C   UNL     1       6.075   4.895  16.039  0.00  0.00    +0.000 A 
ATOM     21  C   UNL     1       4.882   4.167  16.215  0.00  0.00    +0.000 A 
ATOM     22  C   UNL     1       3.913   4.533  17.159  0.00  0.00    +0.000 A 
BRANCH  19  23
ATOM     23  O   UNL     1       7.465   6.728  16.652  0.00  0.00    +0.000 OA
ATOM     24  C   UNL     1       7.734   7.834  17.502  0.00  0.00    +0.000 C 
ENDBRANCH  19  23
BRANCH  20  25
ATOM     25  O   UNL     1       6.873   4.354  15.065  0.00  0.00    +0.000 OA
ATOM     26  C   UNL     1       6.284   3.934  13.842  0.00  0.00    +0.000 C 
ENDBRANCH  20  25
BRANCH  22  27
ATOM     27  O   UNL     1       2.848   3.671  17.200  0.00  0.00    +0.000 OA
ATOM     28  C   UNL     1       3.033   2.432  17.874  0.00  0.00    +0.000 C 
ENDBRANCH  22  27
ENDBRANCH  16  17
ENDBRANCH   1  15
TORSDOF 10
ENDMDL
MODEL 4
REMARK VINA RESULT:      -6.6      1.200      2.405
REMARK  Name = 
REMARK  13 active torsions:
REMARK  status: ('A' for Active; 'I' for Inactive)
REMARK    1  A    between atoms: C_2  and  C_3
REMARK    2  A    between atoms: C_3  and  O_4
REMARK    3  A    between atoms: O_4  and  C_5
REMARK    4  A    between atoms: C_8  and  C_9
REMARK    5  A    between atoms: C_9  and  C_11
REMARK    6  A    between atoms: C_12  and  C_13
REMARK    7  A    between atoms: C_15  and  O_16
REMARK    8  A    between atoms: O_16  and  C_17
REMARK    9  A    between atoms: C_18  and  O_19
REMARK   10  A    between atoms: O_19  and  C_20
REMARK   11  A    between atoms: C_22  and  O_23
REMARK   12  A    between atoms: O_23  and  C_24
REMARK   13  A    between atoms: C_25  and  O_26
REMARK                            x       y       z     vdW  Elec       q    Type
REMARK                         _______ _______ _______ _____ _____    ______ ____
ROOT
ATOM      1  C   UNL     1       1.802   9.753  18.130  0.00  0.00    +0.000 C 
ATOM      2  O   UNL     1       2.358  10.571  17.407  0.00  0.00    +0.000 OA
ENDROOT
BRANCH   1   6
ATOM      3  C   UNL     1      -0.726  10.953  21.424  0.00  0.00    +0.000 A 
ATOM      4  C   UNL     1       0.119   9.844  21.517  0.00  0.00    +0.000 A 
ATOM      5  C   UNL     1       0.925   9.465  20.433  0.00  0.00    +0.000 A 
ATOM      6  C   UNL     1       0.930  10.219  19.250  0.00  0.00    +0.000 A 
ATOM      7  C   UNL     1       0.075  11.322  19.167  0.00  0.00    +0.000 A 
ATOM      8  C   UNL     1      -0.752  11.686  20.236  0.00  0.00    +0.000 A 
BRANCH   7   9
ATOM      9  O   UNL     1       0.008  12.099  18.044  0.00  0.00    +0.000 OA
ATOM     10  H   UNL     1       0.078  11.498  17.280  0.00  0.00    +0.000 HD
ENDBRANCH   7   9
BRANCH   3  11
ATOM     11  O   UNL     1      -1.427  11.262  22.560  0.00  0.00    +0.000 OA
BRANCH  11  12
ATOM     12  C   UNL     1      -1.223  12.572  23.087  0.00  0.00    +0.000 C 
BRANCH  12  14
ATOM     13  C   UNL     1      -3.668  12.535  23.675  0.00  0.00    +0.000 C 
ATOM     14  C   UNL     1      -2.556  13.209  23.344  0.00  0.00    +0.000 C 
ENDBRANCH  12  14
ENDBRANCH  11  12
ENDBRANCH   3  11
ENDBRANCH   1   6
BRANCH   1  15
ATOM     15  C   UNL     1       1.957   8.289  17.908  0.00  0.00    +0.000 C 
ATOM     16  C   UNL     1       3.163   7.709  18.017  0.00  0.00    +0.000 C 
BRANCH  16  17
ATOM     17  C   UNL     1       3.321   6.255  17.872  0.00  0.00    +0.000 A 
ATOM     18  C   UNL     1       4.314   5.837  16.961  0.00  0.00    +0.000 A 
ATOM     19  C   UNL     1       4.622   4.481  16.757  0.00  0.00    +0.000 A 
ATOM     20  C   UNL     1       3.940   3.518  17.510  0.00  0.00    +0.000 A 
ATOM     21  C   UNL     1       2.953   3.939  18.424  0.00  0.00    +0.000 A 
ATOM     22  C   UNL     1       2.624   5.290  18.601  0.00  0.00    +0.000 A 
BRANCH  19  23
ATOM     23  O   UNL     1       5.569   4.061  15.862  0.00  0.00    +0.000 OA
ATOM     24  C   UNL     1       6.897   4.549  15.993  0.00  0.00    +0.000 C 
ENDBRANCH  19  23
BRANCH  20  25
ATOM     25  O   UNL     1       4.097   2.157  17.508  0.00  0.00    +0.000 OA
ATOM     26  C   UNL     1       3.609   1.402  18.609  0.00  0.00    +0.000 C 
ENDBRANCH  20  25
BRANCH  22  27
ATOM     27  O   UNL     1       1.670   5.489  19.565  0.00  0.00    +0.000 OA
ATOM     28  C   UNL     1       1.977   5.067  20.888  0.00  0.00    +0.000 C 
ENDBRANCH  22  27
ENDBRANCH  16  17
ENDBRANCH   1  15
TORSDOF 10
ENDMDL
MODEL 5
REMARK VINA RESULT:      -6.6      2.432      4.531
REMARK  Name = 
REMARK  13 active torsions:
REMARK  status: ('A' for Active; 'I' for Inactive)
REMARK    1  A    between atoms: C_2  and  C_3
REMARK    2  A    between atoms: C_3  and  O_4
REMARK    3  A    between atoms: O_4  and  C_5
REMARK    4  A    between atoms: C_8  and  C_9
REMARK    5  A    between atoms: C_9  and  C_11
REMARK    6  A    between atoms: C_12  and  C_13
REMARK    7  A    between atoms: C_15  and  O_16
REMARK    8  A    between atoms: O_16  and  C_17
REMARK    9  A    between atoms: C_18  and  O_19
REMARK   10  A    between atoms: O_19  and  C_20
REMARK   11  A    between atoms: C_22  and  O_23
REMARK   12  A    between atoms: O_23  and  C_24
REMARK   13  A    between atoms: C_25  and  O_26
REMARK                            x       y       z     vdW  Elec       q    Type
REMARK                         _______ _______ _______ _____ _____    ______ ____
ROOT
ATOM      1  C   UNL     1       1.362   8.565  20.264  0.00  0.00    +0.000 C 
ATOM      2  O   UNL     1       1.396   8.431  21.481  0.00  0.00    +0.000 OA
ENDROOT
BRANCH   1   6
ATOM      3  C   UNL     1      -1.539  11.113  18.322  0.00  0.00    +0.000 A 
ATOM      4  C   UNL     1      -0.783  10.185  17.602  0.00  0.00    +0.000 A 
ATOM      5  C   UNL     1       0.161   9.375  18.249  0.00  0.00    +0.000 A 
ATOM      6  C   UNL     1       0.332   9.448  19.639  0.00  0.00    +0.000 A 
ATOM      7  C   UNL     1      -0.427  10.386  20.349  0.00  0.00    +0.000 A 
ATOM      8  C   UNL     1      -1.348  11.217  19.702  0.00  0.00    +0.000 A 
BRANCH   7   9
ATOM      9  O   UNL     1      -0.308  10.532  21.702  0.00  0.00    +0.000 OA
ATOM     10  H   UNL     1      -0.208  11.486  21.876  0.00  0.00    +0.000 HD
ENDBRANCH   7   9
BRANCH   3  11
ATOM     11  O   UNL     1      -2.467  11.814  17.597  0.00  0.00    +0.000 OA
BRANCH  11  12
ATOM     12  C   UNL     1      -3.640  11.097  17.218  0.00  0.00    +0.000 C 
BRANCH  12  14
ATOM     13  C   UNL     1      -3.151  10.212  14.916  0.00  0.00    +0.000 C 
ATOM     14  C   UNL     1      -3.753  11.098  15.722  0.00  0.00    +0.000 C 
ENDBRANCH  12  14
ENDBRANCH  11  12
ENDBRANCH   3  11
ENDBRANCH   1   6
BRANCH   1  15
ATOM     15  C   UNL     1       2.345   7.880  19.380  0.00  0.00    +0.000 C 
ATOM     16  C   UNL     1       2.540   6.555  19.479  0.00  0.00    +0.000 C 
BRANCH  16  17
ATOM     17  C   UNL     1       3.453   5.853  18.567  0.00  0.00    +0.000 A 
ATOM     18  C   UNL     1       4.450   6.650  17.966  0.00  0.00    +0.000 A 
ATOM     19  C   UNL     1       5.431   6.113  17.116  0.00  0.00    +0.000 A 
ATOM     20  C   UNL     1       5.434   4.732  16.887  0.00  0.00    +0.000 A 
ATOM     21  C   UNL     1       4.442   3.936  17.493  0.00  0.00    +0.000 A 
ATOM     22  C   UNL     1       3.443   4.480  18.312  0.00  0.00    +0.000 A 
BRANCH  19  23
ATOM     23  O   UNL     1       6.391   6.879  16.512  0.00  0.00    +0.000 OA
ATOM     24  C   UNL     1       7.437   7.417  17.309  0.00  0.00    +0.000 C 
ENDBRANCH  19  23
BRANCH  20  25
ATOM     25  O   UNL     1       6.306   3.989  16.134  0.00  0.00    +0.000 OA
ATOM     26  C   UNL     1       6.114   3.912  14.728  0.00  0.00    +0.000 C 
ENDBRANCH  20  25
BRANCH  22  27
ATOM     27  O   UNL     1       2.602   3.532  18.836  0.00  0.00    +0.000 OA
ATOM     28  C   UNL     1       1.359   3.323  18.177  0.00  0.00    +0.000 C 
ENDBRANCH  22  27
ENDBRANCH  16  17
ENDBRANCH   1  15
TORSDOF 10
ENDMDL
MODEL 6
REMARK VINA RESULT:      -6.6      2.532      3.935
REMARK  Name = 
REMARK  13 active torsions:
REMARK  status: ('A' for Active; 'I' for Inactive)
REMARK    1  A    between atoms: C_2  and  C_3
REMARK    2  A    between atoms: C_3  and  O_4
REMARK    3  A    between atoms: O_4  and  C_5
REMARK    4  A    between atoms: C_8  and  C_9
REMARK    5  A    between atoms: C_9  and  C_11
REMARK    6  A    between atoms: C_12  and  C_13
REMARK    7  A    between atoms: C_15  and  O_16
REMARK    8  A    between atoms: O_16  and  C_17
REMARK    9  A    between atoms: C_18  and  O_19
REMARK   10  A    between atoms: O_19  and  C_20
REMARK   11  A    between atoms: C_22  and  O_23
REMARK   12  A    between atoms: O_23  and  C_24
REMARK   13  A    between atoms: C_25  and  O_26
REMARK                            x       y       z     vdW  Elec       q    Type
REMARK                         _______ _______ _______ _____ _____    ______ ____
ROOT
ATOM      1  C   UNL     1       0.881   9.495  21.186  0.00  0.00    +0.000 C 
ATOM      2  O   UNL     1       1.222  10.122  22.182  0.00  0.00    +0.000 OA
ENDROOT
BRANCH   1   6
ATOM      3  C   UNL     1      -1.778  11.229  18.253  0.00  0.00    +0.000 A 
ATOM      4  C   UNL     1      -0.838  10.257  17.904  0.00  0.00    +0.000 A 
ATOM      5  C   UNL     1       0.023   9.714  18.869  0.00  0.00    +0.000 A 
ATOM      6  C   UNL     1      -0.074  10.104  20.212  0.00  0.00    +0.000 A 
ATOM      7  C   UNL     1      -1.014  11.083  20.549  0.00  0.00    +0.000 A 
ATOM      8  C   UNL     1      -1.855  11.649  19.583  0.00  0.00    +0.000 A 
BRANCH   7   9
ATOM      9  O   UNL     1      -1.161  11.530  21.832  0.00  0.00    +0.000 OA
ATOM     10  H   UNL     1      -2.117  11.637  21.987  0.00  0.00    +0.000 HD
ENDBRANCH   7   9
BRANCH   3  11
ATOM     11  O   UNL     1      -2.600  11.651  17.242  0.00  0.00    +0.000 OA
BRANCH  11  12
ATOM     12  C   UNL     1      -3.374  10.640  16.599  0.00  0.00    +0.000 C 
BRANCH  12  14
ATOM     13  C   UNL     1      -3.700  10.074  14.171  0.00  0.00    +0.000 C 
ATOM     14  C   UNL     1      -2.924  10.511  15.174  0.00  0.00    +0.000 C 
ENDBRANCH  12  14
ENDBRANCH  11  12
ENDBRANCH   3  11
ENDBRANCH   1   6
BRANCH   1  15
ATOM     15  C   UNL     1       1.414   8.133  20.907  0.00  0.00    +0.000 C 
ATOM     16  C   UNL     1       2.095   7.888  19.776  0.00  0.00    +0.000 C 
BRANCH  16  17
ATOM     17  C   UNL     1       2.688   6.569  19.519  0.00  0.00    +0.000 A 
ATOM     18  C   UNL     1       2.368   5.562  20.454  0.00  0.00    +0.000 A 
ATOM     19  C   UNL     1       2.812   4.237  20.312  0.00  0.00    +0.000 A 
ATOM     20  C   UNL     1       3.571   3.902  19.185  0.00  0.00    +0.000 A 
ATOM     21  C   UNL     1       3.885   4.908  18.249  0.00  0.00    +0.000 A 
ATOM     22  C   UNL     1       3.470   6.237  18.410  0.00  0.00    +0.000 A 
BRANCH  19  23
ATOM     23  O   UNL     1       2.524   3.255  21.222  0.00  0.00    +0.000 OA
ATOM     24  C   UNL     1       1.210   2.717  21.253  0.00  0.00    +0.000 C 
ENDBRANCH  19  23
BRANCH  20  25
ATOM     25  O   UNL     1       4.076   2.681  18.821  0.00  0.00    +0.000 OA
ATOM     26  C   UNL     1       3.292   1.825  18.001  0.00  0.00    +0.000 C 
ENDBRANCH  20  25
BRANCH  22  27
ATOM     27  O   UNL     1       3.843   7.047  17.370  0.00  0.00    +0.000 OA
ATOM     28  C   UNL     1       4.895   6.592  16.529  0.00  0.00    +0.000 C 
ENDBRANCH  22  27
ENDBRANCH  16  17
ENDBRANCH   1  15
TORSDOF 10
ENDMDL
MODEL 7
REMARK VINA RESULT:      -6.6      1.720      8.943
REMARK  Name = 
REMARK  13 active torsions:
REMARK  status: ('A' for Active; 'I' for Inactive)
REMARK    1  A    between atoms: C_2  and  C_3
REMARK    2  A    between atoms: C_3  and  O_4
REMARK    3  A    between atoms: O_4  and  C_5
REMARK    4  A    between atoms: C_8  and  C_9
REMARK    5  A    between atoms: C_9  and  C_11
REMARK    6  A    between atoms: C_12  and  C_13
REMARK    7  A    between atoms: C_15  and  O_16
REMARK    8  A    between atoms: O_16  and  C_17
REMARK    9  A    between atoms: C_18  and  O_19
REMARK   10  A    between atoms: O_19  and  C_20
REMARK   11  A    between atoms: C_22  and  O_23
REMARK   12  A    between atoms: O_23  and  C_24
REMARK   13  A    between atoms: C_25  and  O_26
REMARK                            x       y       z     vdW  Elec       q    Type
REMARK                         _______ _______ _______ _____ _____    ______ ____
ROOT
ATOM      1  C   UNL     1       2.484   8.218  17.974  0.00  0.00    +0.000 C 
ATOM      2  O   UNL     1       2.688   8.687  16.860  0.00  0.00    +0.000 OA
ENDROOT
BRANCH   1   6
ATOM      3  C   UNL     1       4.331   4.536  19.281  0.00  0.00    +0.000 A 
ATOM      4  C   UNL     1       3.254   5.099  19.970  0.00  0.00    +0.000 A 
ATOM      5  C   UNL     1       2.675   6.300  19.536  0.00  0.00    +0.000 A 
ATOM      6  C   UNL     1       3.137   6.936  18.374  0.00  0.00    +0.000 A 
ATOM      7  C   UNL     1       4.220   6.366  17.697  0.00  0.00    +0.000 A 
ATOM      8  C   UNL     1       4.819   5.183  18.144  0.00  0.00    +0.000 A 
BRANCH   7   9
ATOM      9  O   UNL     1       4.741   6.932  16.567  0.00  0.00    +0.000 OA
ATOM     10  H   UNL     1       5.565   7.380  16.828  0.00  0.00    +0.000 HD
ENDBRANCH   7   9
BRANCH   3  11
ATOM     11  O   UNL     1       4.783   3.336  19.764  0.00  0.00    +0.000 OA
BRANCH  11  12
ATOM     12  C   UNL     1       3.811   2.299  19.879  0.00  0.00    +0.000 C 
BRANCH  12  14
ATOM     13  C   UNL     1       2.421   2.068  17.796  0.00  0.00    +0.000 C 
ATOM     14  C   UNL     1       3.510   1.755  18.514  0.00  0.00    +0.000 C 
ENDBRANCH  12  14
ENDBRANCH  11  12
ENDBRANCH   3  11
ENDBRANCH   1   6
BRANCH   1  15
ATOM     15  C   UNL     1       1.608   8.911  18.959  0.00  0.00    +0.000 C 
ATOM     16  C   UNL     1       0.875   9.973  18.587  0.00  0.00    +0.000 C 
BRANCH  16  17
ATOM     17  C   UNL     1      -0.048  10.623  19.528  0.00  0.00    +0.000 A 
ATOM     18  C   UNL     1       0.193  10.369  20.894  0.00  0.00    +0.000 A 
ATOM     19  C   UNL     1      -0.568  10.965  21.914  0.00  0.00    +0.000 A 
ATOM     20  C   UNL     1      -1.577  11.866  21.557  0.00  0.00    +0.000 A 
ATOM     21  C   UNL     1      -1.812  12.124  20.192  0.00  0.00    +0.000 A 
ATOM     22  C   UNL     1      -1.075  11.502  19.175  0.00  0.00    +0.000 A 
BRANCH  19  23
ATOM     23  O   UNL     1      -0.357  10.712  23.243  0.00  0.00    +0.000 OA
ATOM     24  C   UNL     1       0.068   9.413  23.632  0.00  0.00    +0.000 C 
ENDBRANCH  19  23
BRANCH  20  25
ATOM     25  O   UNL     1      -2.412  12.587  22.371  0.00  0.00    +0.000 OA
ATOM     26  C   UNL     1      -2.205  13.986  22.508  0.00  0.00    +0.000 C 
ENDBRANCH  20  25
BRANCH  22  27
ATOM     27  O   UNL     1      -1.431  11.920  17.919  0.00  0.00    +0.000 OA
ATOM     28  C   UNL     1      -2.474  11.209  17.263  0.00  0.00    +0.000 C 
ENDBRANCH  22  27
ENDBRANCH  16  17
ENDBRANCH   1  15
TORSDOF 10
ENDMDL
MODEL 8
REMARK VINA RESULT:      -6.6      2.825      4.102
REMARK  Name = 
REMARK  13 active torsions:
REMARK  status: ('A' for Active; 'I' for Inactive)
REMARK    1  A    between atoms: C_2  and  C_3
REMARK    2  A    between atoms: C_3  and  O_4
REMARK    3  A    between atoms: O_4  and  C_5
REMARK    4  A    between atoms: C_8  and  C_9
REMARK    5  A    between atoms: C_9  and  C_11
REMARK    6  A    between atoms: C_12  and  C_13
REMARK    7  A    between atoms: C_15  and  O_16
REMARK    8  A    between atoms: O_16  and  C_17
REMARK    9  A    between atoms: C_18  and  O_19
REMARK   10  A    between atoms: O_19  and  C_20
REMARK   11  A    between atoms: C_22  and  O_23
REMARK   12  A    between atoms: O_23  and  C_24
REMARK   13  A    between atoms: C_25  and  O_26
REMARK                            x       y       z     vdW  Elec       q    Type
REMARK                         _______ _______ _______ _____ _____    ______ ____
ROOT
ATOM      1  C   UNL     1       0.714  10.481  18.980  0.00  0.00    +0.000 C 
ATOM      2  O   UNL     1       1.292  11.324  19.656  0.00  0.00    +0.000 OA
ENDROOT
BRANCH   1   6
ATOM      3  C   UNL     1      -3.404  10.985  17.771  0.00  0.00    +0.000 A 
ATOM      4  C   UNL     1      -2.587  10.009  17.196  0.00  0.00    +0.000 A 
ATOM      5  C   UNL     1      -1.251   9.868  17.595  0.00  0.00    +0.000 A 
ATOM      6  C   UNL     1      -0.720  10.675  18.612  0.00  0.00    +0.000 A 
ATOM      7  C   UNL     1      -1.546  11.653  19.175  0.00  0.00    +0.000 A 
ATOM      8  C   UNL     1      -2.872  11.816  18.759  0.00  0.00    +0.000 A 
BRANCH   7   9
ATOM      9  O   UNL     1      -1.101  12.491  20.160  0.00  0.00    +0.000 OA
ATOM     10  H   UNL     1      -0.373  13.014  19.778  0.00  0.00    +0.000 HD
ENDBRANCH   7   9
BRANCH   3  11
ATOM     11  O   UNL     1      -4.706  10.998  17.343  0.00  0.00    +0.000 OA
BRANCH  11  12
ATOM     12  C   UNL     1      -5.693  10.691  18.326  0.00  0.00    +0.000 C 
BRANCH  12  14
ATOM     13  C   UNL     1      -7.415  12.289  19.222  0.00  0.00    +0.000 C 
ATOM     14  C   UNL     1      -6.834  11.655  18.193  0.00  0.00    +0.000 C 
ENDBRANCH  12  14
ENDBRANCH  11  12
ENDBRANCH   3  11
ENDBRANCH   1   6
BRANCH   1  15
ATOM     15  C   UNL     1       1.417   9.262  18.494  0.00  0.00    +0.000 C 
ATOM     16  C   UNL     1       1.872   8.346  19.365  0.00  0.00    +0.000 C 
BRANCH  16  17
ATOM     17  C   UNL     1       2.503   7.104  18.898  0.00  0.00    +0.000 A 
ATOM     18  C   UNL     1       3.449   7.252  17.862  0.00  0.00    +0.000 A 
ATOM     19  C   UNL     1       4.179   6.166  17.350  0.00  0.00    +0.000 A 
ATOM     20  C   UNL     1       3.979   4.900  17.914  0.00  0.00    +0.000 A 
ATOM     21  C   UNL     1       3.039   4.756  18.954  0.00  0.00    +0.000 A 
ATOM     22  C   UNL     1       2.287   5.835  19.439  0.00  0.00    +0.000 A 
BRANCH  19  23
ATOM     23  O   UNL     1       5.085   6.293  16.332  0.00  0.00    +0.000 OA
ATOM     24  C   UNL     1       6.467   6.372  16.653  0.00  0.00    +0.000 C 
ENDBRANCH  19  23
BRANCH  20  25
ATOM     25  O   UNL     1       4.597   3.716  17.607  0.00  0.00    +0.000 OA
ATOM     26  C   UNL     1       3.878   2.501  17.758  0.00  0.00    +0.000 C 
ENDBRANCH  20  25
BRANCH  22  27
ATOM     27  O   UNL     1       1.461   5.492  20.477  0.00  0.00    +0.000 OA
ATOM     28  C   UNL     1       1.103   4.121  20.604  0.00  0.00    +0.000 C 
ENDBRANCH  22  27
ENDBRANCH  16  17
ENDBRANCH   1  15
TORSDOF 10
ENDMDL
MODEL 9
REMARK VINA RESULT:      -6.5      1.224      2.808
REMARK  Name = 
REMARK  13 active torsions:
REMARK  status: ('A' for Active; 'I' for Inactive)
REMARK    1  A    between atoms: C_2  and  C_3
REMARK    2  A    between atoms: C_3  and  O_4
REMARK    3  A    between atoms: O_4  and  C_5
REMARK    4  A    between atoms: C_8  and  C_9
REMARK    5  A    between atoms: C_9  and  C_11
REMARK    6  A    between atoms: C_12  and  C_13
REMARK    7  A    between atoms: C_15  and  O_16
REMARK    8  A    between atoms: O_16  and  C_17
REMARK    9  A    between atoms: C_18  and  O_19
REMARK   10  A    between atoms: O_19  and  C_20
REMARK   11  A    between atoms: C_22  and  O_23
REMARK   12  A    between atoms: O_23  and  C_24
REMARK   13  A    between atoms: C_25  and  O_26
REMARK                            x       y       z     vdW  Elec       q    Type
REMARK                         _______ _______ _______ _____ _____    ______ ____
ROOT
ATOM      1  C   UNL     1       1.517   9.142  18.712  0.00  0.00    +0.000 C 
ATOM      2  O   UNL     1       1.479   9.521  17.547  0.00  0.00    +0.000 OA
ENDROOT
BRANCH   1   6
ATOM      3  C   UNL     1      -0.414  11.353  21.884  0.00  0.00    +0.000 A 
ATOM      4  C   UNL     1       0.217  10.130  22.124  0.00  0.00    +0.000 A 
ATOM      5  C   UNL     1       0.829   9.423  21.079  0.00  0.00    +0.000 A 
ATOM      6  C   UNL     1       0.859   9.952  19.781  0.00  0.00    +0.000 A 
ATOM      7  C   UNL     1       0.218  11.174  19.551  0.00  0.00    +0.000 A 
ATOM      8  C   UNL     1      -0.420  11.868  20.586  0.00  0.00    +0.000 A 
BRANCH   7   9
ATOM      9  O   UNL     1       0.187  11.749  18.312  0.00  0.00    +0.000 OA
ATOM     10  H   UNL     1      -0.681  11.537  17.923  0.00  0.00    +0.000 HD
ENDBRANCH   7   9
BRANCH   3  11
ATOM     11  O   UNL     1      -0.932  11.981  22.986  0.00  0.00    +0.000 OA
BRANCH  11  12
ATOM     12  C   UNL     1      -2.351  11.936  23.124  0.00  0.00    +0.000 C 
BRANCH  12  14
ATOM     13  C   UNL     1      -3.622  13.618  24.495  0.00  0.00    +0.000 C 
ATOM     14  C   UNL     1      -2.857  13.313  23.436  0.00  0.00    +0.000 C 
ENDBRANCH  12  14
ENDBRANCH  11  12
ENDBRANCH   3  11
ENDBRANCH   1   6
BRANCH   1  15
ATOM     15  C   UNL     1       2.192   7.871  19.094  0.00  0.00    +0.000 C 
ATOM     16  C   UNL     1       2.320   6.875  18.202  0.00  0.00    +0.000 C 
BRANCH  16  17
ATOM     17  C   UNL     1       3.046   5.643  18.541  0.00  0.00    +0.000 A 
ATOM     18  C   UNL     1       4.453   5.749  18.559  0.00  0.00    +0.000 A 
ATOM     19  C   UNL     1       5.282   4.674  18.920  0.00  0.00    +0.000 A 
ATOM     20  C   UNL     1       4.684   3.468  19.307  0.00  0.00    +0.000 A 
ATOM     21  C   UNL     1       3.279   3.367  19.295  0.00  0.00    +0.000 A 
ATOM     22  C   UNL     1       2.455   4.430  18.900  0.00  0.00    +0.000 A 
BRANCH  19  23
ATOM     23  O   UNL     1       6.648   4.757  18.923  0.00  0.00    +0.000 OA
ATOM     24  C   UNL     1       7.340   4.683  17.685  0.00  0.00    +0.000 C 
ENDBRANCH  19  23
BRANCH  20  25
ATOM     25  O   UNL     1       5.283   2.310  19.731  0.00  0.00    +0.000 OA
ATOM     26  C   UNL     1       4.689   1.571  20.789  0.00  0.00    +0.000 C 
ENDBRANCH  20  25
BRANCH  22  27
ATOM     27  O   UNL     1       1.119   4.141  18.999  0.00  0.00    +0.000 OA
ATOM     28  C   UNL     1       0.691   3.399  20.134  0.00  0.00    +0.000 C 
ENDBRANCH  22  27
ENDBRANCH  16  17
ENDBRANCH   1  15
TORSDOF 10
ENDMDL
