MODEL 1
REMARK VINA RESULT:      -8.7      0.000      0.000
REMARK  Name = 
REMARK  5 active torsions:
REMARK  status: ('A' for Active; 'I' for Inactive)
REMARK    1  A    between atoms: C_2  and  C_19
REMARK    2  A    between atoms: N_3  and  C_4
REMARK    3  A    between atoms: C_4  and  C_5
REMARK    4  A    between atoms: C_5  and  N_6
REMARK    5  A    between atoms: C_9  and  C_10
REMARK                            x       y       z     vdW  Elec       q    Type
REMARK                         _______ _______ _______ _____ _____    ______ ____
ROOT
ATOM      1  C   UNL     1       2.962   4.312  19.011  0.00  0.00    +0.000 C 
ENDROOT
BRANCH   1   4
ATOM      2  O   UNL     1       5.778   4.121  18.926  0.00  0.00    +0.000 OA
ATOM      3  C   UNL     1       5.165   4.357  17.891  0.00  0.00    +0.000 C 
ATOM      4  N   UNL     1       3.790   4.476  17.833  0.00  0.00    +0.000 N 
ATOM      5  H   UNL     1       3.377   4.715  16.936  0.00  0.00    +0.000 HD
BRANCH   3   6
ATOM      6  C   UNL     1       5.884   4.542  16.604  0.00  0.00    +0.000 A 
ATOM      7  C   UNL     1       6.919   5.456  16.536  0.00  0.00    +0.000 A 
ATOM      8  N   UNL     1       7.595   5.696  15.386  0.00  0.00    +0.000 NA
ATOM      9  C   UNL     1       7.195   5.003  14.305  0.00  0.00    +0.000 A 
ATOM     10  C   UNL     1       7.825   5.232  13.090  0.00  0.00    +0.000 A 
ATOM     11  C   UNL     1       7.437   4.559  11.933  0.00  0.00    +0.000 A 
ATOM     12  C   UNL     1       6.407   3.629  11.995  0.00  0.00    +0.000 A 
ATOM     13  C   UNL     1       5.771   3.381  13.215  0.00  0.00    +0.000 A 
ATOM     14  C   UNL     1       6.137   4.055  14.375  0.00  0.00    +0.000 A 
ATOM     15  N   UNL     1       5.476   3.813  15.529  0.00  0.00    +0.000 NA
ENDBRANCH   3   6
ENDBRANCH   1   4
BRANCH   1  16
ATOM     16  C   UNL     1       2.992   5.549  19.929  0.00  0.00    +0.000 C 
BRANCH  16  17
ATOM     17  N   UNL     1       2.080   6.632  19.499  0.00  0.00    +0.000 NA
ATOM     18  C   UNL     1       1.688   7.460  20.652  0.00  0.00    +0.000 C 
ATOM     19  C   UNL     1       1.188   8.836  20.326  0.00  0.00    +0.000 C 
ATOM     20  C   UNL     1       1.246   9.394  19.103  0.00  0.00    +0.000 C 
ATOM     21  C   UNL     1       1.799   8.577  17.961  0.00  0.00    +0.000 C 
ATOM     22  C   UNL     1       2.720   7.446  18.451  0.00  0.00    +0.000 C 
BRANCH  20  23
ATOM     23  C   UNL     1       0.805  10.787  18.856  0.00  0.00    +0.000 A 
ATOM     24  C   UNL     1      -0.561  11.128  18.886  0.00  0.00    +0.000 A 
ATOM     25  C   UNL     1      -0.982  12.445  18.688  0.00  0.00    +0.000 A 
ATOM     26  C   UNL     1      -0.038  13.438  18.472  0.00  0.00    +0.000 A 
ATOM     27  F   UNL     1      -0.438  14.703  18.293  0.00  0.00    +0.000 F 
ATOM     28  C   UNL     1       1.317  13.136  18.448  0.00  0.00    +0.000 A 
ATOM     29  C   UNL     1       1.737  11.814  18.639  0.00  0.00    +0.000 A 
ENDBRANCH  20  23
ENDBRANCH  16  17
ENDBRANCH   1  16
TORSDOF 5
ENDMDL
MODEL 2
REMARK VINA RESULT:      -8.5      1.013      1.667
REMARK  Name = 
REMARK  5 active torsions:
REMARK  status: ('A' for Active; 'I' for Inactive)
REMARK    1  A    between atoms: C_2  and  C_19
REMARK    2  A    between atoms: N_3  and  C_4
REMARK    3  A    between atoms: C_4  and  C_5
REMARK    4  A    between atoms: C_5  and  N_6
REMARK    5  A    between atoms: C_9  and  C_10
REMARK                            x       y       z     vdW  Elec       q    Type
REMARK                         _______ _______ _______ _____ _____    ______ ____
ROOT
ATOM      1  C   UNL     1       4.092   3.043  19.409  0.00  0.00    +0.000 C 
ENDROOT
BRANCH   1   4
ATOM      2  O   UNL     1       6.235   4.836  18.997  0.00  0.00    +0.000 OA
ATOM      3  C   UNL     1       5.757   4.247  18.034  0.00  0.00    +0.000 C 
ATOM      4  N   UNL     1       4.704   3.358  18.134  0.00  0.00    +0.000 N 
ATOM      5  H   UNL     1       4.349   2.952  17.272  0.00  0.00    +0.000 HD
BRANCH   3   6
ATOM      6  C   UNL     1       6.289   4.466  16.665  0.00  0.00    +0.000 A 
ATOM      7  C   UNL     1       7.214   5.473  16.454  0.00  0.00    +0.000 A 
ATOM      8  N   UNL     1       7.715   5.747  15.226  0.00  0.00    +0.000 NA
ATOM      9  C   UNL     1       7.254   4.990  14.213  0.00  0.00    +0.000 A 
ATOM     10  C   UNL     1       7.704   5.247  12.925  0.00  0.00    +0.000 A 
ATOM     11  C   UNL     1       7.243   4.510  11.835  0.00  0.00    +0.000 A 
ATOM     12  C   UNL     1       6.324   3.488  12.039  0.00  0.00    +0.000 A 
ATOM     13  C   UNL     1       5.872   3.212  13.333  0.00  0.00    +0.000 A 
ATOM     14  C   UNL     1       6.311   3.948  14.428  0.00  0.00    +0.000 A 
ATOM     15  N   UNL     1       5.825   3.674  15.659  0.00  0.00    +0.000 NA
ENDBRANCH   3   6
ENDBRANCH   1   4
BRANCH   1  16
ATOM     16  C   UNL     1       2.710   3.704  19.578  0.00  0.00    +0.000 C 
BRANCH  16  17
ATOM     17  N   UNL     1       2.769   5.176  19.721  0.00  0.00    +0.000 NA
ATOM     18  C   UNL     1       2.620   5.826  18.408  0.00  0.00    +0.000 C 
ATOM     19  C   UNL     1       2.177   7.258  18.435  0.00  0.00    +0.000 C 
ATOM     20  C   UNL     1       1.753   7.899  19.540  0.00  0.00    +0.000 C 
ATOM     21  C   UNL     1       1.767   7.161  20.856  0.00  0.00    +0.000 C 
ATOM     22  C   UNL     1       1.733   5.634  20.663  0.00  0.00    +0.000 C 
BRANCH  20  23
ATOM     23  C   UNL     1       1.256   9.294  19.492  0.00  0.00    +0.000 A 
ATOM     24  C   UNL     1       0.440   9.808  20.519  0.00  0.00    +0.000 A 
ATOM     25  C   UNL     1      -0.003  11.131  20.498  0.00  0.00    +0.000 A 
ATOM     26  C   UNL     1       0.376  11.961  19.453  0.00  0.00    +0.000 A 
ATOM     27  F   UNL     1      -0.039  13.234  19.435  0.00  0.00    +0.000 F 
ATOM     28  C   UNL     1       1.188  11.489  18.430  0.00  0.00    +0.000 A 
ATOM     29  C   UNL     1       1.626  10.160  18.450  0.00  0.00    +0.000 A 
ENDBRANCH  20  23
ENDBRANCH  16  17
ENDBRANCH   1  16
TORSDOF 5
ENDMDL
MODEL 3
REMARK VINA RESULT:      -8.3      0.577      1.076
REMARK  Name = 
REMARK  5 active torsions:
REMARK  status: ('A' for Active; 'I' for Inactive)
REMARK    1  A    between atoms: C_2  and  C_19
REMARK    2  A    between atoms: N_3  and  C_4
REMARK    3  A    between atoms: C_4  and  C_5
REMARK    4  A    between atoms: C_5  and  N_6
REMARK    5  A    between atoms: C_9  and  C_10
REMARK                            x       y       z     vdW  Elec       q    Type
REMARK                         _______ _______ _______ _____ _____    ______ ____
ROOT
ATOM      1  C   UNL     1       2.566   4.911  18.794  0.00  0.00    +0.000 C 
ENDROOT
BRANCH   1   4
ATOM      2  O   UNL     1       5.241   4.006  18.764  0.00  0.00    +0.000 OA
ATOM      3  C   UNL     1       4.766   4.498  17.746  0.00  0.00    +0.000 C 
ATOM      4  N   UNL     1       3.472   4.974  17.665  0.00  0.00    +0.000 N 
ATOM      5  H   UNL     1       3.184   5.403  16.790  0.00  0.00    +0.000 HD
BRANCH   3   6
ATOM      6  C   UNL     1       5.578   4.621  16.508  0.00  0.00    +0.000 A 
ATOM      7  C   UNL     1       6.669   5.472  16.498  0.00  0.00    +0.000 A 
ATOM      8  N   UNL     1       7.431   5.654  15.394  0.00  0.00    +0.000 NA
ATOM      9  C   UNL     1       7.062   4.969  14.296  0.00  0.00    +0.000 A 
ATOM     10  C   UNL     1       7.784   5.143  13.123  0.00  0.00    +0.000 A 
ATOM     11  C   UNL     1       7.433   4.477  11.950  0.00  0.00    +0.000 A 
ATOM     12  C   UNL     1       6.347   3.610  11.954  0.00  0.00    +0.000 A 
ATOM     13  C   UNL     1       5.619   3.418  13.132  0.00  0.00    +0.000 A 
ATOM     14  C   UNL     1       5.947   4.086  14.306  0.00  0.00    +0.000 A 
ATOM     15  N   UNL     1       5.199   3.901  15.415  0.00  0.00    +0.000 NA
ENDBRANCH   3   6
ENDBRANCH   1   4
BRANCH   1  16
ATOM     16  C   UNL     1       2.714   6.122  19.736  0.00  0.00    +0.000 C 
BRANCH  16  17
ATOM     17  N   UNL     1       1.841   7.263  19.381  0.00  0.00    +0.000 NA
ATOM     18  C   UNL     1       1.443   8.001  20.591  0.00  0.00    +0.000 C 
ATOM     19  C   UNL     1       0.987   9.413  20.373  0.00  0.00    +0.000 C 
ATOM     20  C   UNL     1       1.089  10.071  19.204  0.00  0.00    +0.000 C 
ATOM     21  C   UNL     1       1.647   9.338  18.008  0.00  0.00    +0.000 C 
ATOM     22  C   UNL     1       2.526   8.144  18.420  0.00  0.00    +0.000 C 
BRANCH  20  23
ATOM     23  C   UNL     1       0.690  11.491  19.068  0.00  0.00    +0.000 A 
ATOM     24  C   UNL     1       1.632  12.477  18.717  0.00  0.00    +0.000 A 
ATOM     25  C   UNL     1       1.256  13.812  18.553  0.00  0.00    +0.000 A 
ATOM     26  C   UNL     1      -0.072  14.172  18.727  0.00  0.00    +0.000 A 
ATOM     27  F   UNL     1      -0.437  15.450  18.561  0.00  0.00    +0.000 F 
ATOM     28  C   UNL     1      -1.028  13.223  19.062  0.00  0.00    +0.000 A 
ATOM     29  C   UNL     1      -0.648  11.886  19.233  0.00  0.00    +0.000 A 
ENDBRANCH  20  23
ENDBRANCH  16  17
ENDBRANCH   1  16
TORSDOF 5
ENDMDL
MODEL 4
REMARK VINA RESULT:      -8.3      0.645      1.448
REMARK  Name = 
REMARK  5 active torsions:
REMARK  status: ('A' for Active; 'I' for Inactive)
REMARK    1  A    between atoms: C_2  and  C_19
REMARK    2  A    between atoms: N_3  and  C_4
REMARK    3  A    between atoms: C_4  and  C_5
REMARK    4  A    between atoms: C_5  and  N_6
REMARK    5  A    between atoms: C_9  and  C_10
REMARK                            x       y       z     vdW  Elec       q    Type
REMARK                         _______ _______ _______ _____ _____    ______ ____
ROOT
ATOM      1  C   UNL     1       3.765   4.880  19.771  0.00  0.00    +0.000 C 
ENDROOT
BRANCH   1   4
ATOM      2  O   UNL     1       4.166   2.926  17.772  0.00  0.00    +0.000 OA
ATOM      3  C   UNL     1       4.704   4.021  17.652  0.00  0.00    +0.000 C 
ATOM      4  N   UNL     1       4.573   5.037  18.579  0.00  0.00    +0.000 N 
ATOM      5  H   UNL     1       5.093   5.895  18.412  0.00  0.00    +0.000 HD
BRANCH   3   6
ATOM      6  C   UNL     1       5.557   4.327  16.475  0.00  0.00    +0.000 A 
ATOM      7  C   UNL     1       6.554   5.277  16.594  0.00  0.00    +0.000 A 
ATOM      8  N   UNL     1       7.346   5.626  15.552  0.00  0.00    +0.000 NA
ATOM      9  C   UNL     1       7.102   5.004  14.384  0.00  0.00    +0.000 A 
ATOM     10  C   UNL     1       7.857   5.346  13.271  0.00  0.00    +0.000 A 
ATOM     11  C   UNL     1       7.631   4.751  12.031  0.00  0.00    +0.000 A 
ATOM     12  C   UNL     1       6.641   3.786  11.905  0.00  0.00    +0.000 A 
ATOM     13  C   UNL     1       5.881   3.424  13.021  0.00  0.00    +0.000 A 
ATOM     14  C   UNL     1       6.083   4.020  14.261  0.00  0.00    +0.000 A 
ATOM     15  N   UNL     1       5.305   3.669  15.309  0.00  0.00    +0.000 NA
ENDBRANCH   3   6
ENDBRANCH   1   4
BRANCH   1  16
ATOM     16  C   UNL     1       2.377   5.536  19.633  0.00  0.00    +0.000 C 
BRANCH  16  17
ATOM     17  N   UNL     1       2.415   7.015  19.632  0.00  0.00    +0.000 NA
ATOM     18  C   UNL     1       2.292   7.531  18.258  0.00  0.00    +0.000 C 
ATOM     19  C   UNL     1       1.832   8.953  18.134  0.00  0.00    +0.000 C 
ATOM     20  C   UNL     1       1.373   9.693  19.160  0.00  0.00    +0.000 C 
ATOM     21  C   UNL     1       1.363   9.087  20.542  0.00  0.00    +0.000 C 
ATOM     22  C   UNL     1       1.351   7.549  20.499  0.00  0.00    +0.000 C 
BRANCH  20  23
ATOM     23  C   UNL     1       0.862  11.070  18.964  0.00  0.00    +0.000 A 
ATOM     24  C   UNL     1       1.744  12.147  18.755  0.00  0.00    +0.000 A 
ATOM     25  C   UNL     1       1.269  13.441  18.535  0.00  0.00    +0.000 A 
ATOM     26  C   UNL     1      -0.100  13.669  18.509  0.00  0.00    +0.000 A 
ATOM     27  F   UNL     1      -0.559  14.907  18.288  0.00  0.00    +0.000 F 
ATOM     28  C   UNL     1      -0.997  12.627  18.701  0.00  0.00    +0.000 A 
ATOM     29  C   UNL     1      -0.518  11.332  18.928  0.00  0.00    +0.000 A 
ENDBRANCH  20  23
ENDBRANCH  16  17
ENDBRANCH   1  16
TORSDOF 5
ENDMDL
MODEL 5
REMARK VINA RESULT:      -8.2      3.450      9.532
REMARK  Name = 
REMARK  5 active torsions:
REMARK  status: ('A' for Active; 'I' for Inactive)
REMARK    1  A    between atoms: C_2  and  C_19
REMARK    2  A    between atoms: N_3  and  C_4
REMARK    3  A    between atoms: C_4  and  C_5
REMARK    4  A    between atoms: C_5  and  N_6
REMARK    5  A    between atoms: C_9  and  C_10
REMARK                            x       y       z     vdW  Elec       q    Type
REMARK                         _______ _______ _______ _____ _____    ______ ____
ROOT
ATOM      1  C   UNL     1       3.010   4.634  19.911  0.00  0.00    +0.000 C 
ENDROOT
BRANCH   1   4
ATOM      2  O   UNL     1       2.892   6.958  18.311  0.00  0.00    +0.000 OA
ATOM      3  C   UNL     1       2.328   6.954  19.400  0.00  0.00    +0.000 C 
ATOM      4  N   UNL     1       2.336   5.869  20.256  0.00  0.00    +0.000 N 
ATOM      5  H   UNL     1       1.876   5.978  21.155  0.00  0.00    +0.000 HD
BRANCH   3   6
ATOM      6  C   UNL     1       1.591   8.150  19.881  0.00  0.00    +0.000 A 
ATOM      7  C   UNL     1       1.535   9.276  19.079  0.00  0.00    +0.000 A 
ATOM      8  N   UNL     1       0.906  10.410  19.471  0.00  0.00    +0.000 NA
ATOM      9  C   UNL     1       0.346  10.388  20.694  0.00  0.00    +0.000 A 
ATOM     10  C   UNL     1      -0.281  11.533  21.165  0.00  0.00    +0.000 A 
ATOM     11  C   UNL     1      -0.858  11.575  22.434  0.00  0.00    +0.000 A 
ATOM     12  C   UNL     1      -0.818  10.445  23.241  0.00  0.00    +0.000 A 
ATOM     13  C   UNL     1      -0.200   9.282  22.773  0.00  0.00    +0.000 A 
ATOM     14  C   UNL     1       0.394   9.229  21.517  0.00  0.00    +0.000 A 
ATOM     15  N   UNL     1       1.013   8.098  21.113  0.00  0.00    +0.000 NA
ENDBRANCH   3   6
ENDBRANCH   1   4
BRANCH   1  16
ATOM     16  C   UNL     1       4.544   4.757  19.996  0.00  0.00    +0.000 C 
BRANCH  16  17
ATOM     17  N   UNL     1       5.246   4.289  18.780  0.00  0.00    +0.000 NA
ATOM     18  C   UNL     1       4.274   3.912  17.739  0.00  0.00    +0.000 C 
ATOM     19  C   UNL     1       4.798   3.891  16.334  0.00  0.00    +0.000 C 
ATOM     20  C   UNL     1       6.008   4.353  15.970  0.00  0.00    +0.000 C 
ATOM     21  C   UNL     1       6.933   4.881  17.039  0.00  0.00    +0.000 C 
ATOM     22  C   UNL     1       6.168   5.331  18.296  0.00  0.00    +0.000 C 
BRANCH  20  23
ATOM     23  C   UNL     1       6.443   4.375  14.553  0.00  0.00    +0.000 A 
ATOM     24  C   UNL     1       5.807   3.570  13.589  0.00  0.00    +0.000 A 
ATOM     25  C   UNL     1       6.188   3.611  12.246  0.00  0.00    +0.000 A 
ATOM     26  C   UNL     1       7.204   4.470  11.852  0.00  0.00    +0.000 A 
ATOM     27  F   UNL     1       7.565   4.518  10.564  0.00  0.00    +0.000 F 
ATOM     28  C   UNL     1       7.844   5.284  12.776  0.00  0.00    +0.000 A 
ATOM     29  C   UNL     1       7.465   5.236  14.123  0.00  0.00    +0.000 A 
ENDBRANCH  20  23
ENDBRANCH  16  17
ENDBRANCH   1  16
TORSDOF 5
ENDMDL
MODEL 6
REMARK VINA RESULT:      -8.2      4.090      6.763
REMARK  Name = 
REMARK  5 active torsions:
REMARK  status: ('A' for Active; 'I' for Inactive)
REMARK    1  A    between atoms: C_2  and  C_19
REMARK    2  A    between atoms: N_3  and  C_4
REMARK    3  A    between atoms: C_4  and  C_5
REMARK    4  A    between atoms: C_5  and  N_6
REMARK    5  A    between atoms: C_9  and  C_10
REMARK                            x       y       z     vdW  Elec       q    Type
REMARK                         _______ _______ _______ _____ _____    ______ ____
ROOT
ATOM      1  C   UNL     1       0.744  10.254  19.012  0.00  0.00    +0.000 C 
ENDROOT
BRANCH   1   4
ATOM      2  O   UNL     1       2.472   8.858  17.268  0.00  0.00    +0.000 OA
ATOM      3  C   UNL     1       2.151   8.339  18.331  0.00  0.00    +0.000 C 
ATOM      4  N   UNL     1       1.306   8.939  19.245  0.00  0.00    +0.000 N 
ATOM      5  H   UNL     1       1.065   8.411  20.079  0.00  0.00    +0.000 HD
BRANCH   3   6
ATOM      6  C   UNL     1       2.659   6.995  18.707  0.00  0.00    +0.000 A 
ATOM      7  C   UNL     1       3.673   6.424  17.960  0.00  0.00    +0.000 A 
ATOM      8  N   UNL     1       4.160   5.189  18.230  0.00  0.00    +0.000 NA
ATOM      9  C   UNL     1       3.592   4.537  19.261  0.00  0.00    +0.000 A 
ATOM     10  C   UNL     1       4.023   3.253  19.563  0.00  0.00    +0.000 A 
ATOM     11  C   UNL     1       3.455   2.523  20.605  0.00  0.00    +0.000 A 
ATOM     12  C   UNL     1       2.445   3.094  21.369  0.00  0.00    +0.000 A 
ATOM     13  C   UNL     1       2.009   4.391  21.083  0.00  0.00    +0.000 A 
ATOM     14  C   UNL     1       2.555   5.126  20.037  0.00  0.00    +0.000 A 
ATOM     15  N   UNL     1       2.084   6.363  19.768  0.00  0.00    +0.000 NA
ENDBRANCH   3   6
ENDBRANCH   1   4
BRANCH   1  16
ATOM     16  C   UNL     1       1.326  11.321  19.959  0.00  0.00    +0.000 C 
BRANCH  16  17
ATOM     17  N   UNL     1       0.311  11.975  20.815  0.00  0.00    +0.000 NA
ATOM     18  C   UNL     1      -0.831  12.426  20.002  0.00  0.00    +0.000 C 
ATOM     19  C   UNL     1      -2.113  12.651  20.748  0.00  0.00    +0.000 C 
ATOM     20  C   UNL     1      -2.313  12.305  22.032  0.00  0.00    +0.000 C 
ATOM     21  C   UNL     1      -1.169  11.698  22.806  0.00  0.00    +0.000 C 
ATOM     22  C   UNL     1      -0.122  11.054  21.879  0.00  0.00    +0.000 C 
BRANCH  20  23
ATOM     23  C   UNL     1      -3.627  12.485  22.695  0.00  0.00    +0.000 A 
ATOM     24  C   UNL     1      -3.762  12.329  24.088  0.00  0.00    +0.000 A 
ATOM     25  C   UNL     1      -4.989  12.530  24.723  0.00  0.00    +0.000 A 
ATOM     26  C   UNL     1      -6.093  12.903  23.971  0.00  0.00    +0.000 A 
ATOM     27  F   UNL     1      -7.269  13.106  24.578  0.00  0.00    +0.000 F 
ATOM     28  C   UNL     1      -5.991  13.075  22.597  0.00  0.00    +0.000 A 
ATOM     29  C   UNL     1      -4.762  12.866  21.961  0.00  0.00    +0.000 A 
ENDBRANCH  20  23
ENDBRANCH  16  17
ENDBRANCH   1  16
TORSDOF 5
ENDMDL
MODEL 7
REMARK VINA RESULT:      -8.2      4.922     10.926
REMARK  Name = 
REMARK  5 active torsions:
REMARK  status: ('A' for Active; 'I' for Inactive)
REMARK    1  A    between atoms: C_2  and  C_19
REMARK    2  A    between atoms: N_3  and  C_4
REMARK    3  A    between atoms: C_4  and  C_5
REMARK    4  A    between atoms: C_5  and  N_6
REMARK    5  A    between atoms: C_9  and  C_10
REMARK                            x       y       z     vdW  Elec       q    Type
REMARK                         _______ _______ _______ _____ _____    ______ ____
ROOT
ATOM      1  C   UNL     1       0.379  11.296  19.761  0.00  0.00    +0.000 C 
ENDROOT
BRANCH   1   4
ATOM      2  O   UNL     1      -1.120  10.430  17.529  0.00  0.00    +0.000 OA
ATOM      3  C   UNL     1      -1.679  11.073  18.410  0.00  0.00    +0.000 C 
ATOM      4  N   UNL     1      -1.030  11.546  19.535  0.00  0.00    +0.000 N 
ATOM      5  H   UNL     1      -1.570  12.106  20.188  0.00  0.00    +0.000 HD
BRANCH   3   6
ATOM      6  C   UNL     1      -3.126  11.399  18.315  0.00  0.00    +0.000 A 
ATOM      7  C   UNL     1      -3.828  11.024  17.184  0.00  0.00    +0.000 A 
ATOM      8  N   UNL     1      -5.141  11.318  17.021  0.00  0.00    +0.000 NA
ATOM      9  C   UNL     1      -5.725  12.008  18.017  0.00  0.00    +0.000 A 
ATOM     10  C   UNL     1      -7.059  12.370  17.890  0.00  0.00    +0.000 A 
ATOM     11  C   UNL     1      -7.709  13.105  18.880  0.00  0.00    +0.000 A 
ATOM     12  C   UNL     1      -7.015  13.474  20.025  0.00  0.00    +0.000 A 
ATOM     13  C   UNL     1      -5.674  13.106  20.170  0.00  0.00    +0.000 A 
ATOM     14  C   UNL     1      -5.007  12.386  19.185  0.00  0.00    +0.000 A 
ATOM     15  N   UNL     1      -3.702  12.079  19.345  0.00  0.00    +0.000 NA
ENDBRANCH   3   6
ENDBRANCH   1   4
BRANCH   1  16
ATOM     16  C   UNL     1       0.628   9.987  20.537  0.00  0.00    +0.000 C 
BRANCH  16  17
ATOM     17  N   UNL     1       1.001   8.845  19.673  0.00  0.00    +0.000 NA
ATOM     18  C   UNL     1       1.709   9.320  18.472  0.00  0.00    +0.000 C 
ATOM     19  C   UNL     1       2.557   8.302  17.769  0.00  0.00    +0.000 C 
ATOM     20  C   UNL     1       2.835   7.079  18.258  0.00  0.00    +0.000 C 
ATOM     21  C   UNL     1       2.219   6.669  19.574  0.00  0.00    +0.000 C 
ATOM     22  C   UNL     1       1.820   7.884  20.430  0.00  0.00    +0.000 C 
BRANCH  20  23
ATOM     23  C   UNL     1       3.740   6.142  17.553  0.00  0.00    +0.000 A 
ATOM     24  C   UNL     1       3.603   4.750  17.707  0.00  0.00    +0.000 A 
ATOM     25  C   UNL     1       4.431   3.860  17.019  0.00  0.00    +0.000 A 
ATOM     26  C   UNL     1       5.398   4.356  16.158  0.00  0.00    +0.000 A 
ATOM     27  F   UNL     1       6.187   3.505  15.489  0.00  0.00    +0.000 F 
ATOM     28  C   UNL     1       5.553   5.723  15.976  0.00  0.00    +0.000 A 
ATOM     29  C   UNL     1       4.727   6.614  16.672  0.00  0.00    +0.000 A 
ENDBRANCH  20  23
ENDBRANCH  16  17
ENDBRANCH   1  16
TORSDOF 5
ENDMDL
MODEL 8
REMARK VINA RESULT:      -8.2      6.218      8.052
REMARK  Name = 
REMARK  5 active torsions:
REMARK  status: ('A' for Active; 'I' for Inactive)
REMARK    1  A    between atoms: C_2  and  C_19
REMARK    2  A    between atoms: N_3  and  C_4
REMARK    3  A    between atoms: C_4  and  C_5
REMARK    4  A    between atoms: C_5  and  N_6
REMARK    5  A    between atoms: C_9  and  C_10
REMARK                            x       y       z     vdW  Elec       q    Type
REMARK                         _______ _______ _______ _____ _____    ______ ____
ROOT
ATOM      1  C   UNL     1       7.825   8.273  17.466  0.00  0.00    +0.000 C 
ENDROOT
BRANCH   1   4
ATOM      2  O   UNL     1       5.909   6.832  15.974  0.00  0.00    +0.000 OA
ATOM      3  C   UNL     1       6.061   6.568  17.161  0.00  0.00    +0.000 C 
ATOM      4  N   UNL     1       6.967   7.222  17.974  0.00  0.00    +0.000 N 
ATOM      5  H   UNL     1       6.990   6.961  18.956  0.00  0.00    +0.000 HD
BRANCH   3   6
ATOM      6  C   UNL     1       5.254   5.507  17.816  0.00  0.00    +0.000 A 
ATOM      7  C   UNL     1       5.870   4.645  18.706  0.00  0.00    +0.000 A 
ATOM      8  N   UNL     1       5.200   3.637  19.314  0.00  0.00    +0.000 NA
ATOM      9  C   UNL     1       3.899   3.510  18.995  0.00  0.00    +0.000 A 
ATOM     10  C   UNL     1       3.169   2.472  19.558  0.00  0.00    +0.000 A 
ATOM     11  C   UNL     1       1.824   2.279  19.247  0.00  0.00    +0.000 A 
ATOM     12  C   UNL     1       1.194   3.148  18.365  0.00  0.00    +0.000 A 
ATOM     13  C   UNL     1       1.915   4.204  17.800  0.00  0.00    +0.000 A 
ATOM     14  C   UNL     1       3.261   4.401  18.088  0.00  0.00    +0.000 A 
ATOM     15  N   UNL     1       3.934   5.411  17.496  0.00  0.00    +0.000 NA
ENDBRANCH   3   6
ENDBRANCH   1   4
BRANCH   1  16
ATOM     16  C   UNL     1       8.522   9.062  18.593  0.00  0.00    +0.000 C 
BRANCH  16  17
ATOM     17  N   UNL     1       9.177  10.305  18.131  0.00  0.00    +0.000 NA
ATOM     18  C   UNL     1       8.172  11.265  17.645  0.00  0.00    +0.000 C 
ATOM     19  C   UNL     1       8.605  12.701  17.609  0.00  0.00    +0.000 C 
ATOM     20  C   UNL     1       9.752  13.160  18.142  0.00  0.00    +0.000 C 
ATOM     21  C   UNL     1      10.701  12.174  18.777  0.00  0.00    +0.000 C 
ATOM     22  C   UNL     1       9.986  10.884  19.218  0.00  0.00    +0.000 C 
BRANCH  20  23
ATOM     23  C   UNL     1      10.092  14.602  18.141  0.00  0.00    +0.000 A 
ATOM     24  C   UNL     1      11.426  15.031  18.280  0.00  0.00    +0.000 A 
ATOM     25  C   UNL     1      11.758  16.387  18.245  0.00  0.00    +0.000 A 
ATOM     26  C   UNL     1      10.758  17.329  18.058  0.00  0.00    +0.000 A 
ATOM     27  F   UNL     1      11.074  18.629  18.015  0.00  0.00    +0.000 F 
ATOM     28  C   UNL     1       9.434  16.939  17.908  0.00  0.00    +0.000 A 
ATOM     29  C   UNL     1       9.102  15.580  17.950  0.00  0.00    +0.000 A 
ENDBRANCH  20  23
ENDBRANCH  16  17
ENDBRANCH   1  16
TORSDOF 5
ENDMDL
MODEL 9
REMARK VINA RESULT:      -8.2      0.820      1.289
REMARK  Name = 
REMARK  5 active torsions:
REMARK  status: ('A' for Active; 'I' for Inactive)
REMARK    1  A    between atoms: C_2  and  C_19
REMARK    2  A    between atoms: N_3  and  C_4
REMARK    3  A    between atoms: C_4  and  C_5
REMARK    4  A    between atoms: C_5  and  N_6
REMARK    5  A    between atoms: C_9  and  C_10
REMARK                            x       y       z     vdW  Elec       q    Type
REMARK                         _______ _______ _______ _____ _____    ______ ____
ROOT
ATOM      1  C   UNL     1       3.634   5.468  19.604  0.00  0.00    +0.000 C 
ENDROOT
BRANCH   1   4
ATOM      2  O   UNL     1       6.051   4.118  19.044  0.00  0.00    +0.000 OA
ATOM      3  C   UNL     1       5.487   4.729  18.143  0.00  0.00    +0.000 C 
ATOM      4  N   UNL     1       4.306   5.425  18.321  0.00  0.00    +0.000 N 
ATOM      5  H   UNL     1       3.938   5.936  17.524  0.00  0.00    +0.000 HD
BRANCH   3   6
ATOM      6  C   UNL     1       6.057   4.765  16.772  0.00  0.00    +0.000 A 
ATOM      7  C   UNL     1       7.111   5.620  16.503  0.00  0.00    +0.000 A 
ATOM      8  N   UNL     1       7.657   5.726  15.268  0.00  0.00    +0.000 NA
ATOM      9  C   UNL     1       7.108   4.959  14.308  0.00  0.00    +0.000 A 
ATOM     10  C   UNL     1       7.601   5.051  13.013  0.00  0.00    +0.000 A 
ATOM     11  C   UNL     1       7.056   4.298  11.974  0.00  0.00    +0.000 A 
ATOM     12  C   UNL     1       6.006   3.427  12.238  0.00  0.00    +0.000 A 
ATOM     13  C   UNL     1       5.508   3.318  13.540  0.00  0.00    +0.000 A 
ATOM     14  C   UNL     1       6.031   4.073  14.584  0.00  0.00    +0.000 A 
ATOM     15  N   UNL     1       5.501   3.965  15.821  0.00  0.00    +0.000 NA
ENDBRANCH   3   6
ENDBRANCH   1   4
BRANCH   1  16
ATOM     16  C   UNL     1       2.227   6.091  19.511  0.00  0.00    +0.000 C 
BRANCH  16  17
ATOM     17  N   UNL     1       2.219   7.565  19.644  0.00  0.00    +0.000 NA
ATOM     18  C   UNL     1       2.037   8.197  18.326  0.00  0.00    +0.000 C 
ATOM     19  C   UNL     1       1.529   9.608  18.346  0.00  0.00    +0.000 C 
ATOM     20  C   UNL     1       1.080  10.238  19.447  0.00  0.00    +0.000 C 
ATOM     21  C   UNL     1       1.132   9.510  20.768  0.00  0.00    +0.000 C 
ATOM     22  C   UNL     1       1.167   7.982  20.586  0.00  0.00    +0.000 C 
BRANCH  20  23
ATOM     23  C   UNL     1       0.520  11.608  19.391  0.00  0.00    +0.000 A 
ATOM     24  C   UNL     1      -0.654  11.939  20.096  0.00  0.00    +0.000 A 
ATOM     25  C   UNL     1      -1.168  13.237  20.075  0.00  0.00    +0.000 A 
ATOM     26  C   UNL     1      -0.505  14.223  19.359  0.00  0.00    +0.000 A 
ATOM     27  F   UNL     1      -0.990  15.470  19.345  0.00  0.00    +0.000 F 
ATOM     28  C   UNL     1       0.660  13.931  18.662  0.00  0.00    +0.000 A 
ATOM     29  C   UNL     1       1.171  12.628  18.678  0.00  0.00    +0.000 A 
ENDBRANCH  20  23
ENDBRANCH  16  17
ENDBRANCH   1  16
TORSDOF 5
ENDMDL
