MODEL 1
REMARK VINA RESULT:      -5.9      0.000      0.000
REMARK  Name = 
REMARK  25 active torsions:
REMARK  status: ('A' for Active; 'I' for Inactive)
REMARK    1  A    between atoms: C_1  and  C_2
REMARK    2  A    between atoms: C_2  and  C_3
REMARK    3  A    between atoms: C_3  and  C_4
REMARK    4  A    between atoms: C_4  and  C_5
REMARK    5  A    between atoms: C_5  and  C_6
REMARK    6  A    between atoms: C_6  and  C_7
REMARK    7  A    between atoms: C_7  and  C_8
REMARK    8  A    between atoms: C_8  and  C_9
REMARK    9  A    between atoms: C_9  and  C_10
REMARK   10  A    between atoms: C_10  and  C_11
REMARK   11  A    between atoms: C_11  and  C_12
REMARK   12  A    between atoms: C_12  and  C_13
REMARK   13  A    between atoms: C_13  and  C_14
REMARK   14  A    between atoms: C_14  and  C_15
REMARK   15  A    between atoms: C_15  and  C_16
REMARK   16  A    between atoms: C_16  and  N_17
REMARK   17  A    between atoms: N_17  and  C_18
REMARK   18  A    between atoms: C_21  and  C_22
REMARK   19  A    between atoms: C_22  and  O_24
REMARK   20  A    between atoms: O_24  and  C_25
REMARK   21  A    between atoms: C_25  and  C_26
REMARK   22  A    between atoms: C_26  and  C_27
REMARK   23  A    between atoms: C_26  and  C_28
REMARK   24  A    between atoms: C_26  and  C_29
REMARK   25  A    between atoms: C_29  and  O_30
REMARK                            x       y       z     vdW  Elec       q    Type
REMARK                         _______ _______ _______ _____ _____    ______ ____
ROOT
ATOM      1  N   UNL     1       1.846   9.604  17.998  0.00  0.00    +0.000 N 
ATOM      2  H   UNL     1       2.530  10.187  17.537  0.00  0.00    +0.000 HD
ENDROOT
BRANCH   1   3
ATOM      3  C   UNL     1       0.723  10.239  18.498  0.00  0.00    +0.000 A 
ATOM      4  C   UNL     1       0.789  11.137  19.564  0.00  0.00    +0.000 A 
ATOM      5  C   UNL     1      -0.343  11.811  20.016  0.00  0.00    +0.000 A 
ATOM      6  C   UNL     1      -1.579  11.623  19.392  0.00  0.00    +0.000 A 
ATOM      7  C   UNL     1      -1.665  10.720  18.324  0.00  0.00    +0.000 A 
ATOM      8  C   UNL     1      -0.516  10.049  17.874  0.00  0.00    +0.000 A 
BRANCH   6   9
ATOM      9  C   UNL     1      -2.734  12.398  19.922  0.00  0.00    +0.000 C 
ATOM     10  O   UNL     1      -2.602  13.432  20.541  0.00  0.00    +0.000 OA
BRANCH   9  11
ATOM     11  O   UNL     1      -3.899  11.726  19.708  0.00  0.00    +0.000 OA
BRANCH  11  12
ATOM     12  C   UNL     1      -5.059  12.554  19.498  0.00  0.00    +0.000 C 
BRANCH  12  13
ATOM     13  C   UNL     1      -6.006  11.994  18.410  0.00  0.00    +0.000 C 
ATOM     14  C   UNL     1      -6.227  10.488  18.654  0.00  0.00    +0.000 C 
ATOM     15  C   UNL     1      -7.363  12.714  18.502  0.00  0.00    +0.000 C 
BRANCH  13  16
ATOM     16  C   UNL     1      -5.394  12.217  17.009  0.00  0.00    +0.000 C 
BRANCH  16  17
ATOM     17  O   UNL     1      -4.984  11.001  16.386  0.00  0.00    +0.000 OA
ATOM     18  H   UNL     1      -5.728  10.377  16.409  0.00  0.00    +0.000 HD
ENDBRANCH  16  17
ENDBRANCH  13  16
ENDBRANCH  12  13
ENDBRANCH  11  12
ENDBRANCH   9  11
ENDBRANCH   6   9
ENDBRANCH   1   3
BRANCH   1  19
ATOM     19  C   UNL     1       1.886   8.163  17.821  0.00  0.00    +0.000 C 
BRANCH  19  20
ATOM     20  C   UNL     1       2.514   7.495  19.034  0.00  0.00    +0.000 C 
BRANCH  20  21
ATOM     21  C   UNL     1       1.933   6.099  19.227  0.00  0.00    +0.000 C 
BRANCH  21  22
ATOM     22  C   UNL     1       1.839   5.747  20.706  0.00  0.00    +0.000 C 
BRANCH  22  23
ATOM     23  C   UNL     1       1.772   4.237  20.888  0.00  0.00    +0.000 C 
BRANCH  23  24
ATOM     24  C   UNL     1       0.946   3.604  19.779  0.00  0.00    +0.000 C 
BRANCH  24  25
ATOM     25  C   UNL     1       1.480   2.221  19.441  0.00  0.00    +0.000 C 
BRANCH  25  26
ATOM     26  C   UNL     1       2.949   2.304  19.059  0.00  0.00    +0.000 C 
BRANCH  26  27
ATOM     27  C   UNL     1       3.093   2.795  17.626  0.00  0.00    +0.000 C 
BRANCH  27  28
ATOM     28  C   UNL     1       4.179   3.855  17.537  0.00  0.00    +0.000 C 
BRANCH  28  29
ATOM     29  C   UNL     1       4.947   3.939  18.848  0.00  0.00    +0.000 C 
BRANCH  29  30
ATOM     30  C   UNL     1       5.649   5.283  18.964  0.00  0.00    +0.000 C 
BRANCH  30  31
ATOM     31  C   UNL     1       5.670   5.994  17.616  0.00  0.00    +0.000 C 
BRANCH  31  32
ATOM     32  C   UNL     1       7.103   6.271  17.182  0.00  0.00    +0.000 C 
BRANCH  32  34
ATOM     33  C   UNL     1       8.019   8.516  17.816  0.00  0.00    +0.000 C 
ATOM     34  C   UNL     1       7.848   7.070  18.245  0.00  0.00    +0.000 C 
ENDBRANCH  32  34
ENDBRANCH  31  32
ENDBRANCH  30  31
ENDBRANCH  29  30
ENDBRANCH  28  29
ENDBRANCH  27  28
ENDBRANCH  26  27
ENDBRANCH  25  26
ENDBRANCH  24  25
ENDBRANCH  23  24
ENDBRANCH  22  23
ENDBRANCH  21  22
ENDBRANCH  20  21
ENDBRANCH  19  20
ENDBRANCH   1  19
TORSDOF 22
ENDMDL
MODEL 2
REMARK VINA RESULT:      -5.8      5.008     10.512
REMARK  Name = 
REMARK  25 active torsions:
REMARK  status: ('A' for Active; 'I' for Inactive)
REMARK    1  A    between atoms: C_1  and  C_2
REMARK    2  A    between atoms: C_2  and  C_3
REMARK    3  A    between atoms: C_3  and  C_4
REMARK    4  A    between atoms: C_4  and  C_5
REMARK    5  A    between atoms: C_5  and  C_6
REMARK    6  A    between atoms: C_6  and  C_7
REMARK    7  A    between atoms: C_7  and  C_8
REMARK    8  A    between atoms: C_8  and  C_9
REMARK    9  A    between atoms: C_9  and  C_10
REMARK   10  A    between atoms: C_10  and  C_11
REMARK   11  A    between atoms: C_11  and  C_12
REMARK   12  A    between atoms: C_12  and  C_13
REMARK   13  A    between atoms: C_13  and  C_14
REMARK   14  A    between atoms: C_14  and  C_15
REMARK   15  A    between atoms: C_15  and  C_16
REMARK   16  A    between atoms: C_16  and  N_17
REMARK   17  A    between atoms: N_17  and  C_18
REMARK   18  A    between atoms: C_21  and  C_22
REMARK   19  A    between atoms: C_22  and  O_24
REMARK   20  A    between atoms: O_24  and  C_25
REMARK   21  A    between atoms: C_25  and  C_26
REMARK   22  A    between atoms: C_26  and  C_27
REMARK   23  A    between atoms: C_26  and  C_28
REMARK   24  A    between atoms: C_26  and  C_29
REMARK   25  A    between atoms: C_29  and  O_30
REMARK                            x       y       z     vdW  Elec       q    Type
REMARK                         _______ _______ _______ _____ _____    ______ ____
ROOT
ATOM      1  N   UNL     1       3.709   2.427  20.031  0.00  0.00    +0.000 N 
ATOM      2  H   UNL     1       3.729   1.417  19.995  0.00  0.00    +0.000 HD
ENDROOT
BRANCH   1   3
ATOM      3  C   UNL     1       4.300   3.099  18.976  0.00  0.00    +0.000 A 
ATOM      4  C   UNL     1       5.352   3.998  19.163  0.00  0.00    +0.000 A 
ATOM      5  C   UNL     1       5.973   4.621  18.083  0.00  0.00    +0.000 A 
ATOM      6  C   UNL     1       5.574   4.341  16.774  0.00  0.00    +0.000 A 
ATOM      7  C   UNL     1       4.516   3.446  16.568  0.00  0.00    +0.000 A 
ATOM      8  C   UNL     1       3.899   2.820  17.664  0.00  0.00    +0.000 A 
BRANCH   6   9
ATOM      9  C   UNL     1       6.305   5.032  15.677  0.00  0.00    +0.000 C 
ATOM     10  O   UNL     1       7.214   5.808  15.881  0.00  0.00    +0.000 OA
BRANCH   9  11
ATOM     11  O   UNL     1       5.734   4.753  14.472  0.00  0.00    +0.000 OA
BRANCH  11  12
ATOM     12  C   UNL     1       6.147   3.513  13.867  0.00  0.00    +0.000 C 
BRANCH  12  13
ATOM     13  C   UNL     1       6.343   3.630  12.336  0.00  0.00    +0.000 C 
ATOM     14  C   UNL     1       7.347   2.557  11.869  0.00  0.00    +0.000 C 
ATOM     15  C   UNL     1       4.997   3.386  11.634  0.00  0.00    +0.000 C 
BRANCH  13  16
ATOM     16  C   UNL     1       6.870   5.037  11.976  0.00  0.00    +0.000 C 
BRANCH  16  17
ATOM     17  O   UNL     1       8.011   5.413  12.746  0.00  0.00    +0.000 OA
ATOM     18  H   UNL     1       7.787   6.203  13.265  0.00  0.00    +0.000 HD
ENDBRANCH  16  17
ENDBRANCH  13  16
ENDBRANCH  12  13
ENDBRANCH  11  12
ENDBRANCH   9  11
ENDBRANCH   6   9
ENDBRANCH   1   3
BRANCH   1  19
ATOM     19  C   UNL     1       2.807   3.101  20.948  0.00  0.00    +0.000 C 
BRANCH  19  20
ATOM     20  C   UNL     1       1.495   3.433  20.256  0.00  0.00    +0.000 C 
BRANCH  20  21
ATOM     21  C   UNL     1       1.169   4.912  20.425  0.00  0.00    +0.000 C 
BRANCH  21  22
ATOM     22  C   UNL     1       2.333   5.784  19.971  0.00  0.00    +0.000 C 
BRANCH  22  23
ATOM     23  C   UNL     1       2.337   5.915  18.455  0.00  0.00    +0.000 C 
BRANCH  23  24
ATOM     24  C   UNL     1       2.912   7.260  18.039  0.00  0.00    +0.000 C 
BRANCH  24  25
ATOM     25  C   UNL     1       2.187   8.391  18.751  0.00  0.00    +0.000 C 
BRANCH  25  26
ATOM     26  C   UNL     1       1.685   9.412  17.742  0.00  0.00    +0.000 C 
BRANCH  26  27
ATOM     27  C   UNL     1       1.635  10.795  18.374  0.00  0.00    +0.000 C 
BRANCH  27  28
ATOM     28  C   UNL     1       0.758  10.778  19.615  0.00  0.00    +0.000 C 
BRANCH  28  29
ATOM     29  C   UNL     1      -0.340  11.826  19.502  0.00  0.00    +0.000 C 
BRANCH  29  30
ATOM     30  C   UNL     1      -1.278  11.487  18.354  0.00  0.00    +0.000 C 
BRANCH  30  31
ATOM     31  C   UNL     1      -1.960  10.146  18.598  0.00  0.00    +0.000 C 
BRANCH  31  32
ATOM     32  C   UNL     1      -2.823   9.761  17.404  0.00  0.00    +0.000 C 
BRANCH  32  34
ATOM     33  C   UNL     1      -3.109  10.555  15.044  0.00  0.00    +0.000 C 
ATOM     34  C   UNL     1      -3.076  10.966  16.505  0.00  0.00    +0.000 C 
ENDBRANCH  32  34
ENDBRANCH  31  32
ENDBRANCH  30  31
ENDBRANCH  29  30
ENDBRANCH  28  29
ENDBRANCH  27  28
ENDBRANCH  26  27
ENDBRANCH  25  26
ENDBRANCH  24  25
ENDBRANCH  23  24
ENDBRANCH  22  23
ENDBRANCH  21  22
ENDBRANCH  20  21
ENDBRANCH  19  20
ENDBRANCH   1  19
TORSDOF 22
ENDMDL
MODEL 3
REMARK VINA RESULT:      -5.7      6.861     11.240
REMARK  Name = 
REMARK  25 active torsions:
REMARK  status: ('A' for Active; 'I' for Inactive)
REMARK    1  A    between atoms: C_1  and  C_2
REMARK    2  A    between atoms: C_2  and  C_3
REMARK    3  A    between atoms: C_3  and  C_4
REMARK    4  A    between atoms: C_4  and  C_5
REMARK    5  A    between atoms: C_5  and  C_6
REMARK    6  A    between atoms: C_6  and  C_7
REMARK    7  A    between atoms: C_7  and  C_8
REMARK    8  A    between atoms: C_8  and  C_9
REMARK    9  A    between atoms: C_9  and  C_10
REMARK   10  A    between atoms: C_10  and  C_11
REMARK   11  A    between atoms: C_11  and  C_12
REMARK   12  A    between atoms: C_12  and  C_13
REMARK   13  A    between atoms: C_13  and  C_14
REMARK   14  A    between atoms: C_14  and  C_15
REMARK   15  A    between atoms: C_15  and  C_16
REMARK   16  A    between atoms: C_16  and  N_17
REMARK   17  A    between atoms: N_17  and  C_18
REMARK   18  A    between atoms: C_21  and  C_22
REMARK   19  A    between atoms: C_22  and  O_24
REMARK   20  A    between atoms: O_24  and  C_25
REMARK   21  A    between atoms: C_25  and  C_26
REMARK   22  A    between atoms: C_26  and  C_27
REMARK   23  A    between atoms: C_26  and  C_28
REMARK   24  A    between atoms: C_26  and  C_29
REMARK   25  A    between atoms: C_29  and  O_30
REMARK                            x       y       z     vdW  Elec       q    Type
REMARK                         _______ _______ _______ _____ _____    ______ ____
ROOT
ATOM      1  N   UNL     1       8.650   8.211  18.775  0.00  0.00    +0.000 N 
ATOM      2  H   UNL     1       9.130   8.089  19.656  0.00  0.00    +0.000 HD
ENDROOT
BRANCH   1   3
ATOM      3  C   UNL     1       7.805   7.190  18.379  0.00  0.00    +0.000 A 
ATOM      4  C   UNL     1       7.867   5.914  18.942  0.00  0.00    +0.000 A 
ATOM      5  C   UNL     1       6.971   4.914  18.573  0.00  0.00    +0.000 A 
ATOM      6  C   UNL     1       5.962   5.172  17.641  0.00  0.00    +0.000 A 
ATOM      7  C   UNL     1       5.889   6.446  17.061  0.00  0.00    +0.000 A 
ATOM      8  C   UNL     1       6.796   7.447  17.444  0.00  0.00    +0.000 A 
BRANCH   6   9
ATOM      9  C   UNL     1       5.031   4.056  17.319  0.00  0.00    +0.000 C 
ATOM     10  O   UNL     1       4.698   3.786  16.185  0.00  0.00    +0.000 OA
BRANCH   9  11
ATOM     11  O   UNL     1       4.549   3.492  18.460  0.00  0.00    +0.000 OA
BRANCH  11  12
ATOM     12  C   UNL     1       3.580   4.281  19.177  0.00  0.00    +0.000 C 
BRANCH  12  13
ATOM     13  C   UNL     1       2.142   3.724  19.051  0.00  0.00    +0.000 C 
ATOM     14  C   UNL     1       1.323   4.149  20.287  0.00  0.00    +0.000 C 
ATOM     15  C   UNL     1       1.479   4.312  17.794  0.00  0.00    +0.000 C 
BRANCH  13  16
ATOM     16  C   UNL     1       2.179   2.183  18.947  0.00  0.00    +0.000 C 
BRANCH  16  17
ATOM     17  O   UNL     1       2.471   1.726  17.628  0.00  0.00    +0.000 OA
ATOM     18  H   UNL     1       2.270   0.777  17.579  0.00  0.00    +0.000 HD
ENDBRANCH  16  17
ENDBRANCH  13  16
ENDBRANCH  12  13
ENDBRANCH  11  12
ENDBRANCH   9  11
ENDBRANCH   6   9
ENDBRANCH   1   3
BRANCH   1  19
ATOM     19  C   UNL     1       8.587   9.527  18.162  0.00  0.00    +0.000 C 
BRANCH  19  20
ATOM     20  C   UNL     1       8.935  10.604  19.176  0.00  0.00    +0.000 C 
BRANCH  20  21
ATOM     21  C   UNL     1      10.413  10.963  19.080  0.00  0.00    +0.000 C 
BRANCH  21  22
ATOM     22  C   UNL     1      10.746  11.543  17.711  0.00  0.00    +0.000 C 
BRANCH  22  23
ATOM     23  C   UNL     1      10.477  13.041  17.692  0.00  0.00    +0.000 C 
BRANCH  23  24
ATOM     24  C   UNL     1      11.430  13.740  16.734  0.00  0.00    +0.000 C 
BRANCH  24  25
ATOM     25  C   UNL     1      11.308  15.250  16.870  0.00  0.00    +0.000 C 
BRANCH  25  26
ATOM     26  C   UNL     1      10.503  15.603  18.110  0.00  0.00    +0.000 C 
BRANCH  26  27
ATOM     27  C   UNL     1       9.549  16.749  17.810  0.00  0.00    +0.000 C 
BRANCH  27  28
ATOM     28  C   UNL     1       8.672  17.037  19.017  0.00  0.00    +0.000 C 
BRANCH  28  29
ATOM     29  C   UNL     1       7.684  15.900  19.238  0.00  0.00    +0.000 C 
BRANCH  29  30
ATOM     30  C   UNL     1       7.592  15.560  20.718  0.00  0.00    +0.000 C 
BRANCH  30  31
ATOM     31  C   UNL     1       8.774  16.150  21.477  0.00  0.00    +0.000 C 
BRANCH  31  32
ATOM     32  C   UNL     1       9.434  15.086  22.345  0.00  0.00    +0.000 C 
BRANCH  32  34
ATOM     33  C   UNL     1       9.305  12.590  22.172  0.00  0.00    +0.000 C 
ATOM     34  C   UNL     1       9.807  13.863  21.516  0.00  0.00    +0.000 C 
ENDBRANCH  32  34
ENDBRANCH  31  32
ENDBRANCH  30  31
ENDBRANCH  29  30
ENDBRANCH  28  29
ENDBRANCH  27  28
ENDBRANCH  26  27
ENDBRANCH  25  26
ENDBRANCH  24  25
ENDBRANCH  23  24
ENDBRANCH  22  23
ENDBRANCH  21  22
ENDBRANCH  20  21
ENDBRANCH  19  20
ENDBRANCH   1  19
TORSDOF 22
ENDMDL
MODEL 4
REMARK VINA RESULT:      -5.6      3.363      4.631
REMARK  Name = 
REMARK  25 active torsions:
REMARK  status: ('A' for Active; 'I' for Inactive)
REMARK    1  A    between atoms: C_1  and  C_2
REMARK    2  A    between atoms: C_2  and  C_3
REMARK    3  A    between atoms: C_3  and  C_4
REMARK    4  A    between atoms: C_4  and  C_5
REMARK    5  A    between atoms: C_5  and  C_6
REMARK    6  A    between atoms: C_6  and  C_7
REMARK    7  A    between atoms: C_7  and  C_8
REMARK    8  A    between atoms: C_8  and  C_9
REMARK    9  A    between atoms: C_9  and  C_10
REMARK   10  A    between atoms: C_10  and  C_11
REMARK   11  A    between atoms: C_11  and  C_12
REMARK   12  A    between atoms: C_12  and  C_13
REMARK   13  A    between atoms: C_13  and  C_14
REMARK   14  A    between atoms: C_14  and  C_15
REMARK   15  A    between atoms: C_15  and  C_16
REMARK   16  A    between atoms: C_16  and  N_17
REMARK   17  A    between atoms: N_17  and  C_18
REMARK   18  A    between atoms: C_21  and  C_22
REMARK   19  A    between atoms: C_22  and  O_24
REMARK   20  A    between atoms: O_24  and  C_25
REMARK   21  A    between atoms: C_25  and  C_26
REMARK   22  A    between atoms: C_26  and  C_27
REMARK   23  A    between atoms: C_26  and  C_28
REMARK   24  A    between atoms: C_26  and  C_29
REMARK   25  A    between atoms: C_29  and  O_30
REMARK                            x       y       z     vdW  Elec       q    Type
REMARK                         _______ _______ _______ _____ _____    ______ ____
ROOT
ATOM      1  N   UNL     1       1.324   7.797  20.211  0.00  0.00    +0.000 N 
ATOM      2  H   UNL     1       1.249   7.831  19.204  0.00  0.00    +0.000 HD
ENDROOT
BRANCH   1   3
ATOM      3  C   UNL     1       0.761   8.847  20.913  0.00  0.00    +0.000 A 
ATOM      4  C   UNL     1       0.559  10.103  20.338  0.00  0.00    +0.000 A 
ATOM      5  C   UNL     1      -0.062  11.132  21.041  0.00  0.00    +0.000 A 
ATOM      6  C   UNL     1      -0.525  10.924  22.344  0.00  0.00    +0.000 A 
ATOM      7  C   UNL     1      -0.324   9.672  22.939  0.00  0.00    +0.000 A 
ATOM      8  C   UNL     1       0.299   8.641  22.219  0.00  0.00    +0.000 A 
BRANCH   6   9
ATOM      9  C   UNL     1      -1.197  12.069  23.017  0.00  0.00    +0.000 C 
ATOM     10  O   UNL     1      -0.605  13.072  23.353  0.00  0.00    +0.000 OA
BRANCH   9  11
ATOM     11  O   UNL     1      -2.498  11.768  23.285  0.00  0.00    +0.000 OA
BRANCH  11  12
ATOM     12  C   UNL     1      -3.472  12.573  22.593  0.00  0.00    +0.000 C 
BRANCH  12  13
ATOM     13  C   UNL     1      -4.475  13.258  23.552  0.00  0.00    +0.000 C 
ATOM     14  C   UNL     1      -4.608  12.413  24.835  0.00  0.00    +0.000 C 
ATOM     15  C   UNL     1      -3.943  14.651  23.930  0.00  0.00    +0.000 C 
BRANCH  13  16
ATOM     16  C   UNL     1      -5.853  13.396  22.866  0.00  0.00    +0.000 C 
BRANCH  16  17
ATOM     17  O   UNL     1      -6.243  12.214  22.169  0.00  0.00    +0.000 OA
ATOM     18  H   UNL     1      -5.698  12.133  21.369  0.00  0.00    +0.000 HD
ENDBRANCH  16  17
ENDBRANCH  13  16
ENDBRANCH  12  13
ENDBRANCH  11  12
ENDBRANCH   9  11
ENDBRANCH   6   9
ENDBRANCH   1   3
BRANCH   1  19
ATOM     19  C   UNL     1       1.680   6.551  20.868  0.00  0.00    +0.000 C 
BRANCH  19  20
ATOM     20  C   UNL     1       1.512   5.380  19.914  0.00  0.00    +0.000 C 
BRANCH  20  21
ATOM     21  C   UNL     1       1.302   4.088  20.695  0.00  0.00    +0.000 C 
BRANCH  21  22
ATOM     22  C   UNL     1       2.613   3.331  20.861  0.00  0.00    +0.000 C 
BRANCH  22  23
ATOM     23  C   UNL     1       2.741   2.253  19.794  0.00  0.00    +0.000 C 
BRANCH  23  24
ATOM     24  C   UNL     1       3.876   2.584  18.837  0.00  0.00    +0.000 C 
BRANCH  24  25
ATOM     25  C   UNL     1       4.755   3.683  19.415  0.00  0.00    +0.000 C 
BRANCH  25  26
ATOM     26  C   UNL     1       4.986   4.771  18.379  0.00  0.00    +0.000 C 
BRANCH  26  27
ATOM     27  C   UNL     1       4.429   4.342  17.030  0.00  0.00    +0.000 C 
BRANCH  27  28
ATOM     28  C   UNL     1       5.259   4.933  15.903  0.00  0.00    +0.000 C 
BRANCH  28  29
ATOM     29  C   UNL     1       5.943   3.827  15.112  0.00  0.00    +0.000 C 
BRANCH  29  30
ATOM     30  C   UNL     1       6.753   4.418  13.969  0.00  0.00    +0.000 C 
BRANCH  30  31
ATOM     31  C   UNL     1       6.452   3.687  12.666  0.00  0.00    +0.000 C 
BRANCH  31  32
ATOM     32  C   UNL     1       5.008   3.925  12.243  0.00  0.00    +0.000 C 
BRANCH  32  34
ATOM     33  C   UNL     1       3.260   3.213  10.594  0.00  0.00    +0.000 C 
ATOM     34  C   UNL     1       4.511   2.796  11.347  0.00  0.00    +0.000 C 
ENDBRANCH  32  34
ENDBRANCH  31  32
ENDBRANCH  30  31
ENDBRANCH  29  30
ENDBRANCH  28  29
ENDBRANCH  27  28
ENDBRANCH  26  27
ENDBRANCH  25  26
ENDBRANCH  24  25
ENDBRANCH  23  24
ENDBRANCH  22  23
ENDBRANCH  21  22
ENDBRANCH  20  21
ENDBRANCH  19  20
ENDBRANCH   1  19
TORSDOF 22
ENDMDL
MODEL 5
REMARK VINA RESULT:      -5.6      6.812     11.325
REMARK  Name = 
REMARK  25 active torsions:
REMARK  status: ('A' for Active; 'I' for Inactive)
REMARK    1  A    between atoms: C_1  and  C_2
REMARK    2  A    between atoms: C_2  and  C_3
REMARK    3  A    between atoms: C_3  and  C_4
REMARK    4  A    between atoms: C_4  and  C_5
REMARK    5  A    between atoms: C_5  and  C_6
REMARK    6  A    between atoms: C_6  and  C_7
REMARK    7  A    between atoms: C_7  and  C_8
REMARK    8  A    between atoms: C_8  and  C_9
REMARK    9  A    between atoms: C_9  and  C_10
REMARK   10  A    between atoms: C_10  and  C_11
REMARK   11  A    between atoms: C_11  and  C_12
REMARK   12  A    between atoms: C_12  and  C_13
REMARK   13  A    between atoms: C_13  and  C_14
REMARK   14  A    between atoms: C_14  and  C_15
REMARK   15  A    between atoms: C_15  and  C_16
REMARK   16  A    between atoms: C_16  and  N_17
REMARK   17  A    between atoms: N_17  and  C_18
REMARK   18  A    between atoms: C_21  and  C_22
REMARK   19  A    between atoms: C_22  and  O_24
REMARK   20  A    between atoms: O_24  and  C_25
REMARK   21  A    between atoms: C_25  and  C_26
REMARK   22  A    between atoms: C_26  and  C_27
REMARK   23  A    between atoms: C_26  and  C_28
REMARK   24  A    between atoms: C_26  and  C_29
REMARK   25  A    between atoms: C_29  and  O_30
REMARK                            x       y       z     vdW  Elec       q    Type
REMARK                         _______ _______ _______ _____ _____    ______ ____
ROOT
ATOM      1  N   UNL     1       8.736   8.218  18.959  0.00  0.00    +0.000 N 
ATOM      2  H   UNL     1       9.112   7.999  19.871  0.00  0.00    +0.000 HD
ENDROOT
BRANCH   1   3
ATOM      3  C   UNL     1       7.960   7.244  18.355  0.00  0.00    +0.000 A 
ATOM      4  C   UNL     1       7.865   5.948  18.865  0.00  0.00    +0.000 A 
ATOM      5  C   UNL     1       7.033   4.998  18.279  0.00  0.00    +0.000 A 
ATOM      6  C   UNL     1       6.247   5.326  17.171  0.00  0.00    +0.000 A 
ATOM      7  C   UNL     1       6.336   6.621  16.642  0.00  0.00    +0.000 A 
ATOM      8  C   UNL     1       7.174   7.573  17.244  0.00  0.00    +0.000 A 
BRANCH   6   9
ATOM      9  C   UNL     1       5.370   4.259  16.618  0.00  0.00    +0.000 C 
ATOM     10  O   UNL     1       5.740   3.482  15.764  0.00  0.00    +0.000 OA
BRANCH   9  11
ATOM     11  O   UNL     1       4.109   4.370  17.120  0.00  0.00    +0.000 OA
BRANCH  11  12
ATOM     12  C   UNL     1       3.489   3.129  17.508  0.00  0.00    +0.000 C 
BRANCH  12  13
ATOM     13  C   UNL     1       2.735   3.231  18.856  0.00  0.00    +0.000 C 
ATOM     14  C   UNL     1       2.262   4.684  19.065  0.00  0.00    +0.000 C 
ATOM     15  C   UNL     1       1.503   2.311  18.818  0.00  0.00    +0.000 C 
BRANCH  13  16
ATOM     16  C   UNL     1       3.665   2.808  20.015  0.00  0.00    +0.000 C 
BRANCH  16  17
ATOM     17  O   UNL     1       4.966   2.428  19.568  0.00  0.00    +0.000 OA
ATOM     18  H   UNL     1       5.625   2.946  20.059  0.00  0.00    +0.000 HD
ENDBRANCH  16  17
ENDBRANCH  13  16
ENDBRANCH  12  13
ENDBRANCH  11  12
ENDBRANCH   9  11
ENDBRANCH   6   9
ENDBRANCH   1   3
BRANCH   1  19
ATOM     19  C   UNL     1       8.724   9.593  18.492  0.00  0.00    +0.000 C 
BRANCH  19  20
ATOM     20  C   UNL     1       9.308  10.518  19.547  0.00  0.00    +0.000 C 
BRANCH  20  21
ATOM     21  C   UNL     1      10.654  11.064  19.083  0.00  0.00    +0.000 C 
BRANCH  21  22
ATOM     22  C   UNL     1      11.244  12.013  20.117  0.00  0.00    +0.000 C 
BRANCH  22  23
ATOM     23  C   UNL     1      10.496  13.339  20.107  0.00  0.00    +0.000 C 
BRANCH  23  24
ATOM     24  C   UNL     1      11.082  14.273  19.060  0.00  0.00    +0.000 C 
BRANCH  24  25
ATOM     25  C   UNL     1      10.012  14.699  18.069  0.00  0.00    +0.000 C 
BRANCH  25  26
ATOM     26  C   UNL     1       8.677  14.069  18.432  0.00  0.00    +0.000 C 
BRANCH  26  27
ATOM     27  C   UNL     1       7.532  14.911  17.890  0.00  0.00    +0.000 C 
BRANCH  27  28
ATOM     28  C   UNL     1       6.488  15.143  18.971  0.00  0.00    +0.000 C 
BRANCH  28  29
ATOM     29  C   UNL     1       7.061  14.813  20.341  0.00  0.00    +0.000 C 
BRANCH  29  30
ATOM     30  C   UNL     1       6.737  15.922  21.331  0.00  0.00    +0.000 C 
BRANCH  30  31
ATOM     31  C   UNL     1       8.005  16.418  22.014  0.00  0.00    +0.000 C 
BRANCH  31  32
ATOM     32  C   UNL     1       8.995  16.944  20.983  0.00  0.00    +0.000 C 
BRANCH  32  34
ATOM     33  C   UNL     1      10.497  15.965  22.735  0.00  0.00    +0.000 C 
ATOM     34  C   UNL     1      10.424  16.854  21.506  0.00  0.00    +0.000 C 
ENDBRANCH  32  34
ENDBRANCH  31  32
ENDBRANCH  30  31
ENDBRANCH  29  30
ENDBRANCH  28  29
ENDBRANCH  27  28
ENDBRANCH  26  27
ENDBRANCH  25  26
ENDBRANCH  24  25
ENDBRANCH  23  24
ENDBRANCH  22  23
ENDBRANCH  21  22
ENDBRANCH  20  21
ENDBRANCH  19  20
ENDBRANCH   1  19
TORSDOF 22
ENDMDL
MODEL 6
REMARK VINA RESULT:      -5.6      1.944      2.988
REMARK  Name = 
REMARK  25 active torsions:
REMARK  status: ('A' for Active; 'I' for Inactive)
REMARK    1  A    between atoms: C_1  and  C_2
REMARK    2  A    between atoms: C_2  and  C_3
REMARK    3  A    between atoms: C_3  and  C_4
REMARK    4  A    between atoms: C_4  and  C_5
REMARK    5  A    between atoms: C_5  and  C_6
REMARK    6  A    between atoms: C_6  and  C_7
REMARK    7  A    between atoms: C_7  and  C_8
REMARK    8  A    between atoms: C_8  and  C_9
REMARK    9  A    between atoms: C_9  and  C_10
REMARK   10  A    between atoms: C_10  and  C_11
REMARK   11  A    between atoms: C_11  and  C_12
REMARK   12  A    between atoms: C_12  and  C_13
REMARK   13  A    between atoms: C_13  and  C_14
REMARK   14  A    between atoms: C_14  and  C_15
REMARK   15  A    between atoms: C_15  and  C_16
REMARK   16  A    between atoms: C_16  and  N_17
REMARK   17  A    between atoms: N_17  and  C_18
REMARK   18  A    between atoms: C_21  and  C_22
REMARK   19  A    between atoms: C_22  and  O_24
REMARK   20  A    between atoms: O_24  and  C_25
REMARK   21  A    between atoms: C_25  and  C_26
REMARK   22  A    between atoms: C_26  and  C_27
REMARK   23  A    between atoms: C_26  and  C_28
REMARK   24  A    between atoms: C_26  and  C_29
REMARK   25  A    between atoms: C_29  and  O_30
REMARK                            x       y       z     vdW  Elec       q    Type
REMARK                         _______ _______ _______ _____ _____    ______ ____
ROOT
ATOM      1  N   UNL     1       1.705   7.851  20.953  0.00  0.00    +0.000 N 
ATOM      2  H   UNL     1       2.705   7.902  21.090  0.00  0.00    +0.000 HD
ENDROOT
BRANCH   1   3
ATOM      3  C   UNL     1       1.105   8.939  20.343  0.00  0.00    +0.000 A 
ATOM      4  C   UNL     1       0.150   9.722  20.993  0.00  0.00    +0.000 A 
ATOM      5  C   UNL     1      -0.401  10.847  20.384  0.00  0.00    +0.000 A 
ATOM      6  C   UNL     1       0.010  11.239  19.107  0.00  0.00    +0.000 A 
ATOM      7  C   UNL     1       0.963  10.459  18.438  0.00  0.00    +0.000 A 
ATOM      8  C   UNL     1       1.515   9.329  19.063  0.00  0.00    +0.000 A 
BRANCH   6   9
ATOM      9  C   UNL     1      -0.611  12.465  18.538  0.00  0.00    +0.000 C 
ATOM     10  O   UNL     1      -0.272  13.583  18.861  0.00  0.00    +0.000 OA
BRANCH   9  11
ATOM     11  O   UNL     1      -1.652  12.139  17.722  0.00  0.00    +0.000 OA
BRANCH  11  12
ATOM     12  C   UNL     1      -1.695  10.763  17.298  0.00  0.00    +0.000 C 
BRANCH  12  13
ATOM     13  C   UNL     1      -3.099  10.329  16.813  0.00  0.00    +0.000 C 
ATOM     14  C   UNL     1      -2.968   9.614  15.453  0.00  0.00    +0.000 C 
ATOM     15  C   UNL     1      -3.704   9.347  17.831  0.00  0.00    +0.000 C 
BRANCH  13  16
ATOM     16  C   UNL     1      -4.016  11.564  16.674  0.00  0.00    +0.000 C 
BRANCH  16  17
ATOM     17  O   UNL     1      -4.396  12.114  17.934  0.00  0.00    +0.000 OA
ATOM     18  H   UNL     1      -3.986  11.585  18.638  0.00  0.00    +0.000 HD
ENDBRANCH  16  17
ENDBRANCH  13  16
ENDBRANCH  12  13
ENDBRANCH  11  12
ENDBRANCH   9  11
ENDBRANCH   6   9
ENDBRANCH   1   3
BRANCH   1  19
ATOM     19  C   UNL     1       1.022   6.575  21.067  0.00  0.00    +0.000 C 
BRANCH  19  20
ATOM     20  C   UNL     1       1.755   5.507  20.272  0.00  0.00    +0.000 C 
BRANCH  20  21
ATOM     21  C   UNL     1       1.890   4.233  21.099  0.00  0.00    +0.000 C 
BRANCH  21  22
ATOM     22  C   UNL     1       1.133   3.080  20.453  0.00  0.00    +0.000 C 
BRANCH  22  23
ATOM     23  C   UNL     1       1.421   3.028  18.959  0.00  0.00    +0.000 C 
BRANCH  23  24
ATOM     24  C   UNL     1       2.552   2.053  18.669  0.00  0.00    +0.000 C 
BRANCH  24  25
ATOM     25  C   UNL     1       3.852   2.804  18.426  0.00  0.00    +0.000 C 
BRANCH  25  26
ATOM     26  C   UNL     1       3.607   3.999  17.518  0.00  0.00    +0.000 C 
BRANCH  26  27
ATOM     27  C   UNL     1       4.266   5.242  18.095  0.00  0.00    +0.000 C 
BRANCH  27  28
ATOM     28  C   UNL     1       5.232   4.862  19.206  0.00  0.00    +0.000 C 
BRANCH  28  29
ATOM     29  C   UNL     1       6.582   5.530  18.986  0.00  0.00    +0.000 C 
BRANCH  29  30
ATOM     30  C   UNL     1       7.429   4.707  18.028  0.00  0.00    +0.000 C 
BRANCH  30  31
ATOM     31  C   UNL     1       7.293   5.235  16.605  0.00  0.00    +0.000 C 
BRANCH  31  32
ATOM     32  C   UNL     1       6.869   4.118  15.660  0.00  0.00    +0.000 C 
BRANCH  32  34
ATOM     33  C   UNL     1       5.363   5.968  14.892  0.00  0.00    +0.000 C 
ATOM     34  C   UNL     1       6.046   4.670  14.501  0.00  0.00    +0.000 C 
ENDBRANCH  32  34
ENDBRANCH  31  32
ENDBRANCH  30  31
ENDBRANCH  29  30
ENDBRANCH  28  29
ENDBRANCH  27  28
ENDBRANCH  26  27
ENDBRANCH  25  26
ENDBRANCH  24  25
ENDBRANCH  23  24
ENDBRANCH  22  23
ENDBRANCH  21  22
ENDBRANCH  20  21
ENDBRANCH  19  20
ENDBRANCH   1  19
TORSDOF 22
ENDMDL
MODEL 7
REMARK VINA RESULT:      -5.5      4.095     10.798
REMARK  Name = 
REMARK  25 active torsions:
REMARK  status: ('A' for Active; 'I' for Inactive)
REMARK    1  A    between atoms: C_1  and  C_2
REMARK    2  A    between atoms: C_2  and  C_3
REMARK    3  A    between atoms: C_3  and  C_4
REMARK    4  A    between atoms: C_4  and  C_5
REMARK    5  A    between atoms: C_5  and  C_6
REMARK    6  A    between atoms: C_6  and  C_7
REMARK    7  A    between atoms: C_7  and  C_8
REMARK    8  A    between atoms: C_8  and  C_9
REMARK    9  A    between atoms: C_9  and  C_10
REMARK   10  A    between atoms: C_10  and  C_11
REMARK   11  A    between atoms: C_11  and  C_12
REMARK   12  A    between atoms: C_12  and  C_13
REMARK   13  A    between atoms: C_13  and  C_14
REMARK   14  A    between atoms: C_14  and  C_15
REMARK   15  A    between atoms: C_15  and  C_16
REMARK   16  A    between atoms: C_16  and  N_17
REMARK   17  A    between atoms: N_17  and  C_18
REMARK   18  A    between atoms: C_21  and  C_22
REMARK   19  A    between atoms: C_22  and  O_24
REMARK   20  A    between atoms: O_24  and  C_25
REMARK   21  A    between atoms: C_25  and  C_26
REMARK   22  A    between atoms: C_26  and  C_27
REMARK   23  A    between atoms: C_26  and  C_28
REMARK   24  A    between atoms: C_26  and  C_29
REMARK   25  A    between atoms: C_29  and  O_30
REMARK                            x       y       z     vdW  Elec       q    Type
REMARK                         _______ _______ _______ _____ _____    ______ ____
ROOT
ATOM      1  N   UNL     1       1.589   8.022  21.213  0.00  0.00    +0.000 N 
ATOM      2  H   UNL     1       1.801   7.864  22.188  0.00  0.00    +0.000 HD
ENDROOT
BRANCH   1   3
ATOM      3  C   UNL     1       1.988   7.041  20.322  0.00  0.00    +0.000 A 
ATOM      4  C   UNL     1       1.837   5.681  20.597  0.00  0.00    +0.000 A 
ATOM      5  C   UNL     1       2.190   4.709  19.664  0.00  0.00    +0.000 A 
ATOM      6  C   UNL     1       2.686   5.074  18.409  0.00  0.00    +0.000 A 
ATOM      7  C   UNL     1       2.851   6.435  18.120  0.00  0.00    +0.000 A 
ATOM      8  C   UNL     1       2.487   7.406  19.066  0.00  0.00    +0.000 A 
BRANCH   6   9
ATOM      9  C   UNL     1       3.019   3.975  17.463  0.00  0.00    +0.000 C 
ATOM     10  O   UNL     1       2.177   3.255  16.971  0.00  0.00    +0.000 OA
BRANCH   9  11
ATOM     11  O   UNL     1       4.369   3.843  17.340  0.00  0.00    +0.000 OA
BRANCH  11  12
ATOM     12  C   UNL     1       4.876   3.928  15.994  0.00  0.00    +0.000 C 
BRANCH  12  13
ATOM     13  C   UNL     1       6.111   4.853  15.876  0.00  0.00    +0.000 C 
ATOM     14  C   UNL     1       7.052   4.599  17.070  0.00  0.00    +0.000 C 
ATOM     15  C   UNL     1       6.864   4.527  14.575  0.00  0.00    +0.000 C 
BRANCH  13  16
ATOM     16  C   UNL     1       5.665   6.332  15.862  0.00  0.00    +0.000 C 
BRANCH  16  17
ATOM     17  O   UNL     1       6.615   7.201  16.477  0.00  0.00    +0.000 OA
ATOM     18  H   UNL     1       6.552   8.075  16.057  0.00  0.00    +0.000 HD
ENDBRANCH  16  17
ENDBRANCH  13  16
ENDBRANCH  12  13
ENDBRANCH  11  12
ENDBRANCH   9  11
ENDBRANCH   6   9
ENDBRANCH   1   3
BRANCH   1  19
ATOM     19  C   UNL     1       0.618   9.035  20.838  0.00  0.00    +0.000 C 
BRANCH  19  20
ATOM     20  C   UNL     1      -0.537   9.055  21.827  0.00  0.00    +0.000 C 
BRANCH  20  21
ATOM     21  C   UNL     1      -0.263  10.062  22.938  0.00  0.00    +0.000 C 
BRANCH  21  22
ATOM     22  C   UNL     1      -1.495  10.911  23.222  0.00  0.00    +0.000 C 
BRANCH  22  23
ATOM     23  C   UNL     1      -1.164  12.390  23.077  0.00  0.00    +0.000 C 
BRANCH  23  24
ATOM     24  C   UNL     1      -2.438  13.209  22.940  0.00  0.00    +0.000 C 
BRANCH  24  25
ATOM     25  C   UNL     1      -3.407  12.529  21.986  0.00  0.00    +0.000 C 
BRANCH  25  26
ATOM     26  C   UNL     1      -3.928  13.527  20.965  0.00  0.00    +0.000 C 
BRANCH  26  27
ATOM     27  C   UNL     1      -5.426  13.347  20.770  0.00  0.00    +0.000 C 
BRANCH  27  28
ATOM     28  C   UNL     1      -5.737  13.034  19.316  0.00  0.00    +0.000 C 
BRANCH  28  29
ATOM     29  C   UNL     1      -6.571  11.766  19.212  0.00  0.00    +0.000 C 
BRANCH  29  30
ATOM     30  C   UNL     1      -5.957  10.811  18.199  0.00  0.00    +0.000 C 
BRANCH  30  31
ATOM     31  C   UNL     1      -4.561  11.276  17.804  0.00  0.00    +0.000 C 
BRANCH  31  32
ATOM     32  C   UNL     1      -4.385  11.212  16.293  0.00  0.00    +0.000 C 
BRANCH  32  34
ATOM     33  C   UNL     1      -2.954  10.126  14.546  0.00  0.00    +0.000 C 
ATOM     34  C   UNL     1      -2.978  10.753  15.928  0.00  0.00    +0.000 C 
ENDBRANCH  32  34
ENDBRANCH  31  32
ENDBRANCH  30  31
ENDBRANCH  29  30
ENDBRANCH  28  29
ENDBRANCH  27  28
ENDBRANCH  26  27
ENDBRANCH  25  26
ENDBRANCH  24  25
ENDBRANCH  23  24
ENDBRANCH  22  23
ENDBRANCH  21  22
ENDBRANCH  20  21
ENDBRANCH  19  20
ENDBRANCH   1  19
TORSDOF 22
ENDMDL
MODEL 8
REMARK VINA RESULT:      -5.5      1.236      1.675
REMARK  Name = 
REMARK  25 active torsions:
REMARK  status: ('A' for Active; 'I' for Inactive)
REMARK    1  A    between atoms: C_1  and  C_2
REMARK    2  A    between atoms: C_2  and  C_3
REMARK    3  A    between atoms: C_3  and  C_4
REMARK    4  A    between atoms: C_4  and  C_5
REMARK    5  A    between atoms: C_5  and  C_6
REMARK    6  A    between atoms: C_6  and  C_7
REMARK    7  A    between atoms: C_7  and  C_8
REMARK    8  A    between atoms: C_8  and  C_9
REMARK    9  A    between atoms: C_9  and  C_10
REMARK   10  A    between atoms: C_10  and  C_11
REMARK   11  A    between atoms: C_11  and  C_12
REMARK   12  A    between atoms: C_12  and  C_13
REMARK   13  A    between atoms: C_13  and  C_14
REMARK   14  A    between atoms: C_14  and  C_15
REMARK   15  A    between atoms: C_15  and  C_16
REMARK   16  A    between atoms: C_16  and  N_17
REMARK   17  A    between atoms: N_17  and  C_18
REMARK   18  A    between atoms: C_21  and  C_22
REMARK   19  A    between atoms: C_22  and  O_24
REMARK   20  A    between atoms: O_24  and  C_25
REMARK   21  A    between atoms: C_25  and  C_26
REMARK   22  A    between atoms: C_26  and  C_27
REMARK   23  A    between atoms: C_26  and  C_28
REMARK   24  A    between atoms: C_26  and  C_29
REMARK   25  A    between atoms: C_29  and  O_30
REMARK                            x       y       z     vdW  Elec       q    Type
REMARK                         _______ _______ _______ _____ _____    ______ ____
ROOT
ATOM      1  N   UNL     1       1.362   9.328  19.276  0.00  0.00    +0.000 N 
ATOM      2  H   UNL     1       1.868   9.768  20.032  0.00  0.00    +0.000 HD
ENDROOT
BRANCH   1   3
ATOM      3  C   UNL     1       0.097   9.820  19.004  0.00  0.00    +0.000 A 
ATOM      4  C   UNL     1      -0.570  10.677  19.880  0.00  0.00    +0.000 A 
ATOM      5  C   UNL     1      -1.818  11.210  19.564  0.00  0.00    +0.000 A 
ATOM      6  C   UNL     1      -2.427  10.916  18.341  0.00  0.00    +0.000 A 
ATOM      7  C   UNL     1      -1.774  10.051  17.453  0.00  0.00    +0.000 A 
ATOM      8  C   UNL     1      -0.514   9.524  17.780  0.00  0.00    +0.000 A 
BRANCH   6   9
ATOM      9  C   UNL     1      -3.749  11.543  18.072  0.00  0.00    +0.000 C 
ATOM     10  O   UNL     1      -4.099  11.889  16.963  0.00  0.00    +0.000 OA
BRANCH   9  11
ATOM     11  O   UNL     1      -4.421  11.760  19.236  0.00  0.00    +0.000 OA
BRANCH  11  12
ATOM     12  C   UNL     1      -5.085  13.035  19.336  0.00  0.00    +0.000 C 
BRANCH  12  13
ATOM     13  C   UNL     1      -6.594  12.901  19.656  0.00  0.00    +0.000 C 
ATOM     14  C   UNL     1      -6.817  11.661  20.545  0.00  0.00    +0.000 C 
ATOM     15  C   UNL     1      -7.060  14.150  20.424  0.00  0.00    +0.000 C 
BRANCH  13  16
ATOM     16  C   UNL     1      -7.402  12.764  18.347  0.00  0.00    +0.000 C 
BRANCH  16  17
ATOM     17  O   UNL     1      -7.015  11.627  17.576  0.00  0.00    +0.000 OA
ATOM     18  H   UNL     1      -6.585  10.986  18.166  0.00  0.00    +0.000 HD
ENDBRANCH  16  17
ENDBRANCH  13  16
ENDBRANCH  12  13
ENDBRANCH  11  12
ENDBRANCH   9  11
ENDBRANCH   6   9
ENDBRANCH   1   3
BRANCH   1  19
ATOM     19  C   UNL     1       2.067   8.486  18.325  0.00  0.00    +0.000 C 
BRANCH  19  20
ATOM     20  C   UNL     1       2.809   7.374  19.047  0.00  0.00    +0.000 C 
BRANCH  20  21
ATOM     21  C   UNL     1       1.865   6.635  19.989  0.00  0.00    +0.000 C 
BRANCH  21  22
ATOM     22  C   UNL     1       2.298   5.186  20.171  0.00  0.00    +0.000 C 
BRANCH  22  23
ATOM     23  C   UNL     1       1.128   4.341  20.655  0.00  0.00    +0.000 C 
BRANCH  23  24
ATOM     24  C   UNL     1       1.230   2.927  20.102  0.00  0.00    +0.000 C 
BRANCH  24  25
ATOM     25  C   UNL     1       1.156   2.944  18.584  0.00  0.00    +0.000 C 
BRANCH  25  26
ATOM     26  C   UNL     1       2.477   2.483  17.988  0.00  0.00    +0.000 C 
BRANCH  26  27
ATOM     27  C   UNL     1       2.967   3.486  16.955  0.00  0.00    +0.000 C 
BRANCH  27  28
ATOM     28  C   UNL     1       4.335   4.021  17.344  0.00  0.00    +0.000 C 
BRANCH  28  29
ATOM     29  C   UNL     1       5.282   3.973  16.155  0.00  0.00    +0.000 C 
BRANCH  29  30
ATOM     30  C   UNL     1       5.597   5.380  15.672  0.00  0.00    +0.000 C 
BRANCH  30  31
ATOM     31  C   UNL     1       5.203   6.408  16.725  0.00  0.00    +0.000 C 
BRANCH  31  32
ATOM     32  C   UNL     1       6.327   6.595  17.735  0.00  0.00    +0.000 C 
BRANCH  32  34
ATOM     33  C   UNL     1       7.942   8.511  17.765  0.00  0.00    +0.000 C 
ATOM     34  C   UNL     1       7.553   7.216  17.076  0.00  0.00    +0.000 C 
ENDBRANCH  32  34
ENDBRANCH  31  32
ENDBRANCH  30  31
ENDBRANCH  29  30
ENDBRANCH  28  29
ENDBRANCH  27  28
ENDBRANCH  26  27
ENDBRANCH  25  26
ENDBRANCH  24  25
ENDBRANCH  23  24
ENDBRANCH  22  23
ENDBRANCH  21  22
ENDBRANCH  20  21
ENDBRANCH  19  20
ENDBRANCH   1  19
TORSDOF 22
ENDMDL
MODEL 9
REMARK VINA RESULT:      -5.5      2.640      3.430
REMARK  Name = 
REMARK  25 active torsions:
REMARK  status: ('A' for Active; 'I' for Inactive)
REMARK    1  A    between atoms: C_1  and  C_2
REMARK    2  A    between atoms: C_2  and  C_3
REMARK    3  A    between atoms: C_3  and  C_4
REMARK    4  A    between atoms: C_4  and  C_5
REMARK    5  A    between atoms: C_5  and  C_6
REMARK    6  A    between atoms: C_6  and  C_7
REMARK    7  A    between atoms: C_7  and  C_8
REMARK    8  A    between atoms: C_8  and  C_9
REMARK    9  A    between atoms: C_9  and  C_10
REMARK   10  A    between atoms: C_10  and  C_11
REMARK   11  A    between atoms: C_11  and  C_12
REMARK   12  A    between atoms: C_12  and  C_13
REMARK   13  A    between atoms: C_13  and  C_14
REMARK   14  A    between atoms: C_14  and  C_15
REMARK   15  A    between atoms: C_15  and  C_16
REMARK   16  A    between atoms: C_16  and  N_17
REMARK   17  A    between atoms: N_17  and  C_18
REMARK   18  A    between atoms: C_21  and  C_22
REMARK   19  A    between atoms: C_22  and  O_24
REMARK   20  A    between atoms: O_24  and  C_25
REMARK   21  A    between atoms: C_25  and  C_26
REMARK   22  A    between atoms: C_26  and  C_27
REMARK   23  A    between atoms: C_26  and  C_28
REMARK   24  A    between atoms: C_26  and  C_29
REMARK   25  A    between atoms: C_29  and  O_30
REMARK                            x       y       z     vdW  Elec       q    Type
REMARK                         _______ _______ _______ _____ _____    ______ ____
ROOT
ATOM      1  N   UNL     1       1.869   8.556  21.287  0.00  0.00    +0.000 N 
ATOM      2  H   UNL     1       2.777   8.588  21.730  0.00  0.00    +0.000 HD
ENDROOT
BRANCH   1   3
ATOM      3  C   UNL     1       0.931   9.475  21.722  0.00  0.00    +0.000 A 
ATOM      4  C   UNL     1       0.150   9.258  22.858  0.00  0.00    +0.000 A 
ATOM      5  C   UNL     1      -0.748  10.220  23.315  0.00  0.00    +0.000 A 
ATOM      6  C   UNL     1      -0.872  11.447  22.657  0.00  0.00    +0.000 A 
ATOM      7  C   UNL     1      -0.101  11.678  21.510  0.00  0.00    +0.000 A 
ATOM      8  C   UNL     1       0.805  10.703  21.062  0.00  0.00    +0.000 A 
BRANCH   6   9
ATOM      9  C   UNL     1      -1.838  12.427  23.222  0.00  0.00    +0.000 C 
ATOM     10  O   UNL     1      -1.496  13.499  23.675  0.00  0.00    +0.000 OA
BRANCH   9  11
ATOM     11  O   UNL     1      -3.093  11.899  23.252  0.00  0.00    +0.000 OA
BRANCH  11  12
ATOM     12  C   UNL     1      -4.089  12.713  23.901  0.00  0.00    +0.000 C 
BRANCH  12  13
ATOM     13  C   UNL     1      -5.054  13.391  22.899  0.00  0.00    +0.000 C 
ATOM     14  C   UNL     1      -4.790  14.910  22.886  0.00  0.00    +0.000 C 
ATOM     15  C   UNL     1      -4.794  12.833  21.489  0.00  0.00    +0.000 C 
BRANCH  13  16
ATOM     16  C   UNL     1      -6.519  13.114  23.305  0.00  0.00    +0.000 C 
BRANCH  16  17
ATOM     17  O   UNL     1      -6.666  11.905  24.049  0.00  0.00    +0.000 OA
ATOM     18  H   UNL     1      -6.519  11.155  23.450  0.00  0.00    +0.000 HD
ENDBRANCH  16  17
ENDBRANCH  13  16
ENDBRANCH  12  13
ENDBRANCH  11  12
ENDBRANCH   9  11
ENDBRANCH   6   9
ENDBRANCH   1   3
BRANCH   1  19
ATOM     19  C   UNL     1       1.699   7.833  20.038  0.00  0.00    +0.000 C 
BRANCH  19  20
ATOM     20  C   UNL     1       2.320   6.449  20.136  0.00  0.00    +0.000 C 
BRANCH  20  21
ATOM     21  C   UNL     1       1.393   5.508  20.897  0.00  0.00    +0.000 C 
BRANCH  21  22
ATOM     22  C   UNL     1       2.060   4.160  21.136  0.00  0.00    +0.000 C 
BRANCH  22  23
ATOM     23  C   UNL     1       1.372   3.075  20.318  0.00  0.00    +0.000 C 
BRANCH  23  24
ATOM     24  C   UNL     1       2.361   2.420  19.366  0.00  0.00    +0.000 C 
BRANCH  24  25
ATOM     25  C   UNL     1       2.017   2.764  17.925  0.00  0.00    +0.000 C 
BRANCH  25  26
ATOM     26  C   UNL     1       3.267   3.197  17.175  0.00  0.00    +0.000 C 
BRANCH  26  27
ATOM     27  C   UNL     1       3.545   4.672  17.423  0.00  0.00    +0.000 C 
BRANCH  27  28
ATOM     28  C   UNL     1       4.957   4.861  17.953  0.00  0.00    +0.000 C 
BRANCH  28  29
ATOM     29  C   UNL     1       5.969   4.243  17.000  0.00  0.00    +0.000 C 
BRANCH  29  30
ATOM     30  C   UNL     1       6.925   5.307  16.482  0.00  0.00    +0.000 C 
BRANCH  30  31
ATOM     31  C   UNL     1       6.753   6.606  17.260  0.00  0.00    +0.000 C 
BRANCH  31  32
ATOM     32  C   UNL     1       7.722   6.656  18.434  0.00  0.00    +0.000 C 
BRANCH  32  34
ATOM     33  C   UNL     1       7.734   9.050  17.692  0.00  0.00    +0.000 C 
ATOM     34  C   UNL     1       8.491   7.973  18.448  0.00  0.00    +0.000 C 
ENDBRANCH  32  34
ENDBRANCH  31  32
ENDBRANCH  30  31
ENDBRANCH  29  30
ENDBRANCH  28  29
ENDBRANCH  27  28
ENDBRANCH  26  27
ENDBRANCH  25  26
ENDBRANCH  24  25
ENDBRANCH  23  24
ENDBRANCH  22  23
ENDBRANCH  21  22
ENDBRANCH  20  21
ENDBRANCH  19  20
ENDBRANCH   1  19
TORSDOF 22
ENDMDL
