MODEL 1
REMARK VINA RESULT:      -7.2      0.000      0.000
REMARK  Name = 
REMARK  5 active torsions:
REMARK  status: ('A' for Active; 'I' for Inactive)
REMARK    1  A    between atoms: C_2  and  C_3
REMARK    2  A    between atoms: C_7  and  C_8
REMARK    3  A    between atoms: C_9  and  C_10
REMARK    4  A    between atoms: C_10  and  C_12
REMARK    5  A    between atoms: C_16  and  O_17
REMARK                            x       y       z     vdW  Elec       q    Type
REMARK                         _______ _______ _______ _____ _____    ______ ____
ROOT
ATOM      1  C   UNL     1       5.134   4.019  17.156  0.00  0.00    +0.000 C 
ATOM      2  C   UNL     1       5.390   4.862  16.145  0.00  0.00    +0.000 C 
ENDROOT
BRANCH   1   7
ATOM      3  C   UNL     1       2.431   3.423  19.759  0.00  0.00    +0.000 A 
ATOM      4  C   UNL     1       1.279   3.567  18.984  0.00  0.00    +0.000 A 
ATOM      5  C   UNL     1       1.394   3.851  17.624  0.00  0.00    +0.000 A 
ATOM      6  C   UNL     1       2.659   3.991  17.042  0.00  0.00    +0.000 A 
ATOM      7  C   UNL     1       3.825   3.869  17.813  0.00  0.00    +0.000 A 
ATOM      8  C   UNL     1       3.697   3.577  19.176  0.00  0.00    +0.000 A 
BRANCH   3  10
ATOM      9  N   UNL     1       2.274   2.865  22.285  0.00  0.00    +0.000 NA
ATOM     10  C   UNL     1       2.333   3.109  21.154  0.00  0.00    +0.000 C 
ENDBRANCH   3  10
ENDBRANCH   1   7
BRANCH   2  11
ATOM     11  C   UNL     1       6.737   4.881  15.490  0.00  0.00    +0.000 C 
ATOM     12  O   UNL     1       7.721   5.205  16.152  0.00  0.00    +0.000 OA
BRANCH  11  13
ATOM     13  C   UNL     1       6.788   4.503  14.092  0.00  0.00    +0.000 A 
ATOM     14  O   UNL     1       5.937   3.535  13.606  0.00  0.00    +0.000 OA
ATOM     15  C   UNL     1       6.180   3.407  12.276  0.00  0.00    +0.000 A 
ATOM     16  C   UNL     1       7.183   4.261  11.881  0.00  0.00    +0.000 A 
ATOM     17  C   UNL     1       7.574   4.946  13.048  0.00  0.00    +0.000 A 
BRANCH  17  18
ATOM     18  O   UNL     1       8.529   5.881  13.166  0.00  0.00    +0.000 OA
ATOM     19  H   UNL     1       8.190   6.757  12.928  0.00  0.00    +0.000 HD
ENDBRANCH  17  18
ENDBRANCH  11  13
ENDBRANCH   2  11
TORSDOF 5
ENDMDL
MODEL 2
REMARK VINA RESULT:      -7.1      1.574      1.882
REMARK  Name = 
REMARK  5 active torsions:
REMARK  status: ('A' for Active; 'I' for Inactive)
REMARK    1  A    between atoms: C_2  and  C_3
REMARK    2  A    between atoms: C_7  and  C_8
REMARK    3  A    between atoms: C_9  and  C_10
REMARK    4  A    between atoms: C_10  and  C_12
REMARK    5  A    between atoms: C_16  and  O_17
REMARK                            x       y       z     vdW  Elec       q    Type
REMARK                         _______ _______ _______ _____ _____    ______ ____
ROOT
ATOM      1  C   UNL     1       4.697   5.728  16.922  0.00  0.00    +0.000 C 
ATOM      2  C   UNL     1       5.733   4.930  16.620  0.00  0.00    +0.000 C 
ENDROOT
BRANCH   1   7
ATOM      3  C   UNL     1       1.842   4.021  18.758  0.00  0.00    +0.000 A 
ATOM      4  C   UNL     1       1.658   4.894  19.831  0.00  0.00    +0.000 A 
ATOM      5  C   UNL     1       2.458   6.029  19.943  0.00  0.00    +0.000 A 
ATOM      6  C   UNL     1       3.442   6.290  18.983  0.00  0.00    +0.000 A 
ATOM      7  C   UNL     1       3.654   5.410  17.910  0.00  0.00    +0.000 A 
ATOM      8  C   UNL     1       2.838   4.277  17.805  0.00  0.00    +0.000 A 
BRANCH   3  10
ATOM      9  N   UNL     1       0.328   1.935  18.490  0.00  0.00    +0.000 NA
ATOM     10  C   UNL     1       1.014   2.861  18.614  0.00  0.00    +0.000 C 
ENDBRANCH   3  10
ENDBRANCH   1   7
BRANCH   2  11
ATOM     11  C   UNL     1       6.788   5.380  15.657  0.00  0.00    +0.000 C 
ATOM     12  O   UNL     1       7.615   6.215  16.020  0.00  0.00    +0.000 OA
BRANCH  11  13
ATOM     13  C   UNL     1       6.764   4.783  14.337  0.00  0.00    +0.000 A 
ATOM     14  O   UNL     1       5.819   3.831  14.027  0.00  0.00    +0.000 OA
ATOM     15  C   UNL     1       6.009   3.473  12.730  0.00  0.00    +0.000 A 
ATOM     16  C   UNL     1       7.069   4.162  12.187  0.00  0.00    +0.000 A 
ATOM     17  C   UNL     1       7.552   4.985  13.222  0.00  0.00    +0.000 A 
BRANCH  17  18
ATOM     18  O   UNL     1       8.586   5.838  13.173  0.00  0.00    +0.000 OA
ATOM     19  H   UNL     1       9.339   5.503  13.685  0.00  0.00    +0.000 HD
ENDBRANCH  17  18
ENDBRANCH  11  13
ENDBRANCH   2  11
TORSDOF 5
ENDMDL
MODEL 3
REMARK VINA RESULT:      -7.0      1.351      1.421
REMARK  Name = 
REMARK  5 active torsions:
REMARK  status: ('A' for Active; 'I' for Inactive)
REMARK    1  A    between atoms: C_2  and  C_3
REMARK    2  A    between atoms: C_7  and  C_8
REMARK    3  A    between atoms: C_9  and  C_10
REMARK    4  A    between atoms: C_10  and  C_12
REMARK    5  A    between atoms: C_16  and  O_17
REMARK                            x       y       z     vdW  Elec       q    Type
REMARK                         _______ _______ _______ _____ _____    ______ ____
ROOT
ATOM      1  C   UNL     1       5.554   5.064  17.911  0.00  0.00    +0.000 C 
ATOM      2  C   UNL     1       5.580   4.886  16.581  0.00  0.00    +0.000 C 
ENDROOT
BRANCH   1   7
ATOM      3  C   UNL     1       2.697   4.531  20.358  0.00  0.00    +0.000 A 
ATOM      4  C   UNL     1       1.964   5.704  20.169  0.00  0.00    +0.000 A 
ATOM      5  C   UNL     1       2.403   6.651  19.245  0.00  0.00    +0.000 A 
ATOM      6  C   UNL     1       3.574   6.425  18.513  0.00  0.00    +0.000 A 
ATOM      7  C   UNL     1       4.332   5.261  18.707  0.00  0.00    +0.000 A 
ATOM      8  C   UNL     1       3.877   4.313  19.633  0.00  0.00    +0.000 A 
BRANCH   3  10
ATOM      9  N   UNL     1       1.883   2.748  22.052  0.00  0.00    +0.000 NA
ATOM     10  C   UNL     1       2.250   3.536  21.287  0.00  0.00    +0.000 C 
ENDBRANCH   3  10
ENDBRANCH   1   7
BRANCH   2  11
ATOM     11  C   UNL     1       6.870   4.611  15.873  0.00  0.00    +0.000 C 
ATOM     12  O   UNL     1       7.916   4.583  16.519  0.00  0.00    +0.000 OA
BRANCH  11  13
ATOM     13  C   UNL     1       6.795   4.386  14.443  0.00  0.00    +0.000 A 
ATOM     14  O   UNL     1       5.876   3.498  13.931  0.00  0.00    +0.000 OA
ATOM     15  C   UNL     1       6.005   3.509  12.578  0.00  0.00    +0.000 A 
ATOM     16  C   UNL     1       6.999   4.378  12.193  0.00  0.00    +0.000 A 
ATOM     17  C   UNL     1       7.506   4.922  13.389  0.00  0.00    +0.000 A 
BRANCH  17  18
ATOM     18  O   UNL     1       8.498   5.816  13.525  0.00  0.00    +0.000 OA
ATOM     19  H   UNL     1       9.358   5.416  13.324  0.00  0.00    +0.000 HD
ENDBRANCH  17  18
ENDBRANCH  11  13
ENDBRANCH   2  11
TORSDOF 5
ENDMDL
MODEL 4
REMARK VINA RESULT:      -6.9      2.081      3.534
REMARK  Name = 
REMARK  5 active torsions:
REMARK  status: ('A' for Active; 'I' for Inactive)
REMARK    1  A    between atoms: C_2  and  C_3
REMARK    2  A    between atoms: C_7  and  C_8
REMARK    3  A    between atoms: C_9  and  C_10
REMARK    4  A    between atoms: C_10  and  C_12
REMARK    5  A    between atoms: C_16  and  O_17
REMARK                            x       y       z     vdW  Elec       q    Type
REMARK                         _______ _______ _______ _____ _____    ______ ____
ROOT
ATOM      1  C   UNL     1       4.861   4.766  17.873  0.00  0.00    +0.000 C 
ATOM      2  C   UNL     1       5.406   4.547  16.667  0.00  0.00    +0.000 C 
ENDROOT
BRANCH   1   7
ATOM      3  C   UNL     1       2.006   3.339  19.935  0.00  0.00    +0.000 A 
ATOM      4  C   UNL     1       0.968   3.364  19.003  0.00  0.00    +0.000 A 
ATOM      5  C   UNL     1       1.207   3.839  17.715  0.00  0.00    +0.000 A 
ATOM      6  C   UNL     1       2.484   4.288  17.360  0.00  0.00    +0.000 A 
ATOM      7  C   UNL     1       3.533   4.289  18.292  0.00  0.00    +0.000 A 
ATOM      8  C   UNL     1       3.282   3.802  19.581  0.00  0.00    +0.000 A 
BRANCH   3  10
ATOM      9  N   UNL     1       1.602   2.405  22.318  0.00  0.00    +0.000 NA
ATOM     10  C   UNL     1       1.784   2.834  21.257  0.00  0.00    +0.000 C 
ENDBRANCH   3  10
ENDBRANCH   1   7
BRANCH   2  11
ATOM     11  C   UNL     1       6.800   5.005  16.365  0.00  0.00    +0.000 C 
ATOM     12  O   UNL     1       7.431   4.453  15.465  0.00  0.00    +0.000 OA
BRANCH  11  13
ATOM     13  C   UNL     1       7.316   6.096  17.167  0.00  0.00    +0.000 A 
ATOM     14  O   UNL     1       7.291   7.384  16.679  0.00  0.00    +0.000 OA
ATOM     15  C   UNL     1       7.803   8.196  17.642  0.00  0.00    +0.000 A 
ATOM     16  C   UNL     1       8.175   7.465  18.745  0.00  0.00    +0.000 A 
ATOM     17  C   UNL     1       7.874   6.126  18.428  0.00  0.00    +0.000 A 
BRANCH  17  18
ATOM     18  O   UNL     1       8.068   5.041  19.194  0.00  0.00    +0.000 OA
ATOM     19  H   UNL     1       8.623   4.389  18.739  0.00  0.00    +0.000 HD
ENDBRANCH  17  18
ENDBRANCH  11  13
ENDBRANCH   2  11
TORSDOF 5
ENDMDL
MODEL 5
REMARK VINA RESULT:      -6.8      5.164      6.633
REMARK  Name = 
REMARK  5 active torsions:
REMARK  status: ('A' for Active; 'I' for Inactive)
REMARK    1  A    between atoms: C_2  and  C_3
REMARK    2  A    between atoms: C_7  and  C_8
REMARK    3  A    between atoms: C_9  and  C_10
REMARK    4  A    between atoms: C_10  and  C_12
REMARK    5  A    between atoms: C_16  and  O_17
REMARK                            x       y       z     vdW  Elec       q    Type
REMARK                         _______ _______ _______ _____ _____    ______ ____
ROOT
ATOM      1  C   UNL     1       2.441   5.833  19.849  0.00  0.00    +0.000 C 
ATOM      2  C   UNL     1       1.885   5.021  20.760  0.00  0.00    +0.000 C 
ENDROOT
BRANCH   1   7
ATOM      3  C   UNL     1       1.119   9.357  20.371  0.00  0.00    +0.000 A 
ATOM      4  C   UNL     1       1.293   9.897  19.096  0.00  0.00    +0.000 A 
ATOM      5  C   UNL     1       1.832   9.109  18.080  0.00  0.00    +0.000 A 
ATOM      6  C   UNL     1       2.197   7.784  18.340  0.00  0.00    +0.000 A 
ATOM      7  C   UNL     1       2.048   7.234  19.623  0.00  0.00    +0.000 A 
ATOM      8  C   UNL     1       1.498   8.032  20.633  0.00  0.00    +0.000 A 
BRANCH   3  10
ATOM      9  N   UNL     1       0.097  10.771  22.286  0.00  0.00    +0.000 NA
ATOM     10  C   UNL     1       0.546  10.144  21.422  0.00  0.00    +0.000 C 
ENDBRANCH   3  10
ENDBRANCH   1   7
BRANCH   2  11
ATOM     11  C   UNL     1       2.412   3.634  20.969  0.00  0.00    +0.000 C 
ATOM     12  O   UNL     1       2.531   3.204  22.115  0.00  0.00    +0.000 OA
BRANCH  11  13
ATOM     13  C   UNL     1       2.746   2.876  19.780  0.00  0.00    +0.000 A 
ATOM     14  O   UNL     1       1.830   2.754  18.759  0.00  0.00    +0.000 OA
ATOM     15  C   UNL     1       2.414   2.027  17.771  0.00  0.00    +0.000 A 
ATOM     16  C   UNL     1       3.690   1.659  18.128  0.00  0.00    +0.000 A 
ATOM     17  C   UNL     1       3.888   2.193  19.416  0.00  0.00    +0.000 A 
BRANCH  17  18
ATOM     18  O   UNL     1       4.983   2.090  20.184  0.00  0.00    +0.000 OA
ATOM     19  H   UNL     1       4.980   1.261  20.685  0.00  0.00    +0.000 HD
ENDBRANCH  17  18
ENDBRANCH  11  13
ENDBRANCH   2  11
TORSDOF 5
ENDMDL
MODEL 6
REMARK VINA RESULT:      -6.8      1.219      1.339
REMARK  Name = 
REMARK  5 active torsions:
REMARK  status: ('A' for Active; 'I' for Inactive)
REMARK    1  A    between atoms: C_2  and  C_3
REMARK    2  A    between atoms: C_7  and  C_8
REMARK    3  A    between atoms: C_9  and  C_10
REMARK    4  A    between atoms: C_10  and  C_12
REMARK    5  A    between atoms: C_16  and  O_17
REMARK                            x       y       z     vdW  Elec       q    Type
REMARK                         _______ _______ _______ _____ _____    ______ ____
ROOT
ATOM      1  C   UNL     1       4.924   4.648  16.858  0.00  0.00    +0.000 C 
ATOM      2  C   UNL     1       6.125   4.273  16.394  0.00  0.00    +0.000 C 
ENDROOT
BRANCH   1   7
ATOM      3  C   UNL     1       3.992   2.510  19.857  0.00  0.00    +0.000 A 
ATOM      4  C   UNL     1       2.599   2.516  19.765  0.00  0.00    +0.000 A 
ATOM      5  C   UNL     1       1.979   3.210  18.727  0.00  0.00    +0.000 A 
ATOM      6  C   UNL     1       2.752   3.897  17.784  0.00  0.00    +0.000 A 
ATOM      7  C   UNL     1       4.152   3.917  17.875  0.00  0.00    +0.000 A 
ATOM      8  C   UNL     1       4.763   3.210  18.918  0.00  0.00    +0.000 A 
BRANCH   3  10
ATOM      9  N   UNL     1       5.170   1.179  21.742  0.00  0.00    +0.000 NA
ATOM     10  C   UNL     1       4.648   1.784  20.904  0.00  0.00    +0.000 C 
ENDBRANCH   3  10
ENDBRANCH   1   7
BRANCH   2  11
ATOM     11  C   UNL     1       6.867   5.131  15.416  0.00  0.00    +0.000 C 
ATOM     12  O   UNL     1       7.409   6.162  15.812  0.00  0.00    +0.000 OA
BRANCH  11  13
ATOM     13  C   UNL     1       6.903   4.673  14.042  0.00  0.00    +0.000 A 
ATOM     14  O   UNL     1       6.033   3.693  13.617  0.00  0.00    +0.000 OA
ATOM     15  C   UNL     1       6.265   3.485  12.294  0.00  0.00    +0.000 A 
ATOM     16  C   UNL     1       7.278   4.299  11.845  0.00  0.00    +0.000 A 
ATOM     17  C   UNL     1       7.688   5.043  12.969  0.00  0.00    +0.000 A 
BRANCH  17  18
ATOM     18  O   UNL     1       8.659   5.967  13.028  0.00  0.00    +0.000 OA
ATOM     19  H   UNL     1       9.265   5.884  12.275  0.00  0.00    +0.000 HD
ENDBRANCH  17  18
ENDBRANCH  11  13
ENDBRANCH   2  11
TORSDOF 5
ENDMDL
MODEL 7
REMARK VINA RESULT:      -6.7      1.208      1.273
REMARK  Name = 
REMARK  5 active torsions:
REMARK  status: ('A' for Active; 'I' for Inactive)
REMARK    1  A    between atoms: C_2  and  C_3
REMARK    2  A    between atoms: C_7  and  C_8
REMARK    3  A    between atoms: C_9  and  C_10
REMARK    4  A    between atoms: C_10  and  C_12
REMARK    5  A    between atoms: C_16  and  O_17
REMARK                            x       y       z     vdW  Elec       q    Type
REMARK                         _______ _______ _______ _____ _____    ______ ____
ROOT
ATOM      1  C   UNL     1       5.321   4.055  17.059  0.00  0.00    +0.000 C 
ATOM      2  C   UNL     1       5.483   5.104  16.240  0.00  0.00    +0.000 C 
ENDROOT
BRANCH   1   7
ATOM      3  C   UNL     1       2.324   4.303  19.382  0.00  0.00    +0.000 A 
ATOM      4  C   UNL     1       1.724   3.060  19.175  0.00  0.00    +0.000 A 
ATOM      5  C   UNL     1       2.302   2.154  18.288  0.00  0.00    +0.000 A 
ATOM      6  C   UNL     1       3.478   2.492  17.609  0.00  0.00    +0.000 A 
ATOM      7  C   UNL     1       4.081   3.745  17.791  0.00  0.00    +0.000 A 
ATOM      8  C   UNL     1       3.495   4.645  18.690  0.00  0.00    +0.000 A 
BRANCH   3  10
ATOM      9  N   UNL     1       1.315   6.009  21.052  0.00  0.00    +0.000 NA
ATOM     10  C   UNL     1       1.756   5.239  20.306  0.00  0.00    +0.000 C 
ENDBRANCH   3  10
ENDBRANCH   1   7
BRANCH   2  11
ATOM     11  C   UNL     1       6.759   5.287  15.477  0.00  0.00    +0.000 C 
ATOM     12  O   UNL     1       7.697   5.878  16.009  0.00  0.00    +0.000 OA
BRANCH  11  13
ATOM     13  C   UNL     1       6.803   4.736  14.137  0.00  0.00    +0.000 A 
ATOM     14  O   UNL     1       5.900   3.768  13.758  0.00  0.00    +0.000 OA
ATOM     15  C   UNL     1       6.150   3.462  12.458  0.00  0.00    +0.000 A 
ATOM     16  C   UNL     1       7.208   4.199  11.981  0.00  0.00    +0.000 A 
ATOM     17  C   UNL     1       7.627   4.999  13.062  0.00  0.00    +0.000 A 
BRANCH  17  18
ATOM     18  O   UNL     1       8.636   5.883  13.082  0.00  0.00    +0.000 OA
ATOM     19  H   UNL     1       8.309   6.787  12.955  0.00  0.00    +0.000 HD
ENDBRANCH  17  18
ENDBRANCH  11  13
ENDBRANCH   2  11
TORSDOF 5
ENDMDL
MODEL 8
REMARK VINA RESULT:      -6.7      4.343      5.616
REMARK  Name = 
REMARK  5 active torsions:
REMARK  status: ('A' for Active; 'I' for Inactive)
REMARK    1  A    between atoms: C_2  and  C_3
REMARK    2  A    between atoms: C_7  and  C_8
REMARK    3  A    between atoms: C_9  and  C_10
REMARK    4  A    between atoms: C_10  and  C_12
REMARK    5  A    between atoms: C_16  and  O_17
REMARK                            x       y       z     vdW  Elec       q    Type
REMARK                         _______ _______ _______ _____ _____    ______ ____
ROOT
ATOM      1  C   UNL     1       2.932   6.536  18.606  0.00  0.00    +0.000 C 
ATOM      2  C   UNL     1       3.783   6.481  17.571  0.00  0.00    +0.000 C 
ENDROOT
BRANCH   1   7
ATOM      3  C   UNL     1       1.115   9.146  20.686  0.00  0.00    +0.000 A 
ATOM      4  C   UNL     1       0.702  10.035  19.693  0.00  0.00    +0.000 A 
ATOM      5  C   UNL     1       1.014   9.775  18.360  0.00  0.00    +0.000 A 
ATOM      6  C   UNL     1       1.738   8.627  18.021  0.00  0.00    +0.000 A 
ATOM      7  C   UNL     1       2.178   7.734  19.010  0.00  0.00    +0.000 A 
ATOM      8  C   UNL     1       1.852   8.002  20.345  0.00  0.00    +0.000 A 
BRANCH   3  10
ATOM      9  N   UNL     1       0.516   9.599  23.166  0.00  0.00    +0.000 NA
ATOM     10  C   UNL     1       0.785   9.385  22.059  0.00  0.00    +0.000 C 
ENDBRANCH   3  10
ENDBRANCH   1   7
BRANCH   2  11
ATOM     11  C   UNL     1       4.442   5.191  17.191  0.00  0.00    +0.000 C 
ATOM     12  O   UNL     1       5.455   5.216  16.494  0.00  0.00    +0.000 OA
BRANCH  11  13
ATOM     13  C   UNL     1       3.829   3.975  17.687  0.00  0.00    +0.000 A 
ATOM     14  O   UNL     1       2.641   3.531  17.152  0.00  0.00    +0.000 OA
ATOM     15  C   UNL     1       2.319   2.368  17.776  0.00  0.00    +0.000 A 
ATOM     16  C   UNL     1       3.266   2.046  18.720  0.00  0.00    +0.000 A 
ATOM     17  C   UNL     1       4.218   3.083  18.666  0.00  0.00    +0.000 A 
BRANCH  17  18
ATOM     18  O   UNL     1       5.328   3.213  19.408  0.00  0.00    +0.000 OA
ATOM     19  H   UNL     1       5.840   3.990  19.136  0.00  0.00    +0.000 HD
ENDBRANCH  17  18
ENDBRANCH  11  13
ENDBRANCH   2  11
TORSDOF 5
ENDMDL
MODEL 9
REMARK VINA RESULT:      -6.6      4.522      5.590
REMARK  Name = 
REMARK  5 active torsions:
REMARK  status: ('A' for Active; 'I' for Inactive)
REMARK    1  A    between atoms: C_2  and  C_3
REMARK    2  A    between atoms: C_7  and  C_8
REMARK    3  A    between atoms: C_9  and  C_10
REMARK    4  A    between atoms: C_10  and  C_12
REMARK    5  A    between atoms: C_16  and  O_17
REMARK                            x       y       z     vdW  Elec       q    Type
REMARK                         _______ _______ _______ _____ _____    ______ ____
ROOT
ATOM      1  C   UNL     1       2.840   6.799  18.480  0.00  0.00    +0.000 C 
ATOM      2  C   UNL     1       3.219   5.768  19.249  0.00  0.00    +0.000 C 
ENDROOT
BRANCH   1   7
ATOM      3  C   UNL     1       1.053   9.288  20.727  0.00  0.00    +0.000 A 
ATOM      4  C   UNL     1       0.636  10.237  19.793  0.00  0.00    +0.000 A 
ATOM      5  C   UNL     1       0.935  10.055  18.444  0.00  0.00    +0.000 A 
ATOM      6  C   UNL     1       1.650   8.926  18.031  0.00  0.00    +0.000 A 
ATOM      7  C   UNL     1       2.095   7.974  18.961  0.00  0.00    +0.000 A 
ATOM      8  C   UNL     1       1.782   8.164  20.313  0.00  0.00    +0.000 A 
BRANCH   3  10
ATOM      9  N   UNL     1       0.477   9.597  23.234  0.00  0.00    +0.000 NA
ATOM     10  C   UNL     1       0.737   9.447  22.115  0.00  0.00    +0.000 C 
ENDBRANCH   3  10
ENDBRANCH   1   7
BRANCH   2  11
ATOM     11  C   UNL     1       4.046   4.656  18.681  0.00  0.00    +0.000 C 
ATOM     12  O   UNL     1       3.490   3.623  18.309  0.00  0.00    +0.000 OA
BRANCH  11  13
ATOM     13  C   UNL     1       5.475   4.881  18.599  0.00  0.00    +0.000 A 
ATOM     14  O   UNL     1       6.121   5.587  19.589  0.00  0.00    +0.000 OA
ATOM     15  C   UNL     1       7.443   5.617  19.275  0.00  0.00    +0.000 A 
ATOM     16  C   UNL     1       7.676   4.956  18.092  0.00  0.00    +0.000 A 
ATOM     17  C   UNL     1       6.414   4.502  17.662  0.00  0.00    +0.000 A 
BRANCH  17  18
ATOM     18  O   UNL     1       6.131   3.808  16.548  0.00  0.00    +0.000 OA
ATOM     19  H   UNL     1       6.865   3.220  16.308  0.00  0.00    +0.000 HD
ENDBRANCH  17  18
ENDBRANCH  11  13
ENDBRANCH   2  11
TORSDOF 5
ENDMDL
