MODEL 1
REMARK VINA RESULT:      -8.3      0.000      0.000
REMARK  Name = 
REMARK  6 active torsions:
REMARK  status: ('A' for Active; 'I' for Inactive)
REMARK    1  A    between atoms: C_2  and  C_3
REMARK    2  A    between atoms: C_3  and  C_4
REMARK    3  A    between atoms: N_10  and  C_11
REMARK    4  A    between atoms: C_11  and  C_12
REMARK    5  A    between atoms: C_11  and  C_17
REMARK    6  A    between atoms: C_18  and  O_19
REMARK                            x       y       z     vdW  Elec       q    Type
REMARK                         _______ _______ _______ _____ _____    ______ ____
ROOT
ATOM      1  C   UNL     1       5.091   4.746  17.487  0.00  0.00    +0.000 C 
ENDROOT
BRANCH   1   2
ATOM      2  C   UNL     1       3.772   5.276  18.110  0.00  0.00    +0.000 A 
ATOM      3  C   UNL     1       3.505   6.668  17.969  0.00  0.00    +0.000 A 
ATOM      4  C   UNL     1       2.490   7.261  18.698  0.00  0.00    +0.000 A 
ATOM      5  C   UNL     1       1.735   6.484  19.562  0.00  0.00    +0.000 A 
ATOM      6  C   UNL     1       2.049   5.140  19.822  0.00  0.00    +0.000 A 
ATOM      7  C   UNL     1       1.448   4.458  20.881  0.00  0.00    +0.000 A 
ATOM      8  C   UNL     1       1.768   3.131  21.178  0.00  0.00    +0.000 A 
ATOM      9  C   UNL     1       1.636   2.240  20.151  0.00  0.00    +0.000 A 
ATOM     10  C   UNL     1       2.406   2.921  19.193  0.00  0.00    +0.000 A 
ATOM     11  C   UNL     1       2.846   4.416  18.985  0.00  0.00    +0.000 A 
BRANCH   3  12
ATOM     12  O   UNL     1       4.105   7.523  17.077  0.00  0.00    +0.000 OA
ATOM     13  H   UNL     1       3.483   8.092  16.599  0.00  0.00    +0.000 HD
ENDBRANCH   3  12
ENDBRANCH   1   2
BRANCH   1  14
ATOM     14  C   UNL     1       6.277   5.339  18.085  0.00  0.00    +0.000 A 
ATOM     15  C   UNL     1       7.202   6.220  17.539  0.00  0.00    +0.000 A 
ATOM     16  C   UNL     1       8.041   6.625  18.575  0.00  0.00    +0.000 A 
ATOM     17  C   UNL     1       7.834   5.726  19.590  0.00  0.00    +0.000 A 
ATOM     18  O   UNL     1       6.704   4.992  19.350  0.00  0.00    +0.000 OA
ENDBRANCH   1  14
BRANCH   1  21
ATOM     19  O   UNL     1       6.103   3.133  15.358  0.00  0.00    +0.000 OA
ATOM     20  C   UNL     1       5.658   4.238  15.046  0.00  0.00    +0.000 C 
ATOM     21  N   UNL     1       5.155   5.061  16.037  0.00  0.00    +0.000 N 
ATOM     22  H   UNL     1       5.018   6.024  15.735  0.00  0.00    +0.000 HD
BRANCH  20  23
ATOM     23  C   UNL     1       5.596   4.740  13.595  0.00  0.00    +0.000 C 
BRANCH  23  24
ATOM     24  C   UNL     1       5.956   3.715  12.581  0.00  0.00    +0.000 A 
ATOM     25  C   UNL     1       4.976   2.832  12.046  0.00  0.00    +0.000 A 
ATOM     26  C   UNL     1       5.344   1.710  11.302  0.00  0.00    +0.000 A 
ATOM     27  C   UNL     1       6.647   1.644  10.897  0.00  0.00    +0.000 A 
ATOM     28  C   UNL     1       7.614   2.550  11.336  0.00  0.00    +0.000 A 
ATOM     29  C   UNL     1       7.288   3.587  12.176  0.00  0.00    +0.000 A 
ENDBRANCH  23  24
ENDBRANCH  20  23
ENDBRANCH   1  21
TORSDOF 6
ENDMDL
MODEL 2
REMARK VINA RESULT:      -7.7      1.320      1.735
REMARK  Name = 
REMARK  6 active torsions:
REMARK  status: ('A' for Active; 'I' for Inactive)
REMARK    1  A    between atoms: C_2  and  C_3
REMARK    2  A    between atoms: C_3  and  C_4
REMARK    3  A    between atoms: N_10  and  C_11
REMARK    4  A    between atoms: C_11  and  C_12
REMARK    5  A    between atoms: C_11  and  C_17
REMARK    6  A    between atoms: C_18  and  O_19
REMARK                            x       y       z     vdW  Elec       q    Type
REMARK                         _______ _______ _______ _____ _____    ______ ____
ROOT
ATOM      1  C   UNL     1       6.563   5.434  17.079  0.00  0.00    +0.000 C 
ENDROOT
BRANCH   1   2
ATOM      2  C   UNL     1       5.041   5.480  17.376  0.00  0.00    +0.000 A 
ATOM      3  C   UNL     1       4.330   6.629  16.925  0.00  0.00    +0.000 A 
ATOM      4  C   UNL     1       3.038   6.865  17.359  0.00  0.00    +0.000 A 
ATOM      5  C   UNL     1       2.444   5.969  18.234  0.00  0.00    +0.000 A 
ATOM      6  C   UNL     1       3.155   4.897  18.798  0.00  0.00    +0.000 A 
ATOM      7  C   UNL     1       2.625   4.172  19.866  0.00  0.00    +0.000 A 
ATOM      8  C   UNL     1       3.328   3.123  20.464  0.00  0.00    +0.000 A 
ATOM      9  C   UNL     1       3.749   2.130  19.625  0.00  0.00    +0.000 A 
ATOM     10  C   UNL     1       4.411   2.933  18.680  0.00  0.00    +0.000 A 
ATOM     11  C   UNL     1       4.319   4.443  18.251  0.00  0.00    +0.000 A 
BRANCH   3  12
ATOM     12  O   UNL     1       4.761   7.532  15.985  0.00  0.00    +0.000 OA
ATOM     13  H   UNL     1       5.716   7.503  15.820  0.00  0.00    +0.000 HD
ENDBRANCH   3  12
ENDBRANCH   1   2
BRANCH   1  14
ATOM     14  C   UNL     1       7.283   6.572  17.630  0.00  0.00    +0.000 A 
ATOM     15  C   UNL     1       7.938   6.703  18.848  0.00  0.00    +0.000 A 
ATOM     16  C   UNL     1       8.618   7.918  18.816  0.00  0.00    +0.000 A 
ATOM     17  C   UNL     1       8.071   8.620  17.772  0.00  0.00    +0.000 A 
ATOM     18  O   UNL     1       7.323   7.789  16.982  0.00  0.00    +0.000 OA
ENDBRANCH   1  14
BRANCH   1  21
ATOM     19  O   UNL     1       6.139   3.348  15.173  0.00  0.00    +0.000 OA
ATOM     20  C   UNL     1       6.593   4.407  14.737  0.00  0.00    +0.000 C 
ATOM     21  N   UNL     1       6.818   5.450  15.616  0.00  0.00    +0.000 N 
ATOM     22  H   UNL     1       7.392   6.195  15.224  0.00  0.00    +0.000 HD
BRANCH  20  23
ATOM     23  C   UNL     1       6.888   4.644  13.248  0.00  0.00    +0.000 C 
BRANCH  23  24
ATOM     24  C   UNL     1       6.258   3.654  12.337  0.00  0.00    +0.000 A 
ATOM     25  C   UNL     1       4.891   3.771  11.954  0.00  0.00    +0.000 A 
ATOM     26  C   UNL     1       4.226   2.719  11.321  0.00  0.00    +0.000 A 
ATOM     27  C   UNL     1       5.002   1.693  10.860  0.00  0.00    +0.000 A 
ATOM     28  C   UNL     1       6.365   1.598  11.147  0.00  0.00    +0.000 A 
ATOM     29  C   UNL     1       7.006   2.564  11.882  0.00  0.00    +0.000 A 
ENDBRANCH  23  24
ENDBRANCH  20  23
ENDBRANCH   1  21
TORSDOF 6
ENDMDL
MODEL 3
REMARK VINA RESULT:      -7.6      0.920      1.365
REMARK  Name = 
REMARK  6 active torsions:
REMARK  status: ('A' for Active; 'I' for Inactive)
REMARK    1  A    between atoms: C_2  and  C_3
REMARK    2  A    between atoms: C_3  and  C_4
REMARK    3  A    between atoms: N_10  and  C_11
REMARK    4  A    between atoms: C_11  and  C_12
REMARK    5  A    between atoms: C_11  and  C_17
REMARK    6  A    between atoms: C_18  and  O_19
REMARK                            x       y       z     vdW  Elec       q    Type
REMARK                         _______ _______ _______ _____ _____    ______ ____
ROOT
ATOM      1  C   UNL     1       5.397   4.832  17.211  0.00  0.00    +0.000 C 
ENDROOT
BRANCH   1   2
ATOM      2  C   UNL     1       3.976   5.240  17.683  0.00  0.00    +0.000 A 
ATOM      3  C   UNL     1       3.642   6.622  17.602  0.00  0.00    +0.000 A 
ATOM      4  C   UNL     1       2.503   7.102  18.224  0.00  0.00    +0.000 A 
ATOM      5  C   UNL     1       1.692   6.222  18.922  0.00  0.00    +0.000 A 
ATOM      6  C   UNL     1       2.055   4.882  19.132  0.00  0.00    +0.000 A 
ATOM      7  C   UNL     1       1.365   4.089  20.050  0.00  0.00    +0.000 A 
ATOM      8  C   UNL     1       1.728   2.763  20.298  0.00  0.00    +0.000 A 
ATOM      9  C   UNL     1       1.789   1.946  19.205  0.00  0.00    +0.000 A 
ATOM     10  C   UNL     1       2.634   2.739  18.409  0.00  0.00    +0.000 A 
ATOM     11  C   UNL     1       3.000   4.267  18.364  0.00  0.00    +0.000 A 
BRANCH   3  12
ATOM     12  O   UNL     1       4.298   7.573  16.860  0.00  0.00    +0.000 OA
ATOM     13  H   UNL     1       4.987   8.048  17.349  0.00  0.00    +0.000 HD
ENDBRANCH   3  12
ENDBRANCH   1   2
BRANCH   1  14
ATOM     14  C   UNL     1       6.450   5.605  17.851  0.00  0.00    +0.000 A 
ATOM     15  C   UNL     1       7.057   5.427  19.088  0.00  0.00    +0.000 A 
ATOM     16  C   UNL     1       8.126   6.319  19.150  0.00  0.00    +0.000 A 
ATOM     17  C   UNL     1       7.908   7.226  18.144  0.00  0.00    +0.000 A 
ATOM     18  O   UNL     1       6.948   6.761  17.287  0.00  0.00    +0.000 OA
ENDBRANCH   1  14
BRANCH   1  21
ATOM     19  O   UNL     1       7.607   4.148  15.535  0.00  0.00    +0.000 OA
ATOM     20  C   UNL     1       6.650   4.695  14.986  0.00  0.00    +0.000 C 
ATOM     21  N   UNL     1       5.552   5.047  15.751  0.00  0.00    +0.000 N 
ATOM     22  H   UNL     1       4.914   5.683  15.276  0.00  0.00    +0.000 HD
BRANCH  20  23
ATOM     23  C   UNL     1       6.593   4.973  13.476  0.00  0.00    +0.000 C 
BRANCH  23  24
ATOM     24  C   UNL     1       6.386   3.761  12.642  0.00  0.00    +0.000 A 
ATOM     25  C   UNL     1       7.489   3.038  12.105  0.00  0.00    +0.000 A 
ATOM     26  C   UNL     1       7.305   2.068  11.119  0.00  0.00    +0.000 A 
ATOM     27  C   UNL     1       6.020   1.668  10.885  0.00  0.00    +0.000 A 
ATOM     28  C   UNL     1       4.921   2.302  11.466  0.00  0.00    +0.000 A 
ATOM     29  C   UNL     1       5.084   3.347  12.342  0.00  0.00    +0.000 A 
ENDBRANCH  23  24
ENDBRANCH  20  23
ENDBRANCH   1  21
TORSDOF 6
ENDMDL
MODEL 4
REMARK VINA RESULT:      -7.5      7.022     10.464
REMARK  Name = 
REMARK  6 active torsions:
REMARK  status: ('A' for Active; 'I' for Inactive)
REMARK    1  A    between atoms: C_2  and  C_3
REMARK    2  A    between atoms: C_3  and  C_4
REMARK    3  A    between atoms: N_10  and  C_11
REMARK    4  A    between atoms: C_11  and  C_12
REMARK    5  A    between atoms: C_11  and  C_17
REMARK    6  A    between atoms: C_18  and  O_19
REMARK                            x       y       z     vdW  Elec       q    Type
REMARK                         _______ _______ _______ _____ _____    ______ ____
ROOT
ATOM      1  C   UNL     1      -1.839  11.716  18.750  0.00  0.00    +0.000 C 
ENDROOT
BRANCH   1   2
ATOM      2  C   UNL     1      -2.982  12.277  19.638  0.00  0.00    +0.000 A 
ATOM      3  C   UNL     1      -2.612  12.803  20.909  0.00  0.00    +0.000 A 
ATOM      4  C   UNL     1      -3.581  13.092  21.853  0.00  0.00    +0.000 A 
ATOM      5  C   UNL     1      -4.913  12.865  21.547  0.00  0.00    +0.000 A 
ATOM      6  C   UNL     1      -5.305  12.229  20.357  0.00  0.00    +0.000 A 
ATOM      7  C   UNL     1      -6.614  11.775  20.188  0.00  0.00    +0.000 A 
ATOM      8  C   UNL     1      -7.019  11.112  19.027  0.00  0.00    +0.000 A 
ATOM      9  C   UNL     1      -6.790  11.770  17.851  0.00  0.00    +0.000 A 
ATOM     10  C   UNL     1      -5.422  12.037  18.034  0.00  0.00    +0.000 A 
ATOM     11  C   UNL     1      -4.471  12.145  19.281  0.00  0.00    +0.000 A 
BRANCH   3  12
ATOM     12  O   UNL     1      -1.347  13.171  21.298  0.00  0.00    +0.000 OA
ATOM     13  H   UNL     1      -0.641  12.656  20.878  0.00  0.00    +0.000 HD
ENDBRANCH   3  12
ENDBRANCH   1   2
BRANCH   1  14
ATOM     14  C   UNL     1      -2.326  11.073  17.539  0.00  0.00    +0.000 A 
ATOM     15  C   UNL     1      -2.669   9.746  17.315  0.00  0.00    +0.000 A 
ATOM     16  C   UNL     1      -3.248   9.682  16.050  0.00  0.00    +0.000 A 
ATOM     17  C   UNL     1      -2.909  10.858  15.430  0.00  0.00    +0.000 A 
ATOM     18  O   UNL     1      -2.428  11.755  16.345  0.00  0.00    +0.000 OA
ENDBRANCH   1  14
BRANCH   1  21
ATOM     19  O   UNL     1       0.884  11.826  19.606  0.00  0.00    +0.000 OA
ATOM     20  C   UNL     1       0.266  10.794  19.872  0.00  0.00    +0.000 C 
ATOM     21  N   UNL     1      -1.057  10.688  19.481  0.00  0.00    +0.000 N 
ATOM     22  H   UNL     1      -1.421   9.738  19.537  0.00  0.00    +0.000 HD
BRANCH  20  23
ATOM     23  C   UNL     1       0.880   9.625  20.657  0.00  0.00    +0.000 C 
BRANCH  23  24
ATOM     24  C   UNL     1       1.510   8.584  19.804  0.00  0.00    +0.000 A 
ATOM     25  C   UNL     1       1.846   7.305  20.330  0.00  0.00    +0.000 A 
ATOM     26  C   UNL     1       2.666   6.425  19.620  0.00  0.00    +0.000 A 
ATOM     27  C   UNL     1       2.910   6.735  18.312  0.00  0.00    +0.000 A 
ATOM     28  C   UNL     1       2.514   7.947  17.744  0.00  0.00    +0.000 A 
ATOM     29  C   UNL     1       1.818   8.880  18.472  0.00  0.00    +0.000 A 
ENDBRANCH  23  24
ENDBRANCH  20  23
ENDBRANCH   1  21
TORSDOF 6
ENDMDL
MODEL 5
REMARK VINA RESULT:      -7.5      3.107      6.818
REMARK  Name = 
REMARK  6 active torsions:
REMARK  status: ('A' for Active; 'I' for Inactive)
REMARK    1  A    between atoms: C_2  and  C_3
REMARK    2  A    between atoms: C_3  and  C_4
REMARK    3  A    between atoms: N_10  and  C_11
REMARK    4  A    between atoms: C_11  and  C_12
REMARK    5  A    between atoms: C_11  and  C_17
REMARK    6  A    between atoms: C_18  and  O_19
REMARK                            x       y       z     vdW  Elec       q    Type
REMARK                         _______ _______ _______ _____ _____    ______ ____
ROOT
ATOM      1  C   UNL     1       4.085   6.136  17.567  0.00  0.00    +0.000 C 
ENDROOT
BRANCH   1   2
ATOM      2  C   UNL     1       3.804   4.627  17.797  0.00  0.00    +0.000 A 
ATOM      3  C   UNL     1       4.127   3.741  16.730  0.00  0.00    +0.000 A 
ATOM      4  C   UNL     1       3.685   2.430  16.754  0.00  0.00    +0.000 A 
ATOM      5  C   UNL     1       2.928   1.991  17.828  0.00  0.00    +0.000 A 
ATOM      6  C   UNL     1       2.482   2.866  18.832  0.00  0.00    +0.000 A 
ATOM      7  C   UNL     1       1.512   2.465  19.751  0.00  0.00    +0.000 A 
ATOM      8  C   UNL     1       1.031   3.328  20.738  0.00  0.00    +0.000 A 
ATOM      9  C   UNL     1       1.974   3.896  21.547  0.00  0.00    +0.000 A 
ATOM     10  C   UNL     1       2.811   4.417  20.546  0.00  0.00    +0.000 A 
ATOM     11  C   UNL     1       3.063   4.085  19.030  0.00  0.00    +0.000 A 
BRANCH   3  12
ATOM     12  O   UNL     1       4.952   4.018  15.667  0.00  0.00    +0.000 OA
ATOM     13  H   UNL     1       5.034   3.289  15.033  0.00  0.00    +0.000 HD
ENDBRANCH   3  12
ENDBRANCH   1   2
BRANCH   1  14
ATOM     14  C   UNL     1       5.484   6.487  17.758  0.00  0.00    +0.000 A 
ATOM     15  C   UNL     1       6.406   5.995  18.673  0.00  0.00    +0.000 A 
ATOM     16  C   UNL     1       7.648   6.521  18.324  0.00  0.00    +0.000 A 
ATOM     17  C   UNL     1       7.380   7.563  17.474  0.00  0.00    +0.000 A 
ATOM     18  O   UNL     1       6.082   7.505  17.045  0.00  0.00    +0.000 OA
ENDBRANCH   1  14
BRANCH   1  21
ATOM     19  O   UNL     1       2.528   8.472  17.037  0.00  0.00    +0.000 OA
ATOM     20  C   UNL     1       2.574   8.097  18.210  0.00  0.00    +0.000 C 
ATOM     21  N   UNL     1       3.313   6.970  18.522  0.00  0.00    +0.000 N 
ATOM     22  H   UNL     1       3.481   6.859  19.521  0.00  0.00    +0.000 HD
BRANCH  20  23
ATOM     23  C   UNL     1       1.814   8.796  19.346  0.00  0.00    +0.000 C 
BRANCH  23  24
ATOM     24  C   UNL     1       0.980   9.944  18.904  0.00  0.00    +0.000 A 
ATOM     25  C   UNL     1       1.488  11.274  18.920  0.00  0.00    +0.000 A 
ATOM     26  C   UNL     1       0.641  12.372  18.760  0.00  0.00    +0.000 A 
ATOM     27  C   UNL     1      -0.630  12.109  18.334  0.00  0.00    +0.000 A 
ATOM     28  C   UNL     1      -1.128  10.810  18.224  0.00  0.00    +0.000 A 
ATOM     29  C   UNL     1      -0.342   9.720  18.505  0.00  0.00    +0.000 A 
ENDBRANCH  23  24
ENDBRANCH  20  23
ENDBRANCH   1  21
TORSDOF 6
ENDMDL
MODEL 6
REMARK VINA RESULT:      -7.4      8.948     11.461
REMARK  Name = 
REMARK  6 active torsions:
REMARK  status: ('A' for Active; 'I' for Inactive)
REMARK    1  A    between atoms: C_2  and  C_3
REMARK    2  A    between atoms: C_3  and  C_4
REMARK    3  A    between atoms: N_10  and  C_11
REMARK    4  A    between atoms: C_11  and  C_12
REMARK    5  A    between atoms: C_11  and  C_17
REMARK    6  A    between atoms: C_18  and  O_19
REMARK                            x       y       z     vdW  Elec       q    Type
REMARK                         _______ _______ _______ _____ _____    ______ ____
ROOT
ATOM      1  C   UNL     1      -0.089  11.346  19.071  0.00  0.00    +0.000 C 
ENDROOT
BRANCH   1   2
ATOM      2  C   UNL     1      -0.235  11.058  20.589  0.00  0.00    +0.000 A 
ATOM      3  C   UNL     1       0.261   9.808  21.059  0.00  0.00    +0.000 A 
ATOM      4  C   UNL     1      -0.049   9.371  22.335  0.00  0.00    +0.000 A 
ATOM      5  C   UNL     1      -0.842  10.164  23.148  0.00  0.00    +0.000 A 
ATOM      6  C   UNL     1      -1.453  11.337  22.676  0.00  0.00    +0.000 A 
ATOM      7  C   UNL     1      -2.449  11.972  23.419  0.00  0.00    +0.000 A 
ATOM      8  C   UNL     1      -3.093  13.122  22.955  0.00  0.00    +0.000 A 
ATOM      9  C   UNL     1      -2.280  14.167  22.615  0.00  0.00    +0.000 A 
ATOM     10  C   UNL     1      -1.421  13.476  21.742  0.00  0.00    +0.000 A 
ATOM     11  C   UNL     1      -1.015  11.970  21.550  0.00  0.00    +0.000 A 
BRANCH   3  12
ATOM     12  O   UNL     1       1.136   8.983  20.398  0.00  0.00    +0.000 OA
ATOM     13  H   UNL     1       1.507   9.368  19.589  0.00  0.00    +0.000 HD
ENDBRANCH   3  12
ENDBRANCH   1   2
BRANCH   1  14
ATOM     14  C   UNL     1       0.872  12.400  18.785  0.00  0.00    +0.000 A 
ATOM     15  C   UNL     1       0.674  13.767  18.637  0.00  0.00    +0.000 A 
ATOM     16  C   UNL     1       1.933  14.356  18.555  0.00  0.00    +0.000 A 
ATOM     17  C   UNL     1       2.803  13.329  18.291  0.00  0.00    +0.000 A 
ATOM     18  O   UNL     1       2.196  12.123  18.516  0.00  0.00    +0.000 OA
ENDBRANCH   1  14
BRANCH   1  21
ATOM     19  O   UNL     1      -2.258   9.750  18.118  0.00  0.00    +0.000 OA
ATOM     20  C   UNL     1      -2.400  10.971  18.042  0.00  0.00    +0.000 C 
ATOM     21  N   UNL     1      -1.380  11.791  18.490  0.00  0.00    +0.000 N 
ATOM     22  H   UNL     1      -1.478  12.761  18.190  0.00  0.00    +0.000 HD
BRANCH  20  23
ATOM     23  C   UNL     1      -3.676  11.637  17.507  0.00  0.00    +0.000 C 
BRANCH  23  24
ATOM     24  C   UNL     1      -4.800  11.665  18.480  0.00  0.00    +0.000 A 
ATOM     25  C   UNL     1      -4.732  12.455  19.662  0.00  0.00    +0.000 A 
ATOM     26  C   UNL     1      -5.655  12.288  20.696  0.00  0.00    +0.000 A 
ATOM     27  C   UNL     1      -6.758  11.533  20.416  0.00  0.00    +0.000 A 
ATOM     28  C   UNL     1      -6.893  10.817  19.225  0.00  0.00    +0.000 A 
ATOM     29  C   UNL     1      -5.928  10.870  18.251  0.00  0.00    +0.000 A 
ENDBRANCH  23  24
ENDBRANCH  20  23
ENDBRANCH   1  21
TORSDOF 6
ENDMDL
MODEL 7
REMARK VINA RESULT:      -7.4      3.099      6.833
REMARK  Name = 
REMARK  6 active torsions:
REMARK  status: ('A' for Active; 'I' for Inactive)
REMARK    1  A    between atoms: C_2  and  C_3
REMARK    2  A    between atoms: C_3  and  C_4
REMARK    3  A    between atoms: N_10  and  C_11
REMARK    4  A    between atoms: C_11  and  C_12
REMARK    5  A    between atoms: C_11  and  C_17
REMARK    6  A    between atoms: C_18  and  O_19
REMARK                            x       y       z     vdW  Elec       q    Type
REMARK                         _______ _______ _______ _____ _____    ______ ____
ROOT
ATOM      1  C   UNL     1       4.282   5.951  17.980  0.00  0.00    +0.000 C 
ENDROOT
BRANCH   1   2
ATOM      2  C   UNL     1       3.882   4.453  18.058  0.00  0.00    +0.000 A 
ATOM      3  C   UNL     1       4.131   3.658  16.903  0.00  0.00    +0.000 A 
ATOM      4  C   UNL     1       3.586   2.391  16.798  0.00  0.00    +0.000 A 
ATOM      5  C   UNL     1       2.801   1.904  17.831  0.00  0.00    +0.000 A 
ATOM      6  C   UNL     1       2.430   2.704  18.924  0.00  0.00    +0.000 A 
ATOM      7  C   UNL     1       1.434   2.288  19.809  0.00  0.00    +0.000 A 
ATOM      8  C   UNL     1       1.027   3.080  20.885  0.00  0.00    +0.000 A 
ATOM      9  C   UNL     1       2.015   3.487  21.737  0.00  0.00    +0.000 A 
ATOM     10  C   UNL     1       2.887   4.040  20.783  0.00  0.00    +0.000 A 
ATOM     11  C   UNL     1       3.106   3.846  19.238  0.00  0.00    +0.000 A 
BRANCH   3  12
ATOM     12  O   UNL     1       4.970   3.977  15.864  0.00  0.00    +0.000 OA
ATOM     13  H   UNL     1       4.563   4.538  15.187  0.00  0.00    +0.000 HD
ENDBRANCH   3  12
ENDBRANCH   1   2
BRANCH   1  14
ATOM     14  C   UNL     1       5.707   6.168  18.178  0.00  0.00    +0.000 A 
ATOM     15  C   UNL     1       6.609   6.895  17.413  0.00  0.00    +0.000 A 
ATOM     16  C   UNL     1       7.805   6.942  18.126  0.00  0.00    +0.000 A 
ATOM     17  C   UNL     1       7.700   5.966  19.084  0.00  0.00    +0.000 A 
ATOM     18  O   UNL     1       6.403   5.545  19.193  0.00  0.00    +0.000 OA
ENDBRANCH   1  14
BRANCH   1  21
ATOM     19  O   UNL     1       1.774   7.310  17.830  0.00  0.00    +0.000 OA
ATOM     20  C   UNL     1       2.372   7.379  18.905  0.00  0.00    +0.000 C 
ATOM     21  N   UNL     1       3.591   6.738  19.033  0.00  0.00    +0.000 N 
ATOM     22  H   UNL     1       4.116   7.025  19.858  0.00  0.00    +0.000 HD
BRANCH  20  23
ATOM     23  C   UNL     1       1.812   8.112  20.133  0.00  0.00    +0.000 C 
BRANCH  23  24
ATOM     24  C   UNL     1       1.043   9.341  19.810  0.00  0.00    +0.000 A 
ATOM     25  C   UNL     1       1.516  10.273  18.842  0.00  0.00    +0.000 A 
ATOM     26  C   UNL     1       0.945  11.541  18.722  0.00  0.00    +0.000 A 
ATOM     27  C   UNL     1      -0.233  11.748  19.382  0.00  0.00    +0.000 A 
ATOM     28  C   UNL     1      -0.767  10.813  20.271  0.00  0.00    +0.000 A 
ATOM     29  C   UNL     1      -0.144   9.611  20.498  0.00  0.00    +0.000 A 
ENDBRANCH  23  24
ENDBRANCH  20  23
ENDBRANCH   1  21
TORSDOF 6
ENDMDL
MODEL 8
REMARK VINA RESULT:      -7.4      8.112     11.021
REMARK  Name = 
REMARK  6 active torsions:
REMARK  status: ('A' for Active; 'I' for Inactive)
REMARK    1  A    between atoms: C_2  and  C_3
REMARK    2  A    between atoms: C_3  and  C_4
REMARK    3  A    between atoms: N_10  and  C_11
REMARK    4  A    between atoms: C_11  and  C_12
REMARK    5  A    between atoms: C_11  and  C_17
REMARK    6  A    between atoms: C_18  and  O_19
REMARK                            x       y       z     vdW  Elec       q    Type
REMARK                         _______ _______ _______ _____ _____    ______ ____
ROOT
ATOM      1  C   UNL     1       0.405  11.418  18.615  0.00  0.00    +0.000 C 
ENDROOT
BRANCH   1   2
ATOM      2  C   UNL     1       0.390  10.757  20.019  0.00  0.00    +0.000 A 
ATOM      3  C   UNL     1       0.850   9.412  20.103  0.00  0.00    +0.000 A 
ATOM      4  C   UNL     1       0.640   8.674  21.255  0.00  0.00    +0.000 A 
ATOM      5  C   UNL     1      -0.018   9.261  22.324  0.00  0.00    +0.000 A 
ATOM      6  C   UNL     1      -0.596  10.537  22.232  0.00  0.00    +0.000 A 
ATOM      7  C   UNL     1      -1.472  10.997  23.216  0.00  0.00    +0.000 A 
ATOM      8  C   UNL     1      -2.084  12.250  23.129  0.00  0.00    +0.000 A 
ATOM      9  C   UNL     1      -1.244  13.317  22.973  0.00  0.00    +0.000 A 
ATOM     10  C   UNL     1      -0.521  12.842  21.866  0.00  0.00    +0.000 A 
ATOM     11  C   UNL     1      -0.232  11.421  21.258  0.00  0.00    +0.000 A 
BRANCH   3  12
ATOM     12  O   UNL     1       1.602   8.751  19.164  0.00  0.00    +0.000 OA
ATOM     13  H   UNL     1       1.081   8.360  18.446  0.00  0.00    +0.000 HD
ENDBRANCH   3  12
ENDBRANCH   1   2
BRANCH   1  14
ATOM     14  C   UNL     1       1.199  12.637  18.571  0.00  0.00    +0.000 A 
ATOM     15  C   UNL     1       2.569  12.799  18.411  0.00  0.00    +0.000 A 
ATOM     16  C   UNL     1       2.803  14.163  18.254  0.00  0.00    +0.000 A 
ATOM     17  C   UNL     1       1.656  14.785  18.681  0.00  0.00    +0.000 A 
ATOM     18  O   UNL     1       0.638  13.877  18.792  0.00  0.00    +0.000 OA
ENDBRANCH   1  14
BRANCH   1  21
ATOM     19  O   UNL     1      -1.648   9.763  17.517  0.00  0.00    +0.000 OA
ATOM     20  C   UNL     1      -1.925  10.954  17.667  0.00  0.00    +0.000 C 
ATOM     21  N   UNL     1      -0.967  11.800  18.196  0.00  0.00    +0.000 N 
ATOM     22  H   UNL     1      -1.190  12.788  18.079  0.00  0.00    +0.000 HD
BRANCH  20  23
ATOM     23  C   UNL     1      -3.302  11.545  17.333  0.00  0.00    +0.000 C 
BRANCH  23  24
ATOM     24  C   UNL     1      -4.219  11.648  18.497  0.00  0.00    +0.000 A 
ATOM     25  C   UNL     1      -5.512  11.053  18.472  0.00  0.00    +0.000 A 
ATOM     26  C   UNL     1      -6.469  11.361  19.441  0.00  0.00    +0.000 A 
ATOM     27  C   UNL     1      -6.029  12.044  20.539  0.00  0.00    +0.000 A 
ATOM     28  C   UNL     1      -4.737  12.564  20.630  0.00  0.00    +0.000 A 
ATOM     29  C   UNL     1      -3.823  12.378  19.622  0.00  0.00    +0.000 A 
ENDBRANCH  23  24
ENDBRANCH  20  23
ENDBRANCH   1  21
TORSDOF 6
ENDMDL
MODEL 9
REMARK VINA RESULT:      -7.3      8.515     11.381
REMARK  Name = 
REMARK  6 active torsions:
REMARK  status: ('A' for Active; 'I' for Inactive)
REMARK    1  A    between atoms: C_2  and  C_3
REMARK    2  A    between atoms: C_3  and  C_4
REMARK    3  A    between atoms: N_10  and  C_11
REMARK    4  A    between atoms: C_11  and  C_12
REMARK    5  A    between atoms: C_11  and  C_17
REMARK    6  A    between atoms: C_18  and  O_19
REMARK                            x       y       z     vdW  Elec       q    Type
REMARK                         _______ _______ _______ _____ _____    ______ ____
ROOT
ATOM      1  C   UNL     1      -0.740  12.150  18.773  0.00  0.00    +0.000 C 
ENDROOT
BRANCH   1   2
ATOM      2  C   UNL     1      -1.142  11.678  20.196  0.00  0.00    +0.000 A 
ATOM      3  C   UNL     1      -2.089  12.478  20.897  0.00  0.00    +0.000 A 
ATOM      4  C   UNL     1      -2.313  12.272  22.246  0.00  0.00    +0.000 A 
ATOM      5  C   UNL     1      -1.608  11.278  22.905  0.00  0.00    +0.000 A 
ATOM      6  C   UNL     1      -0.577  10.558  22.280  0.00  0.00    +0.000 A 
ATOM      7  C   UNL     1       0.289   9.757  23.026  0.00  0.00    +0.000 A 
ATOM      8  C   UNL     1       1.341   9.057  22.430  0.00  0.00    +0.000 A 
ATOM      9  C   UNL     1       0.999   8.226  21.400  0.00  0.00    +0.000 A 
ATOM     10  C   UNL     1       0.281   9.153  20.625  0.00  0.00    +0.000 A 
ATOM     11  C   UNL     1      -0.460  10.508  20.922  0.00  0.00    +0.000 A 
BRANCH   3  12
ATOM     12  O   UNL     1      -2.924  13.418  20.344  0.00  0.00    +0.000 OA
ATOM     13  H   UNL     1      -3.390  13.113  19.551  0.00  0.00    +0.000 HD
ENDBRANCH   3  12
ENDBRANCH   1   2
BRANCH   1  14
ATOM     14  C   UNL     1      -0.099  13.456  18.769  0.00  0.00    +0.000 A 
ATOM     15  C   UNL     1       1.238  13.790  18.942  0.00  0.00    +0.000 A 
ATOM     16  C   UNL     1       1.357  15.151  18.668  0.00  0.00    +0.000 A 
ATOM     17  C   UNL     1       0.078  15.647  18.703  0.00  0.00    +0.000 A 
ATOM     18  O   UNL     1      -0.829  14.623  18.672  0.00  0.00    +0.000 OA
ENDBRANCH   1  14
BRANCH   1  21
ATOM     19  O   UNL     1      -2.061  10.109  17.273  0.00  0.00    +0.000 OA
ATOM     20  C   UNL     1      -2.534  11.243  17.192  0.00  0.00    +0.000 C 
ATOM     21  N   UNL     1      -1.934  12.270  17.899  0.00  0.00    +0.000 N 
ATOM     22  H   UNL     1      -2.240  13.197  17.607  0.00  0.00    +0.000 HD
BRANCH  20  23
ATOM     23  C   UNL     1      -3.791  11.574  16.372  0.00  0.00    +0.000 C 
BRANCH  23  24
ATOM     24  C   UNL     1      -5.038  11.651  17.175  0.00  0.00    +0.000 A 
ATOM     25  C   UNL     1      -5.985  12.695  16.968  0.00  0.00    +0.000 A 
ATOM     26  C   UNL     1      -7.016  12.926  17.880  0.00  0.00    +0.000 A 
ATOM     27  C   UNL     1      -7.227  11.960  18.823  0.00  0.00    +0.000 A 
ATOM     28  C   UNL     1      -6.364  10.876  18.992  0.00  0.00    +0.000 A 
ATOM     29  C   UNL     1      -5.268  10.707  18.181  0.00  0.00    +0.000 A 
ENDBRANCH  23  24
ENDBRANCH  20  23
ENDBRANCH   1  21
TORSDOF 6
ENDMDL
