MODEL 1
REMARK VINA RESULT:      -9.3      0.000      0.000
REMARK  Name = 
REMARK  3 active torsions:
REMARK  status: ('A' for Active; 'I' for Inactive)
REMARK    1  A    between atoms: C_2  and  C_3
REMARK    2  A    between atoms: C_3  and  C_4
REMARK    3  A    between atoms: N_19  and  C_20
REMARK                            x       y       z     vdW  Elec       q    Type
REMARK                         _______ _______ _______ _____ _____    ______ ____
ROOT
ATOM      1  C   UNL     1       5.955   6.174  18.164  0.00  0.00    +0.000 C 
ATOM      2  N   UNL     1       4.561   6.516  17.842  0.00  0.00    +0.000 N 
ATOM      3  C   UNL     1       3.629   5.883  18.697  0.00  0.00    +0.000 A 
ATOM      4  C   UNL     1       2.900   6.680  19.595  0.00  0.00    +0.000 A 
ATOM      5  C   UNL     1       1.862   6.139  20.342  0.00  0.00    +0.000 A 
ATOM      6  C   UNL     1       1.497   4.814  20.142  0.00  0.00    +0.000 A 
ATOM      7  C   UNL     1       2.210   3.997  19.251  0.00  0.00    +0.000 A 
ATOM      8  C   UNL     1       1.772   2.686  19.017  0.00  0.00    +0.000 A 
ATOM      9  C   UNL     1       2.455   1.853  18.140  0.00  0.00    +0.000 A 
ATOM     10  C   UNL     1       3.637   2.295  17.560  0.00  0.00    +0.000 A 
ATOM     11  C   UNL     1       4.129   3.584  17.822  0.00  0.00    +0.000 A 
ATOM     12  C   UNL     1       3.360   4.498  18.584  0.00  0.00    +0.000 A 
ATOM     13  N   UNL     1       5.469   3.785  17.429  0.00  0.00    +0.000 N 
ATOM     14  C   UNL     1       6.354   4.733  17.842  0.00  0.00    +0.000 C 
ATOM     15  O   UNL     1       7.545   4.392  17.900  0.00  0.00    +0.000 OA
ATOM     16  H   UNL     1       4.452   7.530  17.956  0.00  0.00    +0.000 HD
ATOM     17  H   UNL     1       5.956   2.955  17.119  0.00  0.00    +0.000 HD
ENDROOT
BRANCH   1  18
ATOM     18  C   UNL     1       6.887   7.058  17.305  0.00  0.00    +0.000 C 
BRANCH  18  20
ATOM     19  O   UNL     1       8.595   7.173  18.972  0.00  0.00    +0.000 OA
ATOM     20  C   UNL     1       7.925   7.778  18.142  0.00  0.00    +0.000 C 
ATOM     21  N   UNL     1       7.981   9.133  17.880  0.00  0.00    +0.000 N 
ATOM     22  H   UNL     1       7.245   9.530  17.307  0.00  0.00    +0.000 HD
BRANCH  21  23
ATOM     23  C   UNL     1       8.919  10.041  18.424  0.00  0.00    +0.000 A 
ATOM     24  C   UNL     1       9.770  10.824  17.635  0.00  0.00    +0.000 A 
ATOM     25  C   UNL     1      10.661  11.725  18.222  0.00  0.00    +0.000 A 
ATOM     26  C   UNL     1      10.705  11.840  19.600  0.00  0.00    +0.000 A 
ATOM     27  F   UNL     1      11.554  12.710  20.161  0.00  0.00    +0.000 F 
ATOM     28  C   UNL     1       9.870  11.073  20.406  0.00  0.00    +0.000 A 
ATOM     29  C   UNL     1       8.973  10.176  19.818  0.00  0.00    +0.000 A 
ENDBRANCH  21  23
ENDBRANCH  18  20
ENDBRANCH   1  18
TORSDOF 3
ENDMDL
MODEL 2
REMARK VINA RESULT:      -9.1      4.146      5.632
REMARK  Name = 
REMARK  3 active torsions:
REMARK  status: ('A' for Active; 'I' for Inactive)
REMARK    1  A    between atoms: C_2  and  C_3
REMARK    2  A    between atoms: C_3  and  C_4
REMARK    3  A    between atoms: N_19  and  C_20
REMARK                            x       y       z     vdW  Elec       q    Type
REMARK                         _______ _______ _______ _____ _____    ______ ____
ROOT
ATOM      1  C   UNL     1       5.506   6.094  18.487  0.00  0.00    +0.000 C 
ATOM      2  N   UNL     1       4.100   6.300  18.106  0.00  0.00    +0.000 N 
ATOM      3  C   UNL     1       3.193   5.811  19.075  0.00  0.00    +0.000 A 
ATOM      4  C   UNL     1       2.423   6.739  19.795  0.00  0.00    +0.000 A 
ATOM      5  C   UNL     1       1.405   6.314  20.640  0.00  0.00    +0.000 A 
ATOM      6  C   UNL     1       1.102   4.961  20.714  0.00  0.00    +0.000 A 
ATOM      7  C   UNL     1       1.857   4.014  20.004  0.00  0.00    +0.000 A 
ATOM      8  C   UNL     1       1.481   2.664  20.042  0.00  0.00    +0.000 A 
ATOM      9  C   UNL     1       2.207   1.703  19.349  0.00  0.00    +0.000 A 
ATOM     10  C   UNL     1       3.370   2.072  18.688  0.00  0.00    +0.000 A 
ATOM     11  C   UNL     1       3.802   3.409  18.683  0.00  0.00    +0.000 A 
ATOM     12  C   UNL     1       2.988   4.421  19.246  0.00  0.00    +0.000 A 
ATOM     13  N   UNL     1       5.134   3.587  18.253  0.00  0.00    +0.000 N 
ATOM     14  C   UNL     1       5.972   4.638  18.463  0.00  0.00    +0.000 C 
ATOM     15  O   UNL     1       7.178   4.371  18.585  0.00  0.00    +0.000 OA
ATOM     16  H   UNL     1       3.944   7.310  18.014  0.00  0.00    +0.000 HD
ATOM     17  H   UNL     1       5.660   2.734  18.116  0.00  0.00    +0.000 HD
ENDROOT
BRANCH   1  18
ATOM     18  C   UNL     1       6.403   6.827  17.464  0.00  0.00    +0.000 C 
BRANCH  18  20
ATOM     19  O   UNL     1       5.210   6.927  15.397  0.00  0.00    +0.000 OA
ATOM     20  C   UNL     1       6.114   6.402  16.039  0.00  0.00    +0.000 C 
ATOM     21  N   UNL     1       6.934   5.379  15.605  0.00  0.00    +0.000 N 
ATOM     22  H   UNL     1       7.509   4.915  16.298  0.00  0.00    +0.000 HD
BRANCH  21  23
ATOM     23  C   UNL     1       6.971   4.850  14.294  0.00  0.00    +0.000 A 
ATOM     24  C   UNL     1       7.820   5.343  13.296  0.00  0.00    +0.000 A 
ATOM     25  C   UNL     1       7.837   4.767  12.024  0.00  0.00    +0.000 A 
ATOM     26  C   UNL     1       7.000   3.700  11.748  0.00  0.00    +0.000 A 
ATOM     27  F   UNL     1       7.023   3.144  10.530  0.00  0.00    +0.000 F 
ATOM     28  C   UNL     1       6.148   3.192  12.722  0.00  0.00    +0.000 A 
ATOM     29  C   UNL     1       6.136   3.764  13.999  0.00  0.00    +0.000 A 
ENDBRANCH  21  23
ENDBRANCH  18  20
ENDBRANCH   1  18
TORSDOF 3
ENDMDL
MODEL 3
REMARK VINA RESULT:      -8.9      4.337      6.084
REMARK  Name = 
REMARK  3 active torsions:
REMARK  status: ('A' for Active; 'I' for Inactive)
REMARK    1  A    between atoms: C_2  and  C_3
REMARK    2  A    between atoms: C_3  and  C_4
REMARK    3  A    between atoms: N_19  and  C_20
REMARK                            x       y       z     vdW  Elec       q    Type
REMARK                         _______ _______ _______ _____ _____    ______ ____
ROOT
ATOM      1  C   UNL     1       6.199   6.328  18.251  0.00  0.00    +0.000 C 
ATOM      2  N   UNL     1       4.842   6.238  17.691  0.00  0.00    +0.000 N 
ATOM      3  C   UNL     1       3.840   6.200  18.688  0.00  0.00    +0.000 A 
ATOM      4  C   UNL     1       2.979   7.304  18.811  0.00  0.00    +0.000 A 
ATOM      5  C   UNL     1       1.881   7.257  19.659  0.00  0.00    +0.000 A 
ATOM      6  C   UNL     1       1.592   6.078  20.335  0.00  0.00    +0.000 A 
ATOM      7  C   UNL     1       2.436   4.962  20.229  0.00  0.00    +0.000 A 
ATOM      8  C   UNL     1       2.079   3.766  20.865  0.00  0.00    +0.000 A 
ATOM      9  C   UNL     1       2.893   2.642  20.779  0.00  0.00    +0.000 A 
ATOM     10  C   UNL     1       4.117   2.736  20.131  0.00  0.00    +0.000 A 
ATOM     11  C   UNL     1       4.526   3.940  19.534  0.00  0.00    +0.000 A 
ATOM     12  C   UNL     1       3.638   5.041  19.475  0.00  0.00    +0.000 A 
ATOM     13  N   UNL     1       5.894   3.984  19.195  0.00  0.00    +0.000 N 
ATOM     14  C   UNL     1       6.688   5.064  18.960  0.00  0.00    +0.000 C 
ATOM     15  O   UNL     1       7.876   4.966  19.303  0.00  0.00    +0.000 OA
ATOM     16  H   UNL     1       4.682   7.075  17.118  0.00  0.00    +0.000 HD
ATOM     17  H   UNL     1       6.446   3.203  19.526  0.00  0.00    +0.000 HD
ENDROOT
BRANCH   1  18
ATOM     18  C   UNL     1       7.194   6.555  17.090  0.00  0.00    +0.000 C 
BRANCH  18  20
ATOM     19  O   UNL     1       7.763   4.336  16.413  0.00  0.00    +0.000 OA
ATOM     20  C   UNL     1       7.215   5.394  16.117  0.00  0.00    +0.000 C 
ATOM     21  N   UNL     1       6.603   5.686  14.914  0.00  0.00    +0.000 N 
ATOM     22  H   UNL     1       6.359   6.653  14.737  0.00  0.00    +0.000 HD
BRANCH  21  23
ATOM     23  C   UNL     1       6.375   4.771  13.860  0.00  0.00    +0.000 A 
ATOM     24  C   UNL     1       7.327   4.491  12.874  0.00  0.00    +0.000 A 
ATOM     25  C   UNL     1       7.062   3.559  11.868  0.00  0.00    +0.000 A 
ATOM     26  C   UNL     1       5.839   2.910  11.846  0.00  0.00    +0.000 A 
ATOM     27  F   UNL     1       5.589   2.010  10.886  0.00  0.00    +0.000 F 
ATOM     28  C   UNL     1       4.877   3.171  12.815  0.00  0.00    +0.000 A 
ATOM     29  C   UNL     1       5.146   4.099  13.827  0.00  0.00    +0.000 A 
ENDBRANCH  21  23
ENDBRANCH  18  20
ENDBRANCH   1  18
TORSDOF 3
ENDMDL
MODEL 4
REMARK VINA RESULT:      -8.9      1.465      1.848
REMARK  Name = 
REMARK  3 active torsions:
REMARK  status: ('A' for Active; 'I' for Inactive)
REMARK    1  A    between atoms: C_2  and  C_3
REMARK    2  A    between atoms: C_3  and  C_4
REMARK    3  A    between atoms: N_19  and  C_20
REMARK                            x       y       z     vdW  Elec       q    Type
REMARK                         _______ _______ _______ _____ _____    ______ ____
ROOT
ATOM      1  C   UNL     1       6.587   6.641  18.573  0.00  0.00    +0.000 C 
ATOM      2  N   UNL     1       5.686   6.618  17.410  0.00  0.00    +0.000 N 
ATOM      3  C   UNL     1       4.335   6.402  17.768  0.00  0.00    +0.000 A 
ATOM      4  C   UNL     1       3.424   7.457  17.593  0.00  0.00    +0.000 A 
ATOM      5  C   UNL     1       2.061   7.256  17.774  0.00  0.00    +0.000 A 
ATOM      6  C   UNL     1       1.594   5.979  18.059  0.00  0.00    +0.000 A 
ATOM      7  C   UNL     1       2.484   4.909  18.238  0.00  0.00    +0.000 A 
ATOM      8  C   UNL     1       1.978   3.620  18.453  0.00  0.00    +0.000 A 
ATOM      9  C   UNL     1       2.834   2.540  18.633  0.00  0.00    +0.000 A 
ATOM     10  C   UNL     1       4.203   2.757  18.692  0.00  0.00    +0.000 A 
ATOM     11  C   UNL     1       4.734   4.048  18.538  0.00  0.00    +0.000 A 
ATOM     12  C   UNL     1       3.888   5.129  18.194  0.00  0.00    +0.000 A 
ATOM     13  N   UNL     1       6.085   4.171  18.928  0.00  0.00    +0.000 N 
ATOM     14  C   UNL     1       6.787   5.289  19.258  0.00  0.00    +0.000 C 
ATOM     15  O   UNL     1       7.663   5.158  20.127  0.00  0.00    +0.000 OA
ATOM     16  H   UNL     1       5.746   7.532  16.948  0.00  0.00    +0.000 HD
ATOM     17  H   UNL     1       6.478   3.357  19.383  0.00  0.00    +0.000 HD
ENDROOT
BRANCH   1  18
ATOM     18  C   UNL     1       7.993   7.069  18.095  0.00  0.00    +0.000 C 
BRANCH  18  20
ATOM     19  O   UNL     1       7.534   9.270  17.286  0.00  0.00    +0.000 OA
ATOM     20  C   UNL     1       8.160   8.575  18.080  0.00  0.00    +0.000 C 
ATOM     21  N   UNL     1       9.085   9.024  19.002  0.00  0.00    +0.000 N 
ATOM     22  H   UNL     1       9.662   8.328  19.462  0.00  0.00    +0.000 HD
BRANCH  21  23
ATOM     23  C   UNL     1       9.372  10.377  19.292  0.00  0.00    +0.000 A 
ATOM     24  C   UNL     1       9.310  10.911  20.584  0.00  0.00    +0.000 A 
ATOM     25  C   UNL     1       9.630  12.250  20.821  0.00  0.00    +0.000 A 
ATOM     26  C   UNL     1      10.008  13.057  19.762  0.00  0.00    +0.000 A 
ATOM     27  F   UNL     1      10.322  14.339  19.991  0.00  0.00    +0.000 F 
ATOM     28  C   UNL     1      10.078  12.551  18.469  0.00  0.00    +0.000 A 
ATOM     29  C   UNL     1       9.764  11.208  18.234  0.00  0.00    +0.000 A 
ENDBRANCH  21  23
ENDBRANCH  18  20
ENDBRANCH   1  18
TORSDOF 3
ENDMDL
MODEL 5
REMARK VINA RESULT:      -8.7      4.369      6.174
REMARK  Name = 
REMARK  3 active torsions:
REMARK  status: ('A' for Active; 'I' for Inactive)
REMARK    1  A    between atoms: C_2  and  C_3
REMARK    2  A    between atoms: C_3  and  C_4
REMARK    3  A    between atoms: N_19  and  C_20
REMARK                            x       y       z     vdW  Elec       q    Type
REMARK                         _______ _______ _______ _____ _____    ______ ____
ROOT
ATOM      1  C   UNL     1       5.830   6.301  18.349  0.00  0.00    +0.000 C 
ATOM      2  N   UNL     1       4.421   6.264  17.926  0.00  0.00    +0.000 N 
ATOM      3  C   UNL     1       3.528   6.105  19.012  0.00  0.00    +0.000 A 
ATOM      4  C   UNL     1       2.689   7.181  19.347  0.00  0.00    +0.000 A 
ATOM      5  C   UNL     1       1.685   7.031  20.293  0.00  0.00    +0.000 A 
ATOM      6  C   UNL     1       1.464   5.781  20.859  0.00  0.00    +0.000 A 
ATOM      7  C   UNL     1       2.288   4.691  20.540  0.00  0.00    +0.000 A 
ATOM      8  C   UNL     1       1.995   3.427  21.072  0.00  0.00    +0.000 A 
ATOM      9  C   UNL     1       2.791   2.328  20.775  0.00  0.00    +0.000 A 
ATOM     10  C   UNL     1       3.942   2.503  20.018  0.00  0.00    +0.000 A 
ATOM     11  C   UNL     1       4.290   3.770  19.522  0.00  0.00    +0.000 A 
ATOM     12  C   UNL     1       3.406   4.864  19.680  0.00  0.00    +0.000 A 
ATOM     13  N   UNL     1       5.616   3.864  19.049  0.00  0.00    +0.000 N 
ATOM     14  C   UNL     1       6.385   4.970  18.856  0.00  0.00    +0.000 C 
ATOM     15  O   UNL     1       7.602   4.843  19.060  0.00  0.00    +0.000 OA
ATOM     16  H   UNL     1       4.205   7.158  17.471  0.00  0.00    +0.000 HD
ATOM     17  H   UNL     1       6.197   3.055  19.231  0.00  0.00    +0.000 HD
ENDROOT
BRANCH   1  18
ATOM     18  C   UNL     1       6.699   6.666  17.124  0.00  0.00    +0.000 C 
BRANCH  18  20
ATOM     19  O   UNL     1       5.236   6.878  15.246  0.00  0.00    +0.000 OA
ATOM     20  C   UNL     1       6.080   6.198  15.822  0.00  0.00    +0.000 C 
ATOM     21  N   UNL     1       6.542   4.961  15.419  0.00  0.00    +0.000 N 
ATOM     22  H   UNL     1       7.095   4.430  16.082  0.00  0.00    +0.000 HD
BRANCH  21  23
ATOM     23  C   UNL     1       6.229   4.319  14.198  0.00  0.00    +0.000 A 
ATOM     24  C   UNL     1       4.960   3.804  13.910  0.00  0.00    +0.000 A 
ATOM     25  C   UNL     1       4.696   3.203  12.678  0.00  0.00    +0.000 A 
ATOM     26  C   UNL     1       5.704   3.112  11.734  0.00  0.00    +0.000 A 
ATOM     27  F   UNL     1       5.448   2.543  10.549  0.00  0.00    +0.000 F 
ATOM     28  C   UNL     1       6.973   3.617  11.996  0.00  0.00    +0.000 A 
ATOM     29  C   UNL     1       7.235   4.226  13.228  0.00  0.00    +0.000 A 
ENDBRANCH  21  23
ENDBRANCH  18  20
ENDBRANCH   1  18
TORSDOF 3
ENDMDL
MODEL 6
REMARK VINA RESULT:      -8.6      5.170      7.146
REMARK  Name = 
REMARK  3 active torsions:
REMARK  status: ('A' for Active; 'I' for Inactive)
REMARK    1  A    between atoms: C_2  and  C_3
REMARK    2  A    between atoms: C_3  and  C_4
REMARK    3  A    between atoms: N_19  and  C_20
REMARK                            x       y       z     vdW  Elec       q    Type
REMARK                         _______ _______ _______ _____ _____    ______ ____
ROOT
ATOM      1  C   UNL     1       3.183   7.128  18.538  0.00  0.00    +0.000 C 
ATOM      2  N   UNL     1       1.999   6.301  18.820  0.00  0.00    +0.000 N 
ATOM      3  C   UNL     1       2.310   5.133  19.555  0.00  0.00    +0.000 A 
ATOM      4  C   UNL     1       1.848   5.036  20.878  0.00  0.00    +0.000 A 
ATOM      5  C   UNL     1       1.982   3.853  21.592  0.00  0.00    +0.000 A 
ATOM      6  C   UNL     1       2.513   2.734  20.963  0.00  0.00    +0.000 A 
ATOM      7  C   UNL     1       2.981   2.805  19.641  0.00  0.00    +0.000 A 
ATOM      8  C   UNL     1       3.443   1.642  19.010  0.00  0.00    +0.000 A 
ATOM      9  C   UNL     1       3.911   1.679  17.703  0.00  0.00    +0.000 A 
ATOM     10  C   UNL     1       4.008   2.899  17.047  0.00  0.00    +0.000 A 
ATOM     11  C   UNL     1       3.606   4.089  17.677  0.00  0.00    +0.000 A 
ATOM     12  C   UNL     1       2.978   4.044  18.945  0.00  0.00    +0.000 A 
ATOM     13  N   UNL     1       4.044   5.264  17.032  0.00  0.00    +0.000 N 
ATOM     14  C   UNL     1       4.162   6.526  17.529  0.00  0.00    +0.000 C 
ATOM     15  O   UNL     1       5.092   7.214  17.081  0.00  0.00    +0.000 OA
ATOM     16  H   UNL     1       1.351   6.863  19.384  0.00  0.00    +0.000 HD
ATOM     17  H   UNL     1       4.692   5.121  16.268  0.00  0.00    +0.000 HD
ENDROOT
BRANCH   1  18
ATOM     18  C   UNL     1       2.712   8.457  17.906  0.00  0.00    +0.000 C 
BRANCH  18  20
ATOM     19  O   UNL     1       1.316   8.873  19.800  0.00  0.00    +0.000 OA
ATOM     20  C   UNL     1       1.482   9.014  18.593  0.00  0.00    +0.000 C 
ATOM     21  N   UNL     1       0.610   9.633  17.718  0.00  0.00    +0.000 N 
ATOM     22  H   UNL     1       0.781   9.514  16.726  0.00  0.00    +0.000 HD
BRANCH  21  23
ATOM     23  C   UNL     1      -0.563  10.336  18.080  0.00  0.00    +0.000 A 
ATOM     24  C   UNL     1      -0.555  11.445  18.933  0.00  0.00    +0.000 A 
ATOM     25  C   UNL     1      -1.738  12.121  19.237  0.00  0.00    +0.000 A 
ATOM     26  C   UNL     1      -2.933  11.683  18.691  0.00  0.00    +0.000 A 
ATOM     27  F   UNL     1      -4.066  12.337  18.978  0.00  0.00    +0.000 F 
ATOM     28  C   UNL     1      -2.967  10.583  17.841  0.00  0.00    +0.000 A 
ATOM     29  C   UNL     1      -1.780   9.911  17.530  0.00  0.00    +0.000 A 
ENDBRANCH  21  23
ENDBRANCH  18  20
ENDBRANCH   1  18
TORSDOF 3
ENDMDL
MODEL 7
REMARK VINA RESULT:      -8.5      4.584      6.527
REMARK  Name = 
REMARK  3 active torsions:
REMARK  status: ('A' for Active; 'I' for Inactive)
REMARK    1  A    between atoms: C_2  and  C_3
REMARK    2  A    between atoms: C_3  and  C_4
REMARK    3  A    between atoms: N_19  and  C_20
REMARK                            x       y       z     vdW  Elec       q    Type
REMARK                         _______ _______ _______ _____ _____    ______ ____
ROOT
ATOM      1  C   UNL     1       6.224   6.428  17.784  0.00  0.00    +0.000 C 
ATOM      2  N   UNL     1       4.895   6.385  17.155  0.00  0.00    +0.000 N 
ATOM      3  C   UNL     1       3.865   6.816  18.023  0.00  0.00    +0.000 A 
ATOM      4  C   UNL     1       3.211   8.026  17.732  0.00  0.00    +0.000 A 
ATOM      5  C   UNL     1       2.090   8.418  18.451  0.00  0.00    +0.000 A 
ATOM      6  C   UNL     1       1.570   7.567  19.419  0.00  0.00    +0.000 A 
ATOM      7  C   UNL     1       2.204   6.354  19.727  0.00  0.00    +0.000 A 
ATOM      8  C   UNL     1       1.615   5.485  20.656  0.00  0.00    +0.000 A 
ATOM      9  C   UNL     1       2.218   4.276  20.982  0.00  0.00    +0.000 A 
ATOM     10  C   UNL     1       3.463   3.970  20.451  0.00  0.00    +0.000 A 
ATOM     11  C   UNL     1       4.103   4.850  19.562  0.00  0.00    +0.000 A 
ATOM     12  C   UNL     1       3.429   6.005  19.097  0.00  0.00    +0.000 A 
ATOM     13  N   UNL     1       5.469   4.570  19.352  0.00  0.00    +0.000 N 
ATOM     14  C   UNL     1       6.452   5.385  18.879  0.00  0.00    +0.000 C 
ATOM     15  O   UNL     1       7.589   5.211  19.342  0.00  0.00    +0.000 OA
ATOM     16  H   UNL     1       4.909   7.018  16.347  0.00  0.00    +0.000 HD
ATOM     17  H   UNL     1       5.860   3.853  19.949  0.00  0.00    +0.000 HD
ENDROOT
BRANCH   1  18
ATOM     18  C   UNL     1       7.287   6.125  16.704  0.00  0.00    +0.000 C 
BRANCH  18  20
ATOM     19  O   UNL     1       6.678   3.841  16.356  0.00  0.00    +0.000 OA
ATOM     20  C   UNL     1       6.911   4.933  15.848  0.00  0.00    +0.000 C 
ATOM     21  N   UNL     1       6.903   5.220  14.497  0.00  0.00    +0.000 N 
ATOM     22  H   UNL     1       7.294   6.108  14.205  0.00  0.00    +0.000 HD
BRANCH  21  23
ATOM     23  C   UNL     1       6.488   4.343  13.468  0.00  0.00    +0.000 A 
ATOM     24  C   UNL     1       7.379   3.749  12.566  0.00  0.00    +0.000 A 
ATOM     25  C   UNL     1       6.921   2.869  11.584  0.00  0.00    +0.000 A 
ATOM     26  C   UNL     1       5.569   2.585  11.501  0.00  0.00    +0.000 A 
ATOM     27  F   UNL     1       5.132   1.733  10.564  0.00  0.00    +0.000 F 
ATOM     28  C   UNL     1       4.664   3.161  12.385  0.00  0.00    +0.000 A 
ATOM     29  C   UNL     1       5.124   4.037  13.374  0.00  0.00    +0.000 A 
ENDBRANCH  21  23
ENDBRANCH  18  20
ENDBRANCH   1  18
TORSDOF 3
ENDMDL
MODEL 8
REMARK VINA RESULT:      -8.4      4.976      6.464
REMARK  Name = 
REMARK  3 active torsions:
REMARK  status: ('A' for Active; 'I' for Inactive)
REMARK    1  A    between atoms: C_2  and  C_3
REMARK    2  A    between atoms: C_3  and  C_4
REMARK    3  A    between atoms: N_19  and  C_20
REMARK                            x       y       z     vdW  Elec       q    Type
REMARK                         _______ _______ _______ _____ _____    ______ ____
ROOT
ATOM      1  C   UNL     1       3.067   7.054  18.406  0.00  0.00    +0.000 C 
ATOM      2  N   UNL     1       1.872   6.211  18.564  0.00  0.00    +0.000 N 
ATOM      3  C   UNL     1       2.115   5.056  19.342  0.00  0.00    +0.000 A 
ATOM      4  C   UNL     1       1.510   4.964  20.607  0.00  0.00    +0.000 A 
ATOM      5  C   UNL     1       1.580   3.790  21.345  0.00  0.00    +0.000 A 
ATOM      6  C   UNL     1       2.194   2.674  20.792  0.00  0.00    +0.000 A 
ATOM      7  C   UNL     1       2.806   2.740  19.530  0.00  0.00    +0.000 A 
ATOM      8  C   UNL     1       3.353   1.578  18.969  0.00  0.00    +0.000 A 
ATOM      9  C   UNL     1       3.965   1.610  17.721  0.00  0.00    +0.000 A 
ATOM     10  C   UNL     1       4.117   2.825  17.067  0.00  0.00    +0.000 A 
ATOM     11  C   UNL     1       3.629   4.013  17.634  0.00  0.00    +0.000 A 
ATOM     12  C   UNL     1       2.863   3.972  18.824  0.00  0.00    +0.000 A 
ATOM     13  N   UNL     1       4.119   5.190  17.028  0.00  0.00    +0.000 N 
ATOM     14  C   UNL     1       4.162   6.458  17.521  0.00  0.00    +0.000 C 
ATOM     15  O   UNL     1       5.126   7.156  17.171  0.00  0.00    +0.000 OA
ATOM     16  H   UNL     1       1.156   6.768  19.045  0.00  0.00    +0.000 HD
ATOM     17  H   UNL     1       4.850   5.049  16.343  0.00  0.00    +0.000 HD
ENDROOT
BRANCH   1  18
ATOM     18  C   UNL     1       2.651   8.369  17.711  0.00  0.00    +0.000 C 
BRANCH  18  20
ATOM     19  O   UNL     1       0.595   9.576  17.872  0.00  0.00    +0.000 OA
ATOM     20  C   UNL     1       1.555   9.095  18.465  0.00  0.00    +0.000 C 
ATOM     21  N   UNL     1       1.791   9.166  19.824  0.00  0.00    +0.000 N 
ATOM     22  H   UNL     1       2.710   8.891  20.154  0.00  0.00    +0.000 HD
BRANCH  21  23
ATOM     23  C   UNL     1       0.900   9.684  20.792  0.00  0.00    +0.000 A 
ATOM     24  C   UNL     1       0.544  11.036  20.856  0.00  0.00    +0.000 A 
ATOM     25  C   UNL     1      -0.362  11.492  21.816  0.00  0.00    +0.000 A 
ATOM     26  C   UNL     1      -0.910  10.595  22.716  0.00  0.00    +0.000 A 
ATOM     27  F   UNL     1      -1.785  11.032  23.631  0.00  0.00    +0.000 F 
ATOM     28  C   UNL     1      -0.573   9.246  22.673  0.00  0.00    +0.000 A 
ATOM     29  C   UNL     1       0.329   8.788  21.706  0.00  0.00    +0.000 A 
ENDBRANCH  21  23
ENDBRANCH  18  20
ENDBRANCH   1  18
TORSDOF 3
ENDMDL
MODEL 9
REMARK VINA RESULT:      -8.3      6.330      9.386
REMARK  Name = 
REMARK  3 active torsions:
REMARK  status: ('A' for Active; 'I' for Inactive)
REMARK    1  A    between atoms: C_2  and  C_3
REMARK    2  A    between atoms: C_3  and  C_4
REMARK    3  A    between atoms: N_19  and  C_20
REMARK                            x       y       z     vdW  Elec       q    Type
REMARK                         _______ _______ _______ _____ _____    ______ ____
ROOT
ATOM      1  C   UNL     1       0.692   9.622  21.500  0.00  0.00    +0.000 C 
ATOM      2  N   UNL     1      -0.173   9.936  20.352  0.00  0.00    +0.000 N 
ATOM      3  C   UNL     1      -0.311  11.326  20.136  0.00  0.00    +0.000 A 
ATOM      4  C   UNL     1       0.266  11.882  18.981  0.00  0.00    +0.000 A 
ATOM      5  C   UNL     1       0.027  13.205  18.634  0.00  0.00    +0.000 A 
ATOM      6  C   UNL     1      -0.852  13.962  19.399  0.00  0.00    +0.000 A 
ATOM      7  C   UNL     1      -1.441  13.430  20.556  0.00  0.00    +0.000 A 
ATOM      8  C   UNL     1      -2.378  14.194  21.265  0.00  0.00    +0.000 A 
ATOM      9  C   UNL     1      -2.980  13.695  22.414  0.00  0.00    +0.000 A 
ATOM     10  C   UNL     1      -2.579  12.464  22.915  0.00  0.00    +0.000 A 
ATOM     11  C   UNL     1      -1.600  11.703  22.255  0.00  0.00    +0.000 A 
ATOM     12  C   UNL     1      -1.097  12.125  21.001  0.00  0.00    +0.000 A 
ATOM     13  N   UNL     1      -1.071  10.645  23.025  0.00  0.00    +0.000 N 
ATOM     14  C   UNL     1       0.098   9.967  22.866  0.00  0.00    +0.000 C 
ATOM     15  O   UNL     1       0.658   9.577  23.902  0.00  0.00    +0.000 OA
ATOM     16  H   UNL     1       0.258   9.530  19.514  0.00  0.00    +0.000 HD
ATOM     17  H   UNL     1      -1.364  10.628  23.993  0.00  0.00    +0.000 HD
ENDROOT
BRANCH   1  18
ATOM     18  C   UNL     1       0.929   8.095  21.531  0.00  0.00    +0.000 C 
BRANCH  18  20
ATOM     19  O   UNL     1       1.928   8.364  19.378  0.00  0.00    +0.000 OA
ATOM     20  C   UNL     1       1.682   7.606  20.311  0.00  0.00    +0.000 C 
ATOM     21  N   UNL     1       2.002   6.264  20.376  0.00  0.00    +0.000 N 
ATOM     22  H   UNL     1       1.577   5.718  21.117  0.00  0.00    +0.000 HD
BRANCH  21  23
ATOM     23  C   UNL     1       2.791   5.557  19.441  0.00  0.00    +0.000 A 
ATOM     24  C   UNL     1       4.190   5.532  19.486  0.00  0.00    +0.000 A 
ATOM     25  C   UNL     1       4.923   4.796  18.553  0.00  0.00    +0.000 A 
ATOM     26  C   UNL     1       4.256   4.086  17.570  0.00  0.00    +0.000 A 
ATOM     27  F   UNL     1       4.959   3.373  16.681  0.00  0.00    +0.000 F 
ATOM     28  C   UNL     1       2.867   4.094  17.504  0.00  0.00    +0.000 A 
ATOM     29  C   UNL     1       2.133   4.826  18.443  0.00  0.00    +0.000 A 
ENDBRANCH  21  23
ENDBRANCH  18  20
ENDBRANCH   1  18
TORSDOF 3
ENDMDL
