MODEL 1
REMARK VINA RESULT:      -8.9      0.000      0.000
REMARK  Name = 
REMARK  5 active torsions:
REMARK  status: ('A' for Active; 'I' for Inactive)
REMARK    1  A    between atoms: C_1  and  N_2
REMARK    2  A    between atoms: C_3  and  C_4
REMARK    3  A    between atoms: C_5  and  C_6
REMARK    4  A    between atoms: C_9  and  C_10
REMARK    5  A    between atoms: N_11  and  N_12
REMARK                            x       y       z     vdW  Elec       q    Type
REMARK                         _______ _______ _______ _____ _____    ______ ____
ROOT
ATOM      1  C   UNL     1       7.670   7.847  17.875  0.00  0.00    +0.000 A 
ATOM      2  C   UNL     1       6.539   7.564  17.097  0.00  0.00    +0.000 A 
ATOM      3  C   UNL     1       5.847   6.365  17.261  0.00  0.00    +0.000 A 
ATOM      4  C   UNL     1       6.288   5.419  18.190  0.00  0.00    +0.000 A 
ATOM      5  C   UNL     1       7.452   5.654  18.923  0.00  0.00    +0.000 A 
ATOM      6  C   UNL     1       8.143   6.862  18.757  0.00  0.00    +0.000 A 
ENDROOT
BRANCH   1   8
ATOM      7  C   UNL     1       8.959   9.712  18.861  0.00  0.00    +0.000 C 
ATOM      8  C   UNL     1       8.372   9.142  17.795  0.00  0.00    +0.000 C 
BRANCH   7  11
ATOM      9  C   UNL     1       9.227  11.823  21.244  0.00  0.00    +0.000 C 
ATOM     10  N   UNL     1       9.850  11.902  19.925  0.00  0.00    +0.000 N 
ATOM     11  C   UNL     1       9.739  10.981  18.871  0.00  0.00    +0.000 A 
ATOM     12  C   UNL     1      10.510  11.499  17.845  0.00  0.00    +0.000 A 
ATOM     13  N   UNL     1      11.062  12.679  18.291  0.00  0.00    +0.000 N 
ATOM     14  C   UNL     1      11.910  13.533  17.612  0.00  0.00    +0.000 A 
ATOM     15  C   UNL     1      12.322  14.645  18.256  0.00  0.00    +0.000 A 
ATOM     16  C   UNL     1      11.912  14.966  19.615  0.00  0.00    +0.000 A 
ATOM     17  C   UNL     1      11.090  14.135  20.280  0.00  0.00    +0.000 A 
ATOM     18  C   UNL     1      10.649  12.909  19.554  0.00  0.00    +0.000 A 
ENDBRANCH   7  11
ENDBRANCH   1   8
BRANCH   4  19
ATOM     19  C   UNL     1       5.477   4.212  18.453  0.00  0.00    +0.000 C 
ATOM     20  N   UNL     1       4.304   4.089  17.915  0.00  0.00    +0.000 NA
BRANCH  20  21
ATOM     21  N   UNL     1       3.580   3.004  18.333  0.00  0.00    +0.000 N 
ATOM     22  C   UNL     1       2.578   3.108  19.255  0.00  0.00    +0.000 C 
ATOM     23  N   UNL     1       2.237   2.187  20.113  0.00  0.00    +0.000 NA
ATOM     24  C   UNL     1       1.150   2.840  20.911  0.00  0.00    +0.000 C 
ATOM     25  C   UNL     1       1.139   4.324  20.515  0.00  0.00    +0.000 C 
ATOM     26  N   UNL     1       1.893   4.281  19.293  0.00  0.00    +0.000 N 
ATOM     27  H   UNL     1       4.039   2.097  18.388  0.00  0.00    +0.000 HD
ATOM     28  H   UNL     1       2.391   5.089  18.944  0.00  0.00    +0.000 HD
ENDBRANCH  20  21
ENDBRANCH   4  19
TORSDOF 4
ENDMDL
MODEL 2
REMARK VINA RESULT:      -8.6      1.248      1.457
REMARK  Name = 
REMARK  5 active torsions:
REMARK  status: ('A' for Active; 'I' for Inactive)
REMARK    1  A    between atoms: C_1  and  N_2
REMARK    2  A    between atoms: C_3  and  C_4
REMARK    3  A    between atoms: C_5  and  C_6
REMARK    4  A    between atoms: C_9  and  C_10
REMARK    5  A    between atoms: N_11  and  N_12
REMARK                            x       y       z     vdW  Elec       q    Type
REMARK                         _______ _______ _______ _____ _____    ______ ____
ROOT
ATOM      1  C   UNL     1       7.847   7.582  18.208  0.00  0.00    +0.000 A 
ATOM      2  C   UNL     1       6.880   7.646  17.196  0.00  0.00    +0.000 A 
ATOM      3  C   UNL     1       6.047   6.557  16.939  0.00  0.00    +0.000 A 
ATOM      4  C   UNL     1       6.182   5.379  17.678  0.00  0.00    +0.000 A 
ATOM      5  C   UNL     1       7.186   5.273  18.642  0.00  0.00    +0.000 A 
ATOM      6  C   UNL     1       8.019   6.371  18.898  0.00  0.00    +0.000 A 
ENDROOT
BRANCH   1   8
ATOM      7  C   UNL     1       8.609   9.915  17.915  0.00  0.00    +0.000 C 
ATOM      8  C   UNL     1       8.682   8.743  18.568  0.00  0.00    +0.000 C 
BRANCH   7  11
ATOM      9  C   UNL     1       7.789  12.928  17.236  0.00  0.00    +0.000 C 
ATOM     10  N   UNL     1       8.990  12.480  17.934  0.00  0.00    +0.000 N 
ATOM     11  C   UNL     1       9.361  11.160  18.238  0.00  0.00    +0.000 A 
ATOM     12  C   UNL     1      10.570  11.259  18.903  0.00  0.00    +0.000 A 
ATOM     13  N   UNL     1      10.890  12.595  18.995  0.00  0.00    +0.000 N 
ATOM     14  C   UNL     1      11.998  13.167  19.587  0.00  0.00    +0.000 A 
ATOM     15  C   UNL     1      12.102  14.513  19.548  0.00  0.00    +0.000 A 
ATOM     16  C   UNL     1      11.104  15.362  18.917  0.00  0.00    +0.000 A 
ATOM     17  C   UNL     1      10.021  14.809  18.342  0.00  0.00    +0.000 A 
ATOM     18  C   UNL     1       9.921  13.321  18.399  0.00  0.00    +0.000 A 
ENDBRANCH   7  11
ENDBRANCH   1   8
BRANCH   4  19
ATOM     19  C   UNL     1       5.212   4.280  17.493  0.00  0.00    +0.000 C 
ATOM     20  N   UNL     1       3.998   4.542  17.124  0.00  0.00    +0.000 NA
BRANCH  20  21
ATOM     21  N   UNL     1       3.144   3.470  17.119  0.00  0.00    +0.000 N 
ATOM     22  C   UNL     1       2.221   3.270  18.104  0.00  0.00    +0.000 C 
ATOM     23  N   UNL     1       1.793   2.110  18.520  0.00  0.00    +0.000 NA
ATOM     24  C   UNL     1       0.860   2.463  19.638  0.00  0.00    +0.000 C 
ATOM     25  C   UNL     1       1.048   3.962  19.915  0.00  0.00    +0.000 C 
ATOM     26  N   UNL     1       1.720   4.376  18.715  0.00  0.00    +0.000 N 
ATOM     27  H   UNL     1       3.466   2.586  16.730  0.00  0.00    +0.000 HD
ATOM     28  H   UNL     1       2.313   5.195  18.689  0.00  0.00    +0.000 HD
ENDBRANCH  20  21
ENDBRANCH   4  19
TORSDOF 4
ENDMDL
MODEL 3
REMARK VINA RESULT:      -8.1      1.392      1.749
REMARK  Name = 
REMARK  5 active torsions:
REMARK  status: ('A' for Active; 'I' for Inactive)
REMARK    1  A    between atoms: C_1  and  N_2
REMARK    2  A    between atoms: C_3  and  C_4
REMARK    3  A    between atoms: C_5  and  C_6
REMARK    4  A    between atoms: C_9  and  C_10
REMARK    5  A    between atoms: N_11  and  N_12
REMARK                            x       y       z     vdW  Elec       q    Type
REMARK                         _______ _______ _______ _____ _____    ______ ____
ROOT
ATOM      1  C   UNL     1       8.306   8.383  18.468  0.00  0.00    +0.000 A 
ATOM      2  C   UNL     1       7.456   8.202  17.369  0.00  0.00    +0.000 A 
ATOM      3  C   UNL     1       6.827   6.977  17.150  0.00  0.00    +0.000 A 
ATOM      4  C   UNL     1       7.056   5.905  18.017  0.00  0.00    +0.000 A 
ATOM      5  C   UNL     1       7.954   6.045  19.076  0.00  0.00    +0.000 A 
ATOM      6  C   UNL     1       8.581   7.279  19.294  0.00  0.00    +0.000 A 
ENDROOT
BRANCH   1   8
ATOM      7  C   UNL     1       9.068  10.654  17.860  0.00  0.00    +0.000 C 
ATOM      8  C   UNL     1       8.914   9.689  18.782  0.00  0.00    +0.000 C 
BRANCH   7  11
ATOM      9  C   UNL     1      11.945  11.447  19.001  0.00  0.00    +0.000 C 
ATOM     10  N   UNL     1      10.880  12.358  18.591  0.00  0.00    +0.000 N 
ATOM     11  C   UNL     1       9.613  12.021  18.089  0.00  0.00    +0.000 A 
ATOM     12  C   UNL     1       8.979  13.228  17.849  0.00  0.00    +0.000 A 
ATOM     13  N   UNL     1       9.852  14.236  18.189  0.00  0.00    +0.000 N 
ATOM     14  C   UNL     1       9.652  15.600  18.104  0.00  0.00    +0.000 A 
ATOM     15  C   UNL     1      10.660  16.404  18.505  0.00  0.00    +0.000 A 
ATOM     16  C   UNL     1      11.923  15.890  19.012  0.00  0.00    +0.000 A 
ATOM     17  C   UNL     1      12.123  14.562  19.092  0.00  0.00    +0.000 A 
ATOM     18  C   UNL     1      11.000  13.690  18.640  0.00  0.00    +0.000 A 
ENDBRANCH   7  11
ENDBRANCH   1   8
BRANCH   4  19
ATOM     19  C   UNL     1       6.287   4.653  17.857  0.00  0.00    +0.000 C 
ATOM     20  N   UNL     1       5.532   4.229  18.822  0.00  0.00    +0.000 NA
BRANCH  20  21
ATOM     21  N   UNL     1       4.975   2.992  18.627  0.00  0.00    +0.000 N 
ATOM     22  C   UNL     1       3.625   2.805  18.558  0.00  0.00    +0.000 C 
ATOM     23  N   UNL     1       2.986   1.734  18.939  0.00  0.00    +0.000 NA
ATOM     24  C   UNL     1       1.548   2.084  18.709  0.00  0.00    +0.000 C 
ATOM     25  C   UNL     1       1.504   3.586  18.386  0.00  0.00    +0.000 C 
ATOM     26  N   UNL     1       2.883   3.832  18.067  0.00  0.00    +0.000 N 
ATOM     27  H   UNL     1       5.442   2.175  19.015  0.00  0.00    +0.000 HD
ATOM     28  H   UNL     1       3.296   4.751  18.156  0.00  0.00    +0.000 HD
ENDBRANCH  20  21
ENDBRANCH   4  19
TORSDOF 4
ENDMDL
MODEL 4
REMARK VINA RESULT:      -7.9      7.356     10.841
REMARK  Name = 
REMARK  5 active torsions:
REMARK  status: ('A' for Active; 'I' for Inactive)
REMARK    1  A    between atoms: C_1  and  N_2
REMARK    2  A    between atoms: C_3  and  C_4
REMARK    3  A    between atoms: C_5  and  C_6
REMARK    4  A    between atoms: C_9  and  C_10
REMARK    5  A    between atoms: N_11  and  N_12
REMARK                            x       y       z     vdW  Elec       q    Type
REMARK                         _______ _______ _______ _____ _____    ______ ____
ROOT
ATOM      1  C   UNL     1       0.618   9.263  21.204  0.00  0.00    +0.000 A 
ATOM      2  C   UNL     1       0.010  10.296  20.479  0.00  0.00    +0.000 A 
ATOM      3  C   UNL     1      -0.812  11.224  21.118  0.00  0.00    +0.000 A 
ATOM      4  C   UNL     1      -1.056  11.120  22.490  0.00  0.00    +0.000 A 
ATOM      5  C   UNL     1      -0.516  10.056  23.214  0.00  0.00    +0.000 A 
ATOM      6  C   UNL     1       0.312   9.128  22.568  0.00  0.00    +0.000 A 
ENDROOT
BRANCH   1   8
ATOM      7  C   UNL     1       1.651   8.160  19.247  0.00  0.00    +0.000 C 
ATOM      8  C   UNL     1       1.565   8.321  20.579  0.00  0.00    +0.000 C 
BRANCH   7  11
ATOM      9  C   UNL     1       1.992   4.994  19.510  0.00  0.00    +0.000 C 
ATOM     10  N   UNL     1       2.751   5.891  18.643  0.00  0.00    +0.000 N 
ATOM     11  C   UNL     1       2.610   7.283  18.520  0.00  0.00    +0.000 A 
ATOM     12  C   UNL     1       3.548   7.666  17.577  0.00  0.00    +0.000 A 
ATOM     13  N   UNL     1       4.207   6.534  17.156  0.00  0.00    +0.000 N 
ATOM     14  C   UNL     1       5.214   6.434  16.216  0.00  0.00    +0.000 A 
ATOM     15  C   UNL     1       5.717   5.206  15.969  0.00  0.00    +0.000 A 
ATOM     16  C   UNL     1       5.243   4.009  16.646  0.00  0.00    +0.000 A 
ATOM     17  C   UNL     1       4.260   4.102  17.560  0.00  0.00    +0.000 A 
ATOM     18  C   UNL     1       3.712   5.466  17.815  0.00  0.00    +0.000 A 
ENDBRANCH   7  11
ENDBRANCH   1   8
BRANCH   4  19
ATOM     19  C   UNL     1      -1.818  12.179  23.184  0.00  0.00    +0.000 C 
ATOM     20  N   UNL     1      -3.112  12.127  23.225  0.00  0.00    +0.000 NA
BRANCH  20  21
ATOM     21  N   UNL     1      -3.725  13.225  23.768  0.00  0.00    +0.000 N 
ATOM     22  C   UNL     1      -5.081  13.315  23.893  0.00  0.00    +0.000 C 
ATOM     23  N   UNL     1      -5.778  14.416  23.837  0.00  0.00    +0.000 NA
ATOM     24  C   UNL     1      -7.193  13.941  23.962  0.00  0.00    +0.000 C 
ATOM     25  C   UNL     1      -7.158  12.410  23.841  0.00  0.00    +0.000 C 
ATOM     26  N   UNL     1      -5.763  12.153  24.072  0.00  0.00    +0.000 N 
ATOM     27  H   UNL     1      -3.305  14.142  23.628  0.00  0.00    +0.000 HD
ATOM     28  H   UNL     1      -5.308  11.321  23.721  0.00  0.00    +0.000 HD
ENDBRANCH  20  21
ENDBRANCH   4  19
TORSDOF 4
ENDMDL
MODEL 5
REMARK VINA RESULT:      -7.9      0.908      1.307
REMARK  Name = 
REMARK  5 active torsions:
REMARK  status: ('A' for Active; 'I' for Inactive)
REMARK    1  A    between atoms: C_1  and  N_2
REMARK    2  A    between atoms: C_3  and  C_4
REMARK    3  A    between atoms: C_5  and  C_6
REMARK    4  A    between atoms: C_9  and  C_10
REMARK    5  A    between atoms: N_11  and  N_12
REMARK                            x       y       z     vdW  Elec       q    Type
REMARK                         _______ _______ _______ _____ _____    ______ ____
ROOT
ATOM      1  C   UNL     1       7.987   7.859  18.152  0.00  0.00    +0.000 A 
ATOM      2  C   UNL     1       8.185   6.665  18.858  0.00  0.00    +0.000 A 
ATOM      3  C   UNL     1       7.328   5.580  18.675  0.00  0.00    +0.000 A 
ATOM      4  C   UNL     1       6.244   5.681  17.798  0.00  0.00    +0.000 A 
ATOM      5  C   UNL     1       5.990   6.886  17.141  0.00  0.00    +0.000 A 
ATOM      6  C   UNL     1       6.857   7.972  17.326  0.00  0.00    +0.000 A 
ENDROOT
BRANCH   1   8
ATOM      7  C   UNL     1       8.512  10.260  18.414  0.00  0.00    +0.000 C 
ATOM      8  C   UNL     1       8.926   8.992  18.251  0.00  0.00    +0.000 C 
BRANCH   7  11
ATOM      9  C   UNL     1       9.135  11.856  21.111  0.00  0.00    +0.000 C 
ATOM     10  N   UNL     1       9.645  12.154  19.775  0.00  0.00    +0.000 N 
ATOM     11  C   UNL     1       9.378  11.461  18.584  0.00  0.00    +0.000 A 
ATOM     12  C   UNL     1      10.091  12.125  17.602  0.00  0.00    +0.000 A 
ATOM     13  N   UNL     1      10.762  13.166  18.203  0.00  0.00    +0.000 N 
ATOM     14  C   UNL     1      11.605  14.089  17.615  0.00  0.00    +0.000 A 
ATOM     15  C   UNL     1      12.150  15.033  18.411  0.00  0.00    +0.000 A 
ATOM     16  C   UNL     1      11.882  15.108  19.840  0.00  0.00    +0.000 A 
ATOM     17  C   UNL     1      11.065  14.210  20.416  0.00  0.00    +0.000 A 
ATOM     18  C   UNL     1      10.477  13.171  19.522  0.00  0.00    +0.000 A 
ENDBRANCH   7  11
ENDBRANCH   1   8
BRANCH   4  19
ATOM     19  C   UNL     1       5.419   4.490  17.508  0.00  0.00    +0.000 C 
ATOM     20  N   UNL     1       4.256   4.626  16.953  0.00  0.00    +0.000 NA
BRANCH  20  21
ATOM     21  N   UNL     1       3.516   3.477  16.857  0.00  0.00    +0.000 N 
ATOM     22  C   UNL     1       2.514   3.181  17.736  0.00  0.00    +0.000 C 
ATOM     23  N   UNL     1       2.158   1.982  18.105  0.00  0.00    +0.000 NA
ATOM     24  C   UNL     1       1.079   2.233  19.113  0.00  0.00    +0.000 C 
ATOM     25  C   UNL     1       1.089   3.741  19.406  0.00  0.00    +0.000 C 
ATOM     26  N   UNL     1       1.845   4.228  18.285  0.00  0.00    +0.000 N 
ATOM     27  H   UNL     1       3.963   2.632  16.507  0.00  0.00    +0.000 HD
ATOM     28  H   UNL     1       2.355   5.100  18.323  0.00  0.00    +0.000 HD
ENDBRANCH  20  21
ENDBRANCH   4  19
TORSDOF 4
ENDMDL
MODEL 6
REMARK VINA RESULT:      -7.9      1.203      1.465
REMARK  Name = 
REMARK  5 active torsions:
REMARK  status: ('A' for Active; 'I' for Inactive)
REMARK    1  A    between atoms: C_1  and  N_2
REMARK    2  A    between atoms: C_3  and  C_4
REMARK    3  A    between atoms: C_5  and  C_6
REMARK    4  A    between atoms: C_9  and  C_10
REMARK    5  A    between atoms: N_11  and  N_12
REMARK                            x       y       z     vdW  Elec       q    Type
REMARK                         _______ _______ _______ _____ _____    ______ ____
ROOT
ATOM      1  C   UNL     1       7.811   8.317  17.802  0.00  0.00    +0.000 A 
ATOM      2  C   UNL     1       6.686   7.833  17.121  0.00  0.00    +0.000 A 
ATOM      3  C   UNL     1       6.146   6.587  17.436  0.00  0.00    +0.000 A 
ATOM      4  C   UNL     1       6.737   5.794  18.423  0.00  0.00    +0.000 A 
ATOM      5  C   UNL     1       7.899   6.228  19.063  0.00  0.00    +0.000 A 
ATOM      6  C   UNL     1       8.436   7.483  18.744  0.00  0.00    +0.000 A 
ENDROOT
BRANCH   1   8
ATOM      7  C   UNL     1       8.783  10.461  18.555  0.00  0.00    +0.000 C 
ATOM      8  C   UNL     1       8.353   9.667  17.560  0.00  0.00    +0.000 C 
BRANCH   7  11
ATOM      9  C   UNL     1      11.850  11.263  18.952  0.00  0.00    +0.000 C 
ATOM     10  N   UNL     1      10.749  12.151  18.587  0.00  0.00    +0.000 N 
ATOM     11  C   UNL     1       9.398  11.810  18.411  0.00  0.00    +0.000 A 
ATOM     12  C   UNL     1       8.761  12.990  18.071  0.00  0.00    +0.000 A 
ATOM     13  N   UNL     1       9.711  13.986  18.039  0.00  0.00    +0.000 N 
ATOM     14  C   UNL     1       9.535  15.322  17.735  0.00  0.00    +0.000 A 
ATOM     15  C   UNL     1      10.624  16.119  17.775  0.00  0.00    +0.000 A 
ATOM     16  C   UNL     1      11.949  15.626  18.119  0.00  0.00    +0.000 A 
ATOM     17  C   UNL     1      12.125  14.326  18.412  0.00  0.00    +0.000 A 
ATOM     18  C   UNL     1      10.911  13.459  18.357  0.00  0.00    +0.000 A 
ENDBRANCH   7  11
ENDBRANCH   1   8
BRANCH   4  19
ATOM     19  C   UNL     1       6.085   4.536  18.845  0.00  0.00    +0.000 C 
ATOM     20  N   UNL     1       4.834   4.332  18.574  0.00  0.00    +0.000 NA
BRANCH  20  21
ATOM     21  N   UNL     1       4.292   3.203  19.130  0.00  0.00    +0.000 N 
ATOM     22  C   UNL     1       3.125   3.227  19.836  0.00  0.00    +0.000 C 
ATOM     23  N   UNL     1       2.822   2.439  20.831  0.00  0.00    +0.000 NA
ATOM     24  C   UNL     1       1.480   2.935  21.273  0.00  0.00    +0.000 C 
ATOM     25  C   UNL     1       1.229   4.257  20.531  0.00  0.00    +0.000 C 
ATOM     26  N   UNL     1       2.208   4.167  19.484  0.00  0.00    +0.000 N 
ATOM     27  H   UNL     1       4.916   2.475  19.472  0.00  0.00    +0.000 HD
ATOM     28  H   UNL     1       2.580   4.989  19.028  0.00  0.00    +0.000 HD
ENDBRANCH  20  21
ENDBRANCH   4  19
TORSDOF 4
ENDMDL
MODEL 7
REMARK VINA RESULT:      -7.9      1.416      1.902
REMARK  Name = 
REMARK  5 active torsions:
REMARK  status: ('A' for Active; 'I' for Inactive)
REMARK    1  A    between atoms: C_1  and  N_2
REMARK    2  A    between atoms: C_3  and  C_4
REMARK    3  A    between atoms: C_5  and  C_6
REMARK    4  A    between atoms: C_9  and  C_10
REMARK    5  A    between atoms: N_11  and  N_12
REMARK                            x       y       z     vdW  Elec       q    Type
REMARK                         _______ _______ _______ _____ _____    ______ ____
ROOT
ATOM      1  C   UNL     1       7.655   7.945  17.843  0.00  0.00    +0.000 A 
ATOM      2  C   UNL     1       8.182   6.878  18.582  0.00  0.00    +0.000 A 
ATOM      3  C   UNL     1       7.446   5.707  18.764  0.00  0.00    +0.000 A 
ATOM      4  C   UNL     1       6.161   5.594  18.227  0.00  0.00    +0.000 A 
ATOM      5  C   UNL     1       5.593   6.673  17.549  0.00  0.00    +0.000 A 
ATOM      6  C   UNL     1       6.337   7.846  17.366  0.00  0.00    +0.000 A 
ENDROOT
BRANCH   1   8
ATOM      7  C   UNL     1       8.528  10.185  18.417  0.00  0.00    +0.000 C 
ATOM      8  C   UNL     1       8.439   9.160  17.553  0.00  0.00    +0.000 C 
BRANCH   7  11
ATOM      9  C   UNL     1       7.537  13.043  17.390  0.00  0.00    +0.000 C 
ATOM     10  N   UNL     1       8.892  12.675  17.792  0.00  0.00    +0.000 N 
ATOM     11  C   UNL     1       9.339  11.423  18.244  0.00  0.00    +0.000 A 
ATOM     12  C   UNL     1      10.689  11.584  18.498  0.00  0.00    +0.000 A 
ATOM     13  N   UNL     1      11.018  12.890  18.214  0.00  0.00    +0.000 N 
ATOM     14  C   UNL     1      12.250  13.503  18.331  0.00  0.00    +0.000 A 
ATOM     15  C   UNL     1      12.333  14.806  17.985  0.00  0.00    +0.000 A 
ATOM     16  C   UNL     1      11.191  15.568  17.504  0.00  0.00    +0.000 A 
ATOM     17  C   UNL     1       9.989  14.975  17.392  0.00  0.00    +0.000 A 
ATOM     18  C   UNL     1       9.915  13.537  17.784  0.00  0.00    +0.000 A 
ENDBRANCH   7  11
ENDBRANCH   1   8
BRANCH   4  19
ATOM     19  C   UNL     1       5.441   4.307  18.309  0.00  0.00    +0.000 C 
ATOM     20  N   UNL     1       5.180   3.640  17.228  0.00  0.00    +0.000 NA
BRANCH  20  21
ATOM     21  N   UNL     1       4.388   2.535  17.400  0.00  0.00    +0.000 N 
ATOM     22  C   UNL     1       3.086   2.627  17.800  0.00  0.00    +0.000 C 
ATOM     23  N   UNL     1       2.447   1.743  18.514  0.00  0.00    +0.000 NA
ATOM     24  C   UNL     1       1.100   2.367  18.717  0.00  0.00    +0.000 C 
ATOM     25  C   UNL     1       1.203   3.817  18.219  0.00  0.00    +0.000 C 
ATOM     26  N   UNL     1       2.407   3.747  17.438  0.00  0.00    +0.000 N 
ATOM     27  H   UNL     1       4.814   1.670  17.726  0.00  0.00    +0.000 HD
ATOM     28  H   UNL     1       2.976   4.564  17.259  0.00  0.00    +0.000 HD
ENDBRANCH  20  21
ENDBRANCH   4  19
TORSDOF 4
ENDMDL
MODEL 8
REMARK VINA RESULT:      -7.9      7.409     11.295
REMARK  Name = 
REMARK  5 active torsions:
REMARK  status: ('A' for Active; 'I' for Inactive)
REMARK    1  A    between atoms: C_1  and  N_2
REMARK    2  A    between atoms: C_3  and  C_4
REMARK    3  A    between atoms: C_5  and  C_6
REMARK    4  A    between atoms: C_9  and  C_10
REMARK    5  A    between atoms: N_11  and  N_12
REMARK                            x       y       z     vdW  Elec       q    Type
REMARK                         _______ _______ _______ _____ _____    ______ ____
ROOT
ATOM      1  C   UNL     1       0.410   9.834  21.055  0.00  0.00    +0.000 A 
ATOM      2  C   UNL     1      -0.117   9.398  22.279  0.00  0.00    +0.000 A 
ATOM      3  C   UNL     1      -0.931  10.234  23.041  0.00  0.00    +0.000 A 
ATOM      4  C   UNL     1      -1.214  11.530  22.602  0.00  0.00    +0.000 A 
ATOM      5  C   UNL     1      -0.642  12.006  21.421  0.00  0.00    +0.000 A 
ATOM      6  C   UNL     1       0.173  11.160  20.657  0.00  0.00    +0.000 A 
ENDROOT
BRANCH   1   8
ATOM      7  C   UNL     1       1.500   7.681  20.520  0.00  0.00    +0.000 C 
ATOM      8  C   UNL     1       1.197   8.946  20.180  0.00  0.00    +0.000 C 
BRANCH   7  11
ATOM      9  C   UNL     1       1.469   4.498  20.784  0.00  0.00    +0.000 C 
ATOM     10  N   UNL     1       2.213   5.292  19.810  0.00  0.00    +0.000 N 
ATOM     11  C   UNL     1       2.234   6.690  19.684  0.00  0.00    +0.000 A 
ATOM     12  C   UNL     1       3.077   6.952  18.619  0.00  0.00    +0.000 A 
ATOM     13  N   UNL     1       3.525   5.746  18.132  0.00  0.00    +0.000 N 
ATOM     14  C   UNL     1       4.376   5.520  17.067  0.00  0.00    +0.000 A 
ATOM     15  C   UNL     1       4.682   4.238  16.774  0.00  0.00    +0.000 A 
ATOM     16  C   UNL     1       4.155   3.111  17.528  0.00  0.00    +0.000 A 
ATOM     17  C   UNL     1       3.324   3.326  18.563  0.00  0.00    +0.000 A 
ATOM     18  C   UNL     1       2.992   4.749  18.868  0.00  0.00    +0.000 A 
ENDBRANCH   7  11
ENDBRANCH   1   8
BRANCH   4  19
ATOM     19  C   UNL     1      -2.182  12.364  23.345  0.00  0.00    +0.000 C 
ATOM     20  N   UNL     1      -3.271  11.836  23.809  0.00  0.00    +0.000 NA
BRANCH  20  21
ATOM     21  N   UNL     1      -4.163  12.721  24.357  0.00  0.00    +0.000 N 
ATOM     22  C   UNL     1      -5.249  13.179  23.669  0.00  0.00    +0.000 C 
ATOM     23  N   UNL     1      -5.797  14.354  23.811  0.00  0.00    +0.000 NA
ATOM     24  C   UNL     1      -6.888  14.357  22.785  0.00  0.00    +0.000 C 
ATOM     25  C   UNL     1      -6.677  13.111  21.911  0.00  0.00    +0.000 C 
ATOM     26  N   UNL     1      -5.791  12.345  22.743  0.00  0.00    +0.000 N 
ATOM     27  H   UNL     1      -3.822  13.416  25.017  0.00  0.00    +0.000 HD
ATOM     28  H   UNL     1      -5.163  11.652  22.359  0.00  0.00    +0.000 HD
ENDBRANCH  20  21
ENDBRANCH   4  19
TORSDOF 4
ENDMDL
MODEL 9
REMARK VINA RESULT:      -7.7      1.230      1.939
REMARK  Name = 
REMARK  5 active torsions:
REMARK  status: ('A' for Active; 'I' for Inactive)
REMARK    1  A    between atoms: C_1  and  N_2
REMARK    2  A    between atoms: C_3  and  C_4
REMARK    3  A    between atoms: C_5  and  C_6
REMARK    4  A    between atoms: C_9  and  C_10
REMARK    5  A    between atoms: N_11  and  N_12
REMARK                            x       y       z     vdW  Elec       q    Type
REMARK                         _______ _______ _______ _____ _____    ______ ____
ROOT
ATOM      1  C   UNL     1       8.219   8.076  18.420  0.00  0.00    +0.000 A 
ATOM      2  C   UNL     1       7.367   8.195  17.314  0.00  0.00    +0.000 A 
ATOM      3  C   UNL     1       6.633   7.099  16.861  0.00  0.00    +0.000 A 
ATOM      4  C   UNL     1       6.756   5.860  17.495  0.00  0.00    +0.000 A 
ATOM      5  C   UNL     1       7.652   5.705  18.554  0.00  0.00    +0.000 A 
ATOM      6  C   UNL     1       8.386   6.811  19.007  0.00  0.00    +0.000 A 
ENDROOT
BRANCH   1   8
ATOM      7  C   UNL     1       8.839  10.468  18.461  0.00  0.00    +0.000 C 
ATOM      8  C   UNL     1       8.939   9.233  18.982  0.00  0.00    +0.000 C 
BRANCH   7  11
ATOM      9  C   UNL     1      11.504  11.892  17.423  0.00  0.00    +0.000 C 
ATOM     10  N   UNL     1      10.647  12.325  18.523  0.00  0.00    +0.000 N 
ATOM     11  C   UNL     1       9.474  11.708  18.988  0.00  0.00    +0.000 A 
ATOM     12  C   UNL     1       9.033  12.497  20.036  0.00  0.00    +0.000 A 
ATOM     13  N   UNL     1       9.912  13.547  20.171  0.00  0.00    +0.000 N 
ATOM     14  C   UNL     1       9.864  14.588  21.077  0.00  0.00    +0.000 A 
ATOM     15  C   UNL     1      10.851  15.507  21.024  0.00  0.00    +0.000 A 
ATOM     16  C   UNL     1      11.940  15.439  20.063  0.00  0.00    +0.000 A 
ATOM     17  C   UNL     1      11.989  14.429  19.177  0.00  0.00    +0.000 A 
ATOM     18  C   UNL     1      10.887  13.425  19.246  0.00  0.00    +0.000 A 
ENDBRANCH   7  11
ENDBRANCH   1   8
BRANCH   4  19
ATOM     19  C   UNL     1       5.879   4.739  17.097  0.00  0.00    +0.000 C 
ATOM     20  N   UNL     1       4.596   4.912  17.031  0.00  0.00    +0.000 NA
BRANCH  20  21
ATOM     21  N   UNL     1       3.865   3.778  16.790  0.00  0.00    +0.000 N 
ATOM     22  C   UNL     1       2.806   3.415  17.572  0.00  0.00    +0.000 C 
ATOM     23  N   UNL     1       2.427   2.191  17.816  0.00  0.00    +0.000 NA
ATOM     24  C   UNL     1       1.282   2.364  18.767  0.00  0.00    +0.000 C 
ATOM     25  C   UNL     1       1.272   3.843  19.184  0.00  0.00    +0.000 C 
ATOM     26  N   UNL     1       2.101   4.417  18.161  0.00  0.00    +0.000 N 
ATOM     27  H   UNL     1       4.335   2.963  16.403  0.00  0.00    +0.000 HD
ATOM     28  H   UNL     1       2.607   5.280  18.305  0.00  0.00    +0.000 HD
ENDBRANCH  20  21
ENDBRANCH   4  19
TORSDOF 4
ENDMDL
