MODEL 1
REMARK VINA RESULT:      -7.6      0.000      0.000
REMARK  Name = 
REMARK  8 active torsions:
REMARK  status: ('A' for Active; 'I' for Inactive)
REMARK    1  A    between atoms: C_1  and  C_2
REMARK    2  A    between atoms: C_2  and  C_3
REMARK    3  A    between atoms: C_4  and  O_5
REMARK    4  A    between atoms: C_8  and  C_9
REMARK    5  A    between atoms: C_13  and  C_14
REMARK    6  A    between atoms: C_20  and  C_21
REMARK    7  A    between atoms: C_28  and  C_29
REMARK    8  A    between atoms: C_32  and  C_33
REMARK                            x       y       z     vdW  Elec       q    Type
REMARK                         _______ _______ _______ _____ _____    ______ ____
ROOT
ATOM      1  C   UNL     1       3.365  14.578  20.824  0.00  0.00    +0.000 C 
ATOM      2  C   UNL     1       2.609  15.178  19.610  0.00  0.00    +0.000 C 
ATOM      3  C   UNL     1       3.192  16.611  19.506  0.00  0.00    +0.000 C 
ATOM      4  C   UNL     1       2.830  14.479  18.217  0.00  0.00    +0.000 C 
ATOM      5  C   UNL     1       2.193  13.087  18.087  0.00  0.00    +0.000 C 
ATOM      6  C   UNL     1       0.696  13.044  18.490  0.00  0.00    +0.000 C 
ATOM      7  C   UNL     1       0.434  13.650  19.925  0.00  0.00    +0.000 C 
ATOM      8  C   UNL     1       1.087  12.589  20.863  0.00  0.00    +0.000 C 
ATOM      9  C   UNL     1       1.048  15.126  19.776  0.00  0.00    +0.000 C 
ATOM     10  C   UNL     1       0.417  16.302  20.528  0.00  0.00    +0.000 C 
ATOM     11  C   UNL     1      -1.113  16.171  20.618  0.00  0.00    +0.000 C 
ATOM     12  C   UNL     1      -1.563  14.835  21.322  0.00  0.00    +0.000 C 
ATOM     13  C   UNL     1      -0.777  14.889  22.671  0.00  0.00    +0.000 C 
ATOM     14  C   UNL     1      -1.131  13.728  20.260  0.00  0.00    +0.000 C 
ATOM     15  C   UNL     1      -1.785  12.365  20.541  0.00  0.00    +0.000 C 
ATOM     16  C   UNL     1      -3.322  12.428  20.349  0.00  0.00    +0.000 C 
ATOM     17  C   UNL     1      -3.884  13.239  21.501  0.00  0.00    +0.000 C 
ATOM     18  C   UNL     1      -5.435  13.232  21.900  0.00  0.00    +0.000 C 
ATOM     19  C   UNL     1      -6.738  12.310  21.867  0.00  0.00    +0.000 C 
ATOM     20  C   UNL     1      -7.638  13.235  22.758  0.00  0.00    +0.000 C 
ATOM     21  C   UNL     1      -6.824  13.345  24.009  0.00  0.00    +0.000 C 
ATOM     22  C   UNL     1      -5.389  13.502  23.484  0.00  0.00    +0.000 C 
ATOM     23  C   UNL     1      -4.548  12.475  24.310  0.00  0.00    +0.000 C 
ATOM     24  C   UNL     1      -4.916  14.944  23.669  0.00  0.00    +0.000 C 
ATOM     25  C   UNL     1      -3.497  15.158  23.155  0.00  0.00    +0.000 C 
ATOM     26  C   UNL     1      -3.212  14.742  21.659  0.00  0.00    +0.000 C 
ATOM     27  C   UNL     1      -3.930  15.805  20.788  0.00  0.00    +0.000 C 
ENDROOT
BRANCH  19  28
ATOM     28  C   UNL     1      -7.615  11.822  20.687  0.00  0.00    +0.000 C 
ATOM     29  C   UNL     1      -7.238  10.512  20.044  0.00  0.00    +0.000 C 
ATOM     30  N   UNL     1      -6.892  10.559  18.802  0.00  0.00    +0.000 NA
ATOM     31  N   UNL     1      -6.843  11.817  18.446  0.00  0.00    +0.000 N 
ATOM     32  C   UNL     1      -7.473  12.718  19.412  0.00  0.00    +0.000 C 
ATOM     33  H   UNL     1      -7.111  11.992  17.470  0.00  0.00    +0.000 HD
ENDBRANCH  19  28
BRANCH   4  34
ATOM     34  O   UNL     1       4.185  14.469  17.801  0.00  0.00    +0.000 OA
ATOM     35  H   UNL     1       4.510  15.384  17.783  0.00  0.00    +0.000 HD
ENDBRANCH   4  34
TORSDOF 2
ENDMDL
MODEL 2
REMARK VINA RESULT:      -7.2      6.368     11.698
REMARK  Name = 
REMARK  8 active torsions:
REMARK  status: ('A' for Active; 'I' for Inactive)
REMARK    1  A    between atoms: C_1  and  C_2
REMARK    2  A    between atoms: C_2  and  C_3
REMARK    3  A    between atoms: C_4  and  O_5
REMARK    4  A    between atoms: C_8  and  C_9
REMARK    5  A    between atoms: C_13  and  C_14
REMARK    6  A    between atoms: C_20  and  C_21
REMARK    7  A    between atoms: C_28  and  C_29
REMARK    8  A    between atoms: C_32  and  C_33
REMARK                            x       y       z     vdW  Elec       q    Type
REMARK                         _______ _______ _______ _____ _____    ______ ____
ROOT
ATOM      1  C   UNL     1      -0.013  16.949  20.345  0.00  0.00    +0.000 C 
ATOM      2  C   UNL     1       0.271  15.488  20.782  0.00  0.00    +0.000 C 
ATOM      3  C   UNL     1      -0.322  15.428  22.214  0.00  0.00    +0.000 C 
ATOM      4  C   UNL     1      -0.416  14.347  19.941  0.00  0.00    +0.000 C 
ATOM      5  C   UNL     1       0.146  14.167  18.522  0.00  0.00    +0.000 C 
ATOM      6  C   UNL     1       1.689  14.030  18.474  0.00  0.00    +0.000 C 
ATOM      7  C   UNL     1       2.430  15.205  19.225  0.00  0.00    +0.000 C 
ATOM      8  C   UNL     1       2.149  16.428  18.297  0.00  0.00    +0.000 C 
ATOM      9  C   UNL     1       1.793  15.109  20.696  0.00  0.00    +0.000 C 
ATOM     10  C   UNL     1       2.637  15.456  21.926  0.00  0.00    +0.000 C 
ATOM     11  C   UNL     1       4.104  15.026  21.754  0.00  0.00    +0.000 C 
ATOM     12  C   UNL     1       4.779  15.680  20.489  0.00  0.00    +0.000 C 
ATOM     13  C   UNL     1       4.510  17.202  20.718  0.00  0.00    +0.000 C 
ATOM     14  C   UNL     1       4.013  14.968  19.286  0.00  0.00    +0.000 C 
ATOM     15  C   UNL     1       4.733  15.161  17.941  0.00  0.00    +0.000 C 
ATOM     16  C   UNL     1       6.107  14.443  17.931  0.00  0.00    +0.000 C 
ATOM     17  C   UNL     1       7.029  15.228  18.845  0.00  0.00    +0.000 C 
ATOM     18  C   UNL     1       8.622  15.064  18.829  0.00  0.00    +0.000 C 
ATOM     19  C   UNL     1       9.838  14.690  17.865  0.00  0.00    +0.000 C 
ATOM     20  C   UNL     1      10.985  15.102  18.851  0.00  0.00    +0.000 C 
ATOM     21  C   UNL     1      10.656  16.535  19.127  0.00  0.00    +0.000 C 
ATOM     22  C   UNL     1       9.127  16.524  19.273  0.00  0.00    +0.000 C 
ATOM     23  C   UNL     1       8.632  17.702  18.373  0.00  0.00    +0.000 C 
ATOM     24  C   UNL     1       8.738  16.694  20.742  0.00  0.00    +0.000 C 
ATOM     25  C   UNL     1       7.228  16.682  20.946  0.00  0.00    +0.000 C 
ATOM     26  C   UNL     1       6.443  15.434  20.378  0.00  0.00    +0.000 C 
ATOM     27  C   UNL     1       6.807  14.252  21.313  0.00  0.00    +0.000 C 
ENDROOT
BRANCH  19  28
ATOM     28  C   UNL     1      10.254  13.343  17.220  0.00  0.00    +0.000 C 
ATOM     29  C   UNL     1      10.264  12.128  18.110  0.00  0.00    +0.000 C 
ATOM     30  N   UNL     1      11.405  11.551  18.283  0.00  0.00    +0.000 NA
ATOM     31  N   UNL     1      12.319  12.286  17.704  0.00  0.00    +0.000 N 
ATOM     32  C   UNL     1      11.764  13.305  16.812  0.00  0.00    +0.000 C 
ATOM     33  H   UNL     1      13.099  11.753  17.301  0.00  0.00    +0.000 HD
ENDBRANCH  19  28
BRANCH   4  34
ATOM     34  O   UNL     1      -1.831  14.430  19.932  0.00  0.00    +0.000 OA
ATOM     35  H   UNL     1      -2.188  13.593  19.592  0.00  0.00    +0.000 HD
ENDBRANCH   4  34
TORSDOF 2
ENDMDL
MODEL 3
REMARK VINA RESULT:      -7.1      6.535     12.134
REMARK  Name = 
REMARK  8 active torsions:
REMARK  status: ('A' for Active; 'I' for Inactive)
REMARK    1  A    between atoms: C_1  and  C_2
REMARK    2  A    between atoms: C_2  and  C_3
REMARK    3  A    between atoms: C_4  and  O_5
REMARK    4  A    between atoms: C_8  and  C_9
REMARK    5  A    between atoms: C_13  and  C_14
REMARK    6  A    between atoms: C_20  and  C_21
REMARK    7  A    between atoms: C_28  and  C_29
REMARK    8  A    between atoms: C_32  and  C_33
REMARK                            x       y       z     vdW  Elec       q    Type
REMARK                         _______ _______ _______ _____ _____    ______ ____
ROOT
ATOM      1  C   UNL     1       1.025  17.058  18.988  0.00  0.00    +0.000 C 
ATOM      2  C   UNL     1       1.238  15.824  19.904  0.00  0.00    +0.000 C 
ATOM      3  C   UNL     1       0.500  16.224  21.209  0.00  0.00    +0.000 C 
ATOM      4  C   UNL     1       0.623  14.460  19.416  0.00  0.00    +0.000 C 
ATOM      5  C   UNL     1       1.324  13.836  18.200  0.00  0.00    +0.000 C 
ATOM      6  C   UNL     1       2.862  13.719  18.358  0.00  0.00    +0.000 C 
ATOM      7  C   UNL     1       3.541  15.088  18.756  0.00  0.00    +0.000 C 
ATOM      8  C   UNL     1       3.378  15.936  17.457  0.00  0.00    +0.000 C 
ATOM      9  C   UNL     1       2.754  15.466  20.104  0.00  0.00    +0.000 C 
ATOM     10  C   UNL     1       3.473  16.210  21.233  0.00  0.00    +0.000 C 
ATOM     11  C   UNL     1       4.942  15.774  21.363  0.00  0.00    +0.000 C 
ATOM     12  C   UNL     1       5.755  15.991  20.030  0.00  0.00    +0.000 C 
ATOM     13  C   UNL     1       5.489  17.500  19.721  0.00  0.00    +0.000 C 
ATOM     14  C   UNL     1       5.105  14.912  19.054  0.00  0.00    +0.000 C 
ATOM     15  C   UNL     1       5.963  14.669  17.801  0.00  0.00    +0.000 C 
ATOM     16  C   UNL     1       7.319  14.012  18.167  0.00  0.00    +0.000 C 
ATOM     17  C   UNL     1       8.154  15.069  18.864  0.00  0.00    +0.000 C 
ATOM     18  C   UNL     1       9.738  14.937  19.067  0.00  0.00    +0.000 C 
ATOM     19  C   UNL     1      11.040  14.291  18.408  0.00  0.00    +0.000 C 
ATOM     20  C   UNL     1      12.086  15.023  19.318  0.00  0.00    +0.000 C 
ATOM     21  C   UNL     1      11.754  16.462  19.076  0.00  0.00    +0.000 C 
ATOM     22  C   UNL     1      10.218  16.471  19.060  0.00  0.00    +0.000 C 
ATOM     23  C   UNL     1       9.838  17.282  17.778  0.00  0.00    +0.000 C 
ATOM     24  C   UNL     1       9.683  17.104  20.345  0.00  0.00    +0.000 C 
ATOM     25  C   UNL     1       8.160  17.131  20.385  0.00  0.00    +0.000 C 
ATOM     26  C   UNL     1       7.417  15.753  20.177  0.00  0.00    +0.000 C 
ATOM     27  C   UNL     1       7.663  14.948  21.479  0.00  0.00    +0.000 C 
ENDROOT
BRANCH  19  28
ATOM     28  C   UNL     1      11.498  12.815  18.284  0.00  0.00    +0.000 C 
ATOM     29  C   UNL     1      10.471  11.812  17.826  0.00  0.00    +0.000 C 
ATOM     30  N   UNL     1      10.170  10.876  18.661  0.00  0.00    +0.000 NA
ATOM     31  N   UNL     1      10.781  11.131  19.790  0.00  0.00    +0.000 N 
ATOM     32  C   UNL     1      11.815  12.159  19.669  0.00  0.00    +0.000 C 
ATOM     33  H   UNL     1      11.075  10.296  20.310  0.00  0.00    +0.000 HD
ENDBRANCH  19  28
BRANCH   4  34
ATOM     34  O   UNL     1      -0.783  14.509  19.235  0.00  0.00    +0.000 OA
ATOM     35  H   UNL     1      -1.193  14.781  20.072  0.00  0.00    +0.000 HD
ENDBRANCH   4  34
TORSDOF 2
ENDMDL
MODEL 4
REMARK VINA RESULT:      -6.6     10.341     13.419
REMARK  Name = 
REMARK  8 active torsions:
REMARK  status: ('A' for Active; 'I' for Inactive)
REMARK    1  A    between atoms: C_1  and  C_2
REMARK    2  A    between atoms: C_2  and  C_3
REMARK    3  A    between atoms: C_4  and  O_5
REMARK    4  A    between atoms: C_8  and  C_9
REMARK    5  A    between atoms: C_13  and  C_14
REMARK    6  A    between atoms: C_20  and  C_21
REMARK    7  A    between atoms: C_28  and  C_29
REMARK    8  A    between atoms: C_32  and  C_33
REMARK                            x       y       z     vdW  Elec       q    Type
REMARK                         _______ _______ _______ _____ _____    ______ ____
ROOT
ATOM      1  C   UNL     1       5.433  14.202  27.146  0.00  0.00    +0.000 C 
ATOM      2  C   UNL     1       6.889  13.685  27.288  0.00  0.00    +0.000 C 
ATOM      3  C   UNL     1       7.387  14.387  28.579  0.00  0.00    +0.000 C 
ATOM      4  C   UNL     1       7.078  12.136  27.493  0.00  0.00    +0.000 C 
ATOM      5  C   UNL     1       6.760  11.280  26.257  0.00  0.00    +0.000 C 
ATOM      6  C   UNL     1       7.478  11.753  24.967  0.00  0.00    +0.000 C 
ATOM      7  C   UNL     1       7.241  13.285  24.665  0.00  0.00    +0.000 C 
ATOM      8  C   UNL     1       5.732  13.322  24.269  0.00  0.00    +0.000 C 
ATOM      9  C   UNL     1       7.766  13.973  26.017  0.00  0.00    +0.000 C 
ATOM     10  C   UNL     1       8.444  15.346  25.971  0.00  0.00    +0.000 C 
ATOM     11  C   UNL     1       9.296  15.522  24.703  0.00  0.00    +0.000 C 
ATOM     12  C   UNL     1       8.456  15.339  23.382  0.00  0.00    +0.000 C 
ATOM     13  C   UNL     1       7.283  16.350  23.592  0.00  0.00    +0.000 C 
ATOM     14  C   UNL     1       8.106  13.785  23.413  0.00  0.00    +0.000 C 
ATOM     15  C   UNL     1       7.601  13.275  22.053  0.00  0.00    +0.000 C 
ATOM     16  C   UNL     1       8.715  13.344  20.977  0.00  0.00    +0.000 C 
ATOM     17  C   UNL     1       8.933  14.809  20.651  0.00  0.00    +0.000 C 
ATOM     18  C   UNL     1       9.708  15.307  19.341  0.00  0.00    +0.000 C 
ATOM     19  C   UNL     1      10.030  14.887  17.835  0.00  0.00    +0.000 C 
ATOM     20  C   UNL     1      10.663  16.253  17.397  0.00  0.00    +0.000 C 
ATOM     21  C   UNL     1       9.556  17.216  17.691  0.00  0.00    +0.000 C 
ATOM     22  C   UNL     1       9.006  16.720  19.037  0.00  0.00    +0.000 C 
ATOM     23  C   UNL     1       7.456  16.665  18.837  0.00  0.00    +0.000 C 
ATOM     24  C   UNL     1       9.428  17.670  20.158  0.00  0.00    +0.000 C 
ATOM     25  C   UNL     1       8.914  17.219  21.521  0.00  0.00    +0.000 C 
ATOM     26  C   UNL     1       9.277  15.749  21.968  0.00  0.00    +0.000 C 
ATOM     27  C   UNL     1      10.792  15.776  22.295  0.00  0.00    +0.000 C 
ENDROOT
BRANCH  19  28
ATOM     28  C   UNL     1      10.926  13.763  17.256  0.00  0.00    +0.000 C 
ATOM     29  C   UNL     1      10.511  12.341  17.531  0.00  0.00    +0.000 C 
ATOM     30  N   UNL     1      11.332  11.625  18.223  0.00  0.00    +0.000 NA
ATOM     31  N   UNL     1      12.303  12.404  18.625  0.00  0.00    +0.000 N 
ATOM     32  C   UNL     1      12.333  13.696  17.938  0.00  0.00    +0.000 C 
ATOM     33  H   UNL     1      13.218  11.941  18.691  0.00  0.00    +0.000 HD
ENDBRANCH  19  28
BRANCH   4  34
ATOM     34  O   UNL     1       6.427  11.638  28.650  0.00  0.00    +0.000 OA
ATOM     35  H   UNL     1       6.318  12.367  29.282  0.00  0.00    +0.000 HD
ENDBRANCH   4  34
TORSDOF 2
ENDMDL
MODEL 5
REMARK VINA RESULT:      -6.5      6.518     12.074
REMARK  Name = 
REMARK  8 active torsions:
REMARK  status: ('A' for Active; 'I' for Inactive)
REMARK    1  A    between atoms: C_1  and  C_2
REMARK    2  A    between atoms: C_2  and  C_3
REMARK    3  A    between atoms: C_4  and  O_5
REMARK    4  A    between atoms: C_8  and  C_9
REMARK    5  A    between atoms: C_13  and  C_14
REMARK    6  A    between atoms: C_20  and  C_21
REMARK    7  A    between atoms: C_28  and  C_29
REMARK    8  A    between atoms: C_32  and  C_33
REMARK                            x       y       z     vdW  Elec       q    Type
REMARK                         _______ _______ _______ _____ _____    ______ ____
ROOT
ATOM      1  C   UNL     1       0.703  16.510  18.823  0.00  0.00    +0.000 C 
ATOM      2  C   UNL     1       1.003  15.265  19.698  0.00  0.00    +0.000 C 
ATOM      3  C   UNL     1       0.104  15.484  20.943  0.00  0.00    +0.000 C 
ATOM      4  C   UNL     1       0.630  13.861  19.091  0.00  0.00    +0.000 C 
ATOM      5  C   UNL     1       1.517  13.410  17.920  0.00  0.00    +0.000 C 
ATOM      6  C   UNL     1       3.036  13.491  18.220  0.00  0.00    +0.000 C 
ATOM      7  C   UNL     1       3.479  14.913  18.744  0.00  0.00    +0.000 C 
ATOM      8  C   UNL     1       3.316  15.806  17.475  0.00  0.00    +0.000 C 
ATOM      9  C   UNL     1       2.531  15.102  20.026  0.00  0.00    +0.000 C 
ATOM     10  C   UNL     1       3.035  15.869  21.252  0.00  0.00    +0.000 C 
ATOM     11  C   UNL     1       4.534  15.628  21.502  0.00  0.00    +0.000 C 
ATOM     12  C   UNL     1       5.424  16.030  20.265  0.00  0.00    +0.000 C 
ATOM     13  C   UNL     1       4.979  17.504  20.001  0.00  0.00    +0.000 C 
ATOM     14  C   UNL     1       5.020  14.932  19.182  0.00  0.00    +0.000 C 
ATOM     15  C   UNL     1       6.011  14.880  18.008  0.00  0.00    +0.000 C 
ATOM     16  C   UNL     1       7.408  14.392  18.472  0.00  0.00    +0.000 C 
ATOM     17  C   UNL     1       8.023  15.508  19.294  0.00  0.00    +0.000 C 
ATOM     18  C   UNL     1       9.584  15.579  19.642  0.00  0.00    +0.000 C 
ATOM     19  C   UNL     1      11.017  15.153  19.083  0.00  0.00    +0.000 C 
ATOM     20  C   UNL     1      11.866  15.965  20.122  0.00  0.00    +0.000 C 
ATOM     21  C   UNL     1      11.360  17.358  19.915  0.00  0.00    +0.000 C 
ATOM     22  C   UNL     1       9.845  17.161  19.752  0.00  0.00    +0.000 C 
ATOM     23  C   UNL     1       9.472  17.988  18.478  0.00  0.00    +0.000 C 
ATOM     24  C   UNL     1       9.115  17.640  21.007  0.00  0.00    +0.000 C 
ATOM     25  C   UNL     1       7.605  17.460  20.901  0.00  0.00    +0.000 C 
ATOM     26  C   UNL     1       7.084  16.009  20.561  0.00  0.00    +0.000 C 
ATOM     27  C   UNL     1       7.323  15.169  21.842  0.00  0.00    +0.000 C 
ENDROOT
BRANCH  19  28
ATOM     28  C   UNL     1      11.686  13.763  18.936  0.00  0.00    +0.000 C 
ATOM     29  C   UNL     1      12.092  13.337  17.549  0.00  0.00    +0.000 C 
ATOM     30  N   UNL     1      11.509  12.287  17.076  0.00  0.00    +0.000 NA
ATOM     31  N   UNL     1      10.584  11.924  17.926  0.00  0.00    +0.000 N 
ATOM     32  C   UNL     1      10.702  12.581  19.228  0.00  0.00    +0.000 C 
ATOM     33  H   UNL     1      10.433  10.909  17.979  0.00  0.00    +0.000 HD
ENDBRANCH  19  28
BRANCH   4  34
ATOM     34  O   UNL     1      -0.747  13.731  18.778  0.00  0.00    +0.000 OA
ATOM     35  H   UNL     1      -1.051  14.559  18.373  0.00  0.00    +0.000 HD
ENDBRANCH   4  34
TORSDOF 2
ENDMDL
MODEL 6
REMARK VINA RESULT:      -6.4      1.238      1.451
REMARK  Name = 
REMARK  8 active torsions:
REMARK  status: ('A' for Active; 'I' for Inactive)
REMARK    1  A    between atoms: C_1  and  C_2
REMARK    2  A    between atoms: C_2  and  C_3
REMARK    3  A    between atoms: C_4  and  O_5
REMARK    4  A    between atoms: C_8  and  C_9
REMARK    5  A    between atoms: C_13  and  C_14
REMARK    6  A    between atoms: C_20  and  C_21
REMARK    7  A    between atoms: C_28  and  C_29
REMARK    8  A    between atoms: C_32  and  C_33
REMARK                            x       y       z     vdW  Elec       q    Type
REMARK                         _______ _______ _______ _____ _____    ______ ____
ROOT
ATOM      1  C   UNL     1       4.359  15.381  21.304  0.00  0.00    +0.000 C 
ATOM      2  C   UNL     1       3.682  16.115  20.117  0.00  0.00    +0.000 C 
ATOM      3  C   UNL     1       4.161  17.580  20.290  0.00  0.00    +0.000 C 
ATOM      4  C   UNL     1       4.091  15.655  18.668  0.00  0.00    +0.000 C 
ATOM      5  C   UNL     1       3.578  14.264  18.265  0.00  0.00    +0.000 C 
ATOM      6  C   UNL     1       2.057  14.068  18.493  0.00  0.00    +0.000 C 
ATOM      7  C   UNL     1       1.610  14.427  19.965  0.00  0.00    +0.000 C 
ATOM      8  C   UNL     1       2.248  13.276  20.802  0.00  0.00    +0.000 C 
ATOM      9  C   UNL     1       2.120  15.944  20.104  0.00  0.00    +0.000 C 
ATOM     10  C   UNL     1       1.332  16.948  20.949  0.00  0.00    +0.000 C 
ATOM     11  C   UNL     1      -0.186  16.712  20.852  0.00  0.00    +0.000 C 
ATOM     12  C   UNL     1      -0.599  15.258  21.298  0.00  0.00    +0.000 C 
ATOM     13  C   UNL     1       0.045  15.150  22.717  0.00  0.00    +0.000 C 
ATOM     14  C   UNL     1       0.019  14.357  20.137  0.00  0.00    +0.000 C 
ATOM     15  C   UNL     1      -0.554  12.930  20.141  0.00  0.00    +0.000 C 
ATOM     16  C   UNL     1      -2.065  12.929  19.795  0.00  0.00    +0.000 C 
ATOM     17  C   UNL     1      -2.798  13.516  20.986  0.00  0.00    +0.000 C 
ATOM     18  C   UNL     1      -4.375  13.353  21.209  0.00  0.00    +0.000 C 
ATOM     19  C   UNL     1      -5.593  12.369  20.900  0.00  0.00    +0.000 C 
ATOM     20  C   UNL     1      -6.644  13.088  21.815  0.00  0.00    +0.000 C 
ATOM     21  C   UNL     1      -5.968  13.053  23.150  0.00  0.00    +0.000 C 
ATOM     22  C   UNL     1      -4.505  13.376  22.811  0.00  0.00    +0.000 C 
ATOM     23  C   UNL     1      -3.672  12.286  23.563  0.00  0.00    +0.000 C 
ATOM     24  C   UNL     1      -4.164  14.798  23.258  0.00  0.00    +0.000 C 
ATOM     25  C   UNL     1      -2.722  15.174  22.938  0.00  0.00    +0.000 C 
ATOM     26  C   UNL     1      -2.261  15.014  21.436  0.00  0.00    +0.000 C 
ATOM     27  C   UNL     1      -2.970  16.154  20.660  0.00  0.00    +0.000 C 
ENDROOT
BRANCH  19  28
ATOM     28  C   UNL     1      -6.311  12.017  19.572  0.00  0.00    +0.000 C 
ATOM     29  C   UNL     1      -5.638  11.016  18.670  0.00  0.00    +0.000 C 
ATOM     30  N   UNL     1      -5.280  11.441  17.505  0.00  0.00    +0.000 NA
ATOM     31  N   UNL     1      -5.501  12.729  17.462  0.00  0.00    +0.000 N 
ATOM     32  C   UNL     1      -6.339  13.211  18.561  0.00  0.00    +0.000 C 
ATOM     33  H   UNL     1      -5.777  13.081  16.537  0.00  0.00    +0.000 HD
ENDBRANCH  19  28
BRANCH   4  34
ATOM     34  O   UNL     1       5.477  15.793  18.404  0.00  0.00    +0.000 OA
ATOM     35  H   UNL     1       5.589  16.106  17.492  0.00  0.00    +0.000 HD
ENDBRANCH   4  34
TORSDOF 2
ENDMDL
MODEL 7
REMARK VINA RESULT:      -6.3      4.082      7.529
REMARK  Name = 
REMARK  8 active torsions:
REMARK  status: ('A' for Active; 'I' for Inactive)
REMARK    1  A    between atoms: C_1  and  C_2
REMARK    2  A    between atoms: C_2  and  C_3
REMARK    3  A    between atoms: C_4  and  O_5
REMARK    4  A    between atoms: C_8  and  C_9
REMARK    5  A    between atoms: C_13  and  C_14
REMARK    6  A    between atoms: C_20  and  C_21
REMARK    7  A    between atoms: C_28  and  C_29
REMARK    8  A    between atoms: C_32  and  C_33
REMARK                            x       y       z     vdW  Elec       q    Type
REMARK                         _______ _______ _______ _____ _____    ______ ____
ROOT
ATOM      1  C   UNL     1      10.115  16.438  19.273  0.00  0.00    +0.000 C 
ATOM      2  C   UNL     1       9.769  14.960  18.952  0.00  0.00    +0.000 C 
ATOM      3  C   UNL     1      10.408  14.745  17.554  0.00  0.00    +0.000 C 
ATOM      4  C   UNL     1      10.364  13.864  19.913  0.00  0.00    +0.000 C 
ATOM      5  C   UNL     1       9.745  13.837  21.319  0.00  0.00    +0.000 C 
ATOM      6  C   UNL     1       8.196  13.782  21.318  0.00  0.00    +0.000 C 
ATOM      7  C   UNL     1       7.545  14.923  20.441  0.00  0.00    +0.000 C 
ATOM      8  C   UNL     1       7.858  16.206  21.271  0.00  0.00    +0.000 C 
ATOM      9  C   UNL     1       8.228  14.667  19.009  0.00  0.00    +0.000 C 
ATOM     10  C   UNL     1       7.446  14.946  17.722  0.00  0.00    +0.000 C 
ATOM     11  C   UNL     1       5.953  14.607  17.872  0.00  0.00    +0.000 C 
ATOM     12  C   UNL     1       5.270  15.402  19.049  0.00  0.00    +0.000 C 
ATOM     13  C   UNL     1       5.628  16.882  18.702  0.00  0.00    +0.000 C 
ATOM     14  C   UNL     1       5.955  14.760  20.337  0.00  0.00    +0.000 C 
ATOM     15  C   UNL     1       5.200  15.106  21.631  0.00  0.00    +0.000 C 
ATOM     16  C   UNL     1       3.789  14.461  21.649  0.00  0.00    +0.000 C 
ATOM     17  C   UNL     1       2.943  15.208  20.636  0.00  0.00    +0.000 C 
ATOM     18  C   UNL     1       1.344  15.126  20.602  0.00  0.00    +0.000 C 
ATOM     19  C   UNL     1       0.077  14.899  21.546  0.00  0.00    +0.000 C 
ATOM     20  C   UNL     1      -1.011  15.280  20.484  0.00  0.00    +0.000 C 
ATOM     21  C   UNL     1      -0.597  16.665  20.100  0.00  0.00    +0.000 C 
ATOM     22  C   UNL     1       0.934  16.565  20.015  0.00  0.00    +0.000 C 
ATOM     23  C   UNL     1       1.459  17.791  20.831  0.00  0.00    +0.000 C 
ATOM     24  C   UNL     1       1.382  16.586  18.554  0.00  0.00    +0.000 C 
ATOM     25  C   UNL     1       2.896  16.481  18.412  0.00  0.00    +0.000 C 
ATOM     26  C   UNL     1       3.592  15.250  19.115  0.00  0.00    +0.000 C 
ATOM     27  C   UNL     1       3.199  14.011  18.270  0.00  0.00    +0.000 C 
ENDROOT
BRANCH  19  28
ATOM     28  C   UNL     1      -0.432  13.636  22.287  0.00  0.00    +0.000 C 
ATOM     29  C   UNL     1      -1.459  12.790  21.579  0.00  0.00    +0.000 C 
ATOM     30  N   UNL     1      -2.611  12.687  22.151  0.00  0.00    +0.000 NA
ATOM     31  N   UNL     1      -2.619  13.486  23.187  0.00  0.00    +0.000 N 
ATOM     32  C   UNL     1      -1.290  13.977  23.551  0.00  0.00    +0.000 C 
ATOM     33  H   UNL     1      -3.174  13.144  23.981  0.00  0.00    +0.000 HD
ENDBRANCH  19  28
BRANCH   4  34
ATOM     34  O   UNL     1      11.781  13.876  19.971  0.00  0.00    +0.000 OA
ATOM     35  H   UNL     1      12.129  13.599  19.108  0.00  0.00    +0.000 HD
ENDBRANCH   4  34
TORSDOF 2
ENDMDL
MODEL 8
REMARK VINA RESULT:      -6.2     10.811     14.010
REMARK  Name = 
REMARK  8 active torsions:
REMARK  status: ('A' for Active; 'I' for Inactive)
REMARK    1  A    between atoms: C_1  and  C_2
REMARK    2  A    between atoms: C_2  and  C_3
REMARK    3  A    between atoms: C_4  and  O_5
REMARK    4  A    between atoms: C_8  and  C_9
REMARK    5  A    between atoms: C_13  and  C_14
REMARK    6  A    between atoms: C_20  and  C_21
REMARK    7  A    between atoms: C_28  and  C_29
REMARK    8  A    between atoms: C_32  and  C_33
REMARK                            x       y       z     vdW  Elec       q    Type
REMARK                         _______ _______ _______ _____ _____    ______ ____
ROOT
ATOM      1  C   UNL     1       7.635  15.524  27.692  0.00  0.00    +0.000 C 
ATOM      2  C   UNL     1       6.934  16.549  26.763  0.00  0.00    +0.000 C 
ATOM      3  C   UNL     1       5.435  16.389  27.131  0.00  0.00    +0.000 C 
ATOM      4  C   UNL     1       7.308  18.065  26.963  0.00  0.00    +0.000 C 
ATOM      5  C   UNL     1       8.729  18.441  26.517  0.00  0.00    +0.000 C 
ATOM      6  C   UNL     1       9.076  17.977  25.079  0.00  0.00    +0.000 C 
ATOM      7  C   UNL     1       8.807  16.437  24.854  0.00  0.00    +0.000 C 
ATOM      8  C   UNL     1       9.917  15.770  25.724  0.00  0.00    +0.000 C 
ATOM      9  C   UNL     1       7.254  16.314  25.243  0.00  0.00    +0.000 C 
ATOM     10  C   UNL     1       6.355  15.306  24.520  0.00  0.00    +0.000 C 
ATOM     11  C   UNL     1       6.733  15.164  23.035  0.00  0.00    +0.000 C 
ATOM     12  C   UNL     1       8.233  14.724  22.834  0.00  0.00    +0.000 C 
ATOM     13  C   UNL     1       8.322  13.436  23.714  0.00  0.00    +0.000 C 
ATOM     14  C   UNL     1       9.035  16.010  23.327  0.00  0.00    +0.000 C 
ATOM     15  C   UNL     1      10.510  15.978  22.894  0.00  0.00    +0.000 C 
ATOM     16  C   UNL     1      10.646  16.071  21.352  0.00  0.00    +0.000 C 
ATOM     17  C   UNL     1      10.168  14.751  20.780  0.00  0.00    +0.000 C 
ATOM     18  C   UNL     1      10.489  14.280  19.283  0.00  0.00    +0.000 C 
ATOM     19  C   UNL     1      11.575  14.431  18.123  0.00  0.00    +0.000 C 
ATOM     20  C   UNL     1      10.989  13.324  17.180  0.00  0.00    +0.000 C 
ATOM     21  C   UNL     1      10.999  12.122  18.070  0.00  0.00    +0.000 C 
ATOM     22  C   UNL     1      10.527  12.679  19.422  0.00  0.00    +0.000 C 
ATOM     23  C   UNL     1      11.554  12.125  20.462  0.00  0.00    +0.000 C 
ATOM     24  C   UNL     1       9.093  12.230  19.704  0.00  0.00    +0.000 C 
ATOM     25  C   UNL     1       8.570  12.763  21.032  0.00  0.00    +0.000 C 
ATOM     26  C   UNL     1       8.640  14.326  21.248  0.00  0.00    +0.000 C 
ATOM     27  C   UNL     1       7.550  14.923  20.320  0.00  0.00    +0.000 C 
ENDROOT
BRANCH  19  28
ATOM     28  C   UNL     1      11.953  15.638  17.228  0.00  0.00    +0.000 C 
ATOM     29  C   UNL     1      12.332  16.920  17.924  0.00  0.00    +0.000 C 
ATOM     30  N   UNL     1      11.573  17.940  17.704  0.00  0.00    +0.000 NA
ATOM     31  N   UNL     1      10.552  17.535  16.993  0.00  0.00    +0.000 N 
ATOM     32  C   UNL     1      10.737  16.201  16.420  0.00  0.00    +0.000 C 
ATOM     33  H   UNL     1      10.196  18.233  16.329  0.00  0.00    +0.000 HD
ENDBRANCH  19  28
BRANCH   4  34
ATOM     34  O   UNL     1       7.030  18.545  28.268  0.00  0.00    +0.000 OA
ATOM     35  H   UNL     1       7.705  18.202  28.875  0.00  0.00    +0.000 HD
ENDBRANCH   4  34
TORSDOF 2
ENDMDL
MODEL 9
REMARK VINA RESULT:      -6.2      1.333      1.671
REMARK  Name = 
REMARK  8 active torsions:
REMARK  status: ('A' for Active; 'I' for Inactive)
REMARK    1  A    between atoms: C_1  and  C_2
REMARK    2  A    between atoms: C_2  and  C_3
REMARK    3  A    between atoms: C_4  and  O_5
REMARK    4  A    between atoms: C_8  and  C_9
REMARK    5  A    between atoms: C_13  and  C_14
REMARK    6  A    between atoms: C_20  and  C_21
REMARK    7  A    between atoms: C_28  and  C_29
REMARK    8  A    between atoms: C_32  and  C_33
REMARK                            x       y       z     vdW  Elec       q    Type
REMARK                         _______ _______ _______ _____ _____    ______ ____
ROOT
ATOM      1  C   UNL     1       3.865  15.326  20.311  0.00  0.00    +0.000 C 
ATOM      2  C   UNL     1       3.084  15.492  18.981  0.00  0.00    +0.000 C 
ATOM      3  C   UNL     1       3.731  16.752  18.348  0.00  0.00    +0.000 C 
ATOM      4  C   UNL     1       3.207  14.324  17.933  0.00  0.00    +0.000 C 
ATOM      5  C   UNL     1       2.498  13.021  18.334  0.00  0.00    +0.000 C 
ATOM      6  C   UNL     1       1.021  13.220  18.762  0.00  0.00    +0.000 C 
ATOM      7  C   UNL     1       0.854  14.319  19.884  0.00  0.00    +0.000 C 
ATOM      8  C   UNL     1       1.498  13.631  21.128  0.00  0.00    +0.000 C 
ATOM      9  C   UNL     1       1.532  15.600  19.194  0.00  0.00    +0.000 C 
ATOM     10  C   UNL     1       0.994  17.005  19.482  0.00  0.00    +0.000 C 
ATOM     11  C   UNL     1      -0.535  17.011  19.652  0.00  0.00    +0.000 C 
ATOM     12  C   UNL     1      -1.016  16.050  20.804  0.00  0.00    +0.000 C 
ATOM     13  C   UNL     1      -0.168  16.539  22.021  0.00  0.00    +0.000 C 
ATOM     14  C   UNL     1      -0.688  14.609  20.207  0.00  0.00    +0.000 C 
ATOM     15  C   UNL     1      -1.393  13.483  20.982  0.00  0.00    +0.000 C 
ATOM     16  C   UNL     1      -2.933  13.568  20.818  0.00  0.00    +0.000 C 
ATOM     17  C   UNL     1      -3.402  14.774  21.610  0.00  0.00    +0.000 C 
ATOM     18  C   UNL     1      -4.932  15.007  22.022  0.00  0.00    +0.000 C 
ATOM     19  C   UNL     1      -6.277  14.218  22.360  0.00  0.00    +0.000 C 
ATOM     20  C   UNL     1      -7.090  15.456  22.876  0.00  0.00    +0.000 C 
ATOM     21  C   UNL     1      -6.215  15.961  23.980  0.00  0.00    +0.000 C 
ATOM     22  C   UNL     1      -4.800  15.828  23.398  0.00  0.00    +0.000 C 
ATOM     23  C   UNL     1      -3.973  15.120  24.520  0.00  0.00    +0.000 C 
ATOM     24  C   UNL     1      -4.249  17.208  23.034  0.00  0.00    +0.000 C 
ATOM     25  C   UNL     1      -2.847  17.133  22.443  0.00  0.00    +0.000 C 
ATOM     26  C   UNL     1      -2.651  16.187  21.193  0.00  0.00    +0.000 C 
ATOM     27  C   UNL     1      -3.356  16.906  20.014  0.00  0.00    +0.000 C 
ENDROOT
BRANCH  19  28
ATOM     28  C   UNL     1      -7.230  13.391  21.461  0.00  0.00    +0.000 C 
ATOM     29  C   UNL     1      -7.604  12.012  21.938  0.00  0.00    +0.000 C 
ATOM     30  N   UNL     1      -7.238  11.025  21.190  0.00  0.00    +0.000 NA
ATOM     31  N   UNL     1      -6.496  11.506  20.226  0.00  0.00    +0.000 N 
ATOM     32  C   UNL     1      -6.571  12.962  20.108  0.00  0.00    +0.000 C 
ATOM     33  H   UNL     1      -6.586  11.006  19.333  0.00  0.00    +0.000 HD
ENDBRANCH  19  28
BRANCH   4  34
ATOM     34  O   UNL     1       4.540  14.081  17.515  0.00  0.00    +0.000 OA
ATOM     35  H   UNL     1       4.899  14.899  17.135  0.00  0.00    +0.000 HD
ENDBRANCH   4  34
TORSDOF 2
ENDMDL
