MODEL 1
REMARK VINA RESULT:      -7.1      0.000      0.000
REMARK  Name = 
REMARK  4 active torsions:
REMARK  status: ('A' for Active; 'I' for Inactive)
REMARK    1  A    between atoms: N_1  and  C_2
REMARK    2  A    between atoms: N_10  and  C_11
REMARK    3  A    between atoms: C_15  and  C_16
REMARK    4  A    between atoms: C_16  and  O_17
REMARK                            x       y       z     vdW  Elec       q    Type
REMARK                         _______ _______ _______ _____ _____    ______ ____
ROOT
ATOM      1  C   UNL     1       7.045   5.362  16.597  0.00  0.00    +0.000 A 
ATOM      2  N   UNL     1       7.665   5.850  17.693  0.00  0.00    +0.000 NA
ATOM      3  C   UNL     1       7.031   5.754  18.883  0.00  0.00    +0.000 A 
ATOM      4  N   UNL     1       5.823   5.212  19.155  0.00  0.00    +0.000 NA
ATOM      5  C   UNL     1       5.262   4.722  18.036  0.00  0.00    +0.000 A 
ATOM      6  C   UNL     1       5.794   4.742  16.757  0.00  0.00    +0.000 A 
ATOM      7  N   UNL     1       4.946   4.127  15.859  0.00  0.00    +0.000 NA
ATOM      8  C   UNL     1       3.905   3.767  16.577  0.00  0.00    +0.000 A 
ATOM      9  N   UNL     1       4.034   4.123  17.897  0.00  0.00    +0.000 N 
ENDROOT
BRANCH   9  10
ATOM     10  C   UNL     1       3.047   3.956  18.944  0.00  0.00    +0.000 C 
ATOM     11  C   UNL     1       1.656   3.713  18.429  0.00  0.00    +0.000 C 
ATOM     12  C   UNL     1       1.056   2.742  19.118  0.00  0.00    +0.000 C 
ATOM     13  F   UNL     1      -0.193   2.326  18.856  0.00  0.00    +0.000 F 
ATOM     14  C   UNL     1       1.903   2.178  20.207  0.00  0.00    +0.000 C 
ATOM     15  C   UNL     1       3.297   2.721  19.829  0.00  0.00    +0.000 C 
BRANCH  14  16
ATOM     16  C   UNL     1       1.433   2.653  21.581  0.00  0.00    +0.000 C 
BRANCH  16  17
ATOM     17  O   UNL     1       2.516   3.232  22.298  0.00  0.00    +0.000 OA
ATOM     18  H   UNL     1       2.154   3.939  22.862  0.00  0.00    +0.000 HD
ENDBRANCH  16  17
ENDBRANCH  14  16
ENDBRANCH   9  10
BRANCH   1  19
ATOM     19  N   UNL     1       7.667   5.500  15.364  0.00  0.00    +0.000 N 
ATOM     20  H   UNL     1       7.264   6.226  14.789  0.00  0.00    +0.000 HD
ATOM     21  H   UNL     1       8.676   5.408  15.393  0.00  0.00    +0.000 HD
ENDBRANCH   1  19
TORSDOF 4
ENDMDL
MODEL 2
REMARK VINA RESULT:      -7.1      2.012      2.301
REMARK  Name = 
REMARK  4 active torsions:
REMARK  status: ('A' for Active; 'I' for Inactive)
REMARK    1  A    between atoms: N_1  and  C_2
REMARK    2  A    between atoms: N_10  and  C_11
REMARK    3  A    between atoms: C_15  and  C_16
REMARK    4  A    between atoms: C_16  and  O_17
REMARK                            x       y       z     vdW  Elec       q    Type
REMARK                         _______ _______ _______ _____ _____    ______ ____
ROOT
ATOM      1  C   UNL     1       7.463   7.136  17.884  0.00  0.00    +0.000 A 
ATOM      2  N   UNL     1       8.178   6.639  18.916  0.00  0.00    +0.000 NA
ATOM      3  C   UNL     1       7.640   5.633  19.641  0.00  0.00    +0.000 A 
ATOM      4  N   UNL     1       6.448   5.017  19.477  0.00  0.00    +0.000 NA
ATOM      5  C   UNL     1       5.789   5.534  18.424  0.00  0.00    +0.000 A 
ATOM      6  C   UNL     1       6.218   6.555  17.591  0.00  0.00    +0.000 A 
ATOM      7  N   UNL     1       5.289   6.808  16.603  0.00  0.00    +0.000 NA
ATOM      8  C   UNL     1       4.303   5.976  16.851  0.00  0.00    +0.000 A 
ATOM      9  N   UNL     1       4.544   5.197  17.956  0.00  0.00    +0.000 N 
ENDROOT
BRANCH   9  10
ATOM     10  C   UNL     1       3.640   4.238  18.559  0.00  0.00    +0.000 C 
ATOM     11  C   UNL     1       2.925   4.762  19.772  0.00  0.00    +0.000 C 
ATOM     12  C   UNL     1       1.636   4.423  19.747  0.00  0.00    +0.000 C 
ATOM     13  F   UNL     1       0.771   4.771  20.713  0.00  0.00    +0.000 F 
ATOM     14  C   UNL     1       1.259   3.613  18.555  0.00  0.00    +0.000 C 
ATOM     15  C   UNL     1       2.478   3.828  17.634  0.00  0.00    +0.000 C 
BRANCH  14  16
ATOM     16  C   UNL     1       1.043   2.146  18.922  0.00  0.00    +0.000 C 
BRANCH  16  17
ATOM     17  O   UNL     1       2.172   1.371  18.537  0.00  0.00    +0.000 OA
ATOM     18  H   UNL     1       2.075   0.488  18.935  0.00  0.00    +0.000 HD
ENDBRANCH  16  17
ENDBRANCH  14  16
ENDBRANCH   9  10
BRANCH   1  19
ATOM     19  N   UNL     1       7.987   8.201  17.165  0.00  0.00    +0.000 N 
ATOM     20  H   UNL     1       7.287   8.858  16.851  0.00  0.00    +0.000 HD
ATOM     21  H   UNL     1       8.862   8.561  17.529  0.00  0.00    +0.000 HD
ENDBRANCH   1  19
TORSDOF 4
ENDMDL
MODEL 3
REMARK VINA RESULT:      -7.0      3.527      6.036
REMARK  Name = 
REMARK  4 active torsions:
REMARK  status: ('A' for Active; 'I' for Inactive)
REMARK    1  A    between atoms: N_1  and  C_2
REMARK    2  A    between atoms: N_10  and  C_11
REMARK    3  A    between atoms: C_15  and  C_16
REMARK    4  A    between atoms: C_16  and  O_17
REMARK                            x       y       z     vdW  Elec       q    Type
REMARK                         _______ _______ _______ _____ _____    ______ ____
ROOT
ATOM      1  C   UNL     1       1.280   3.017  19.077  0.00  0.00    +0.000 A 
ATOM      2  N   UNL     1       0.890   3.644  20.208  0.00  0.00    +0.000 NA
ATOM      3  C   UNL     1       1.615   4.702  20.635  0.00  0.00    +0.000 A 
ATOM      4  N   UNL     1       2.712   5.256  20.073  0.00  0.00    +0.000 NA
ATOM      5  C   UNL     1       3.042   4.610  18.941  0.00  0.00    +0.000 A 
ATOM      6  C   UNL     1       2.391   3.522  18.382  0.00  0.00    +0.000 A 
ATOM      7  N   UNL     1       2.999   3.135  17.205  0.00  0.00    +0.000 NA
ATOM      8  C   UNL     1       4.017   3.955  17.070  0.00  0.00    +0.000 A 
ATOM      9  N   UNL     1       4.103   4.854  18.105  0.00  0.00    +0.000 N 
ENDROOT
BRANCH   9  10
ATOM     10  C   UNL     1       5.143   5.840  18.317  0.00  0.00    +0.000 C 
ATOM     11  C   UNL     1       6.217   5.390  19.267  0.00  0.00    +0.000 C 
ATOM     12  C   UNL     1       7.426   5.711  18.805  0.00  0.00    +0.000 C 
ATOM     13  F   UNL     1       8.560   5.418  19.461  0.00  0.00    +0.000 F 
ATOM     14  C   UNL     1       7.389   6.434  17.502  0.00  0.00    +0.000 C 
ATOM     15  C   UNL     1       5.940   6.172  17.042  0.00  0.00    +0.000 C 
BRANCH  14  16
ATOM     16  C   UNL     1       7.698   7.919  17.680  0.00  0.00    +0.000 C 
BRANCH  16  17
ATOM     17  O   UNL     1       8.619   8.106  18.748  0.00  0.00    +0.000 OA
ATOM     18  H   UNL     1       8.849   9.052  18.779  0.00  0.00    +0.000 HD
ENDBRANCH  16  17
ENDBRANCH  14  16
ENDBRANCH   9  10
BRANCH   1  19
ATOM     19  N   UNL     1       0.571   1.900  18.659  0.00  0.00    +0.000 N 
ATOM     20  H   UNL     1       1.110   1.275  18.077  0.00  0.00    +0.000 HD
ATOM     21  H   UNL     1      -0.037   1.503  19.366  0.00  0.00    +0.000 HD
ENDBRANCH   1  19
TORSDOF 4
ENDMDL
MODEL 4
REMARK VINA RESULT:      -7.0      1.439      1.572
REMARK  Name = 
REMARK  4 active torsions:
REMARK  status: ('A' for Active; 'I' for Inactive)
REMARK    1  A    between atoms: N_1  and  C_2
REMARK    2  A    between atoms: N_10  and  C_11
REMARK    3  A    between atoms: C_15  and  C_16
REMARK    4  A    between atoms: C_16  and  O_17
REMARK                            x       y       z     vdW  Elec       q    Type
REMARK                         _______ _______ _______ _____ _____    ______ ____
ROOT
ATOM      1  C   UNL     1       6.828   5.506  15.884  0.00  0.00    +0.000 A 
ATOM      2  N   UNL     1       7.645   6.234  16.676  0.00  0.00    +0.000 NA
ATOM      3  C   UNL     1       7.374   6.284  18.000  0.00  0.00    +0.000 A 
ATOM      4  N   UNL     1       6.372   5.684  18.680  0.00  0.00    +0.000 NA
ATOM      5  C   UNL     1       5.606   4.956  17.849  0.00  0.00    +0.000 A 
ATOM      6  C   UNL     1       5.767   4.806  16.481  0.00  0.00    +0.000 A 
ATOM      7  N   UNL     1       4.804   3.966  15.960  0.00  0.00    +0.000 NA
ATOM      8  C   UNL     1       4.057   3.637  16.989  0.00  0.00    +0.000 A 
ATOM      9  N   UNL     1       4.484   4.226  18.154  0.00  0.00    +0.000 N 
ENDROOT
BRANCH   9  10
ATOM     10  C   UNL     1       3.847   4.148  19.453  0.00  0.00    +0.000 C 
ATOM     11  C   UNL     1       3.095   5.393  19.832  0.00  0.00    +0.000 C 
ATOM     12  C   UNL     1       1.914   5.089  20.371  0.00  0.00    +0.000 C 
ATOM     13  F   UNL     1       1.043   6.019  20.792  0.00  0.00    +0.000 F 
ATOM     14  C   UNL     1       1.667   3.623  20.469  0.00  0.00    +0.000 C 
ATOM     15  C   UNL     1       2.761   3.060  19.537  0.00  0.00    +0.000 C 
BRANCH  14  16
ATOM     16  C   UNL     1       1.801   3.129  21.909  0.00  0.00    +0.000 C 
BRANCH  16  17
ATOM     17  O   UNL     1       2.904   2.238  22.023  0.00  0.00    +0.000 OA
ATOM     18  H   UNL     1       3.635   2.723  22.446  0.00  0.00    +0.000 HD
ENDBRANCH  16  17
ENDBRANCH  14  16
ENDBRANCH   9  10
BRANCH   1  19
ATOM     19  N   UNL     1       7.071   5.488  14.518  0.00  0.00    +0.000 N 
ATOM     20  H   UNL     1       6.353   5.948  13.976  0.00  0.00    +0.000 HD
ATOM     21  H   UNL     1       8.041   5.637  14.264  0.00  0.00    +0.000 HD
ENDBRANCH   1  19
TORSDOF 4
ENDMDL
MODEL 5
REMARK VINA RESULT:      -6.8      3.838      6.410
REMARK  Name = 
REMARK  4 active torsions:
REMARK  status: ('A' for Active; 'I' for Inactive)
REMARK    1  A    between atoms: N_1  and  C_2
REMARK    2  A    between atoms: N_10  and  C_11
REMARK    3  A    between atoms: C_15  and  C_16
REMARK    4  A    between atoms: C_16  and  O_17
REMARK                            x       y       z     vdW  Elec       q    Type
REMARK                         _______ _______ _______ _____ _____    ______ ____
ROOT
ATOM      1  C   UNL     1       1.631   2.965  20.012  0.00  0.00    +0.000 A 
ATOM      2  N   UNL     1       1.424   1.923  19.177  0.00  0.00    +0.000 NA
ATOM      3  C   UNL     1       2.094   1.901  18.004  0.00  0.00    +0.000 A 
ATOM      4  N   UNL     1       2.985   2.796  17.523  0.00  0.00    +0.000 NA
ATOM      5  C   UNL     1       3.171   3.797  18.401  0.00  0.00    +0.000 A 
ATOM      6  C   UNL     1       2.562   3.947  19.637  0.00  0.00    +0.000 A 
ATOM      7  N   UNL     1       3.012   5.086  20.274  0.00  0.00    +0.000 NA
ATOM      8  C   UNL     1       3.855   5.631  19.426  0.00  0.00    +0.000 A 
ATOM      9  N   UNL     1       3.972   4.904  18.267  0.00  0.00    +0.000 N 
ENDROOT
BRANCH   9  10
ATOM     10  C   UNL     1       4.745   5.256  17.093  0.00  0.00    +0.000 C 
ATOM     11  C   UNL     1       5.663   6.427  17.304  0.00  0.00    +0.000 C 
ATOM     12  C   UNL     1       6.861   6.195  16.766  0.00  0.00    +0.000 C 
ATOM     13  F   UNL     1       7.868   7.082  16.819  0.00  0.00    +0.000 F 
ATOM     14  C   UNL     1       6.963   4.868  16.097  0.00  0.00    +0.000 C 
ATOM     15  C   UNL     1       5.714   4.146  16.644  0.00  0.00    +0.000 C 
BRANCH  14  16
ATOM     16  C   UNL     1       6.949   5.009  14.575  0.00  0.00    +0.000 C 
BRANCH  16  17
ATOM     17  O   UNL     1       8.141   5.644  14.129  0.00  0.00    +0.000 OA
ATOM     18  H   UNL     1       8.039   5.833  13.179  0.00  0.00    +0.000 HD
ENDBRANCH  16  17
ENDBRANCH  14  16
ENDBRANCH   9  10
BRANCH   1  19
ATOM     19  N   UNL     1       0.910   3.020  21.197  0.00  0.00    +0.000 N 
ATOM     20  H   UNL     1       0.546   2.124  21.489  0.00  0.00    +0.000 HD
ATOM     21  H   UNL     1       1.306   3.636  21.898  0.00  0.00    +0.000 HD
ENDBRANCH   1  19
TORSDOF 4
ENDMDL
MODEL 6
REMARK VINA RESULT:      -6.7      1.224      1.224
REMARK  Name = 
REMARK  4 active torsions:
REMARK  status: ('A' for Active; 'I' for Inactive)
REMARK    1  A    between atoms: N_1  and  C_2
REMARK    2  A    between atoms: N_10  and  C_11
REMARK    3  A    between atoms: C_15  and  C_16
REMARK    4  A    between atoms: C_16  and  O_17
REMARK                            x       y       z     vdW  Elec       q    Type
REMARK                         _______ _______ _______ _____ _____    ______ ____
ROOT
ATOM      1  C   UNL     1       7.240   6.491  17.683  0.00  0.00    +0.000 A 
ATOM      2  N   UNL     1       7.947   6.132  18.776  0.00  0.00    +0.000 NA
ATOM      3  C   UNL     1       7.307   5.462  19.760  0.00  0.00    +0.000 A 
ATOM      4  N   UNL     1       6.014   5.072  19.814  0.00  0.00    +0.000 NA
ATOM      5  C   UNL     1       5.364   5.433  18.694  0.00  0.00    +0.000 A 
ATOM      6  C   UNL     1       5.890   6.112  17.606  0.00  0.00    +0.000 A 
ATOM      7  N   UNL     1       4.933   6.292  16.628  0.00  0.00    +0.000 NA
ATOM      8  C   UNL     1       3.841   5.756  17.127  0.00  0.00    +0.000 A 
ATOM      9  N   UNL     1       4.040   5.242  18.384  0.00  0.00    +0.000 N 
ENDROOT
BRANCH   9  10
ATOM     10  C   UNL     1       3.040   4.659  19.254  0.00  0.00    +0.000 C 
ATOM     11  C   UNL     1       1.759   4.307  18.550  0.00  0.00    +0.000 C 
ATOM     12  C   UNL     1       1.318   3.109  18.935  0.00  0.00    +0.000 C 
ATOM     13  F   UNL     1       0.194   2.556  18.454  0.00  0.00    +0.000 F 
ATOM     14  C   UNL     1       2.187   2.458  19.956  0.00  0.00    +0.000 C 
ATOM     15  C   UNL     1       3.470   3.310  19.862  0.00  0.00    +0.000 C 
BRANCH  14  16
ATOM     16  C   UNL     1       1.546   2.498  21.342  0.00  0.00    +0.000 C 
BRANCH  16  17
ATOM     17  O   UNL     1       2.510   2.873  22.319  0.00  0.00    +0.000 OA
ATOM     18  H   UNL     1       3.161   2.153  22.386  0.00  0.00    +0.000 HD
ENDBRANCH  16  17
ENDBRANCH  14  16
ENDBRANCH   9  10
BRANCH   1  19
ATOM     19  N   UNL     1       7.877   7.221  16.690  0.00  0.00    +0.000 N 
ATOM     20  H   UNL     1       7.759   8.220  16.786  0.00  0.00    +0.000 HD
ATOM     21  H   UNL     1       8.788   6.863  16.427  0.00  0.00    +0.000 HD
ENDBRANCH   1  19
TORSDOF 4
ENDMDL
MODEL 7
REMARK VINA RESULT:      -6.7      3.680      5.986
REMARK  Name = 
REMARK  4 active torsions:
REMARK  status: ('A' for Active; 'I' for Inactive)
REMARK    1  A    between atoms: N_1  and  C_2
REMARK    2  A    between atoms: N_10  and  C_11
REMARK    3  A    between atoms: C_15  and  C_16
REMARK    4  A    between atoms: C_16  and  O_17
REMARK                            x       y       z     vdW  Elec       q    Type
REMARK                         _______ _______ _______ _____ _____    ______ ____
ROOT
ATOM      1  C   UNL     1       2.399   2.958  21.188  0.00  0.00    +0.000 A 
ATOM      2  N   UNL     1       3.381   2.061  21.422  0.00  0.00    +0.000 NA
ATOM      3  C   UNL     1       4.494   2.118  20.657  0.00  0.00    +0.000 A 
ATOM      4  N   UNL     1       4.789   2.978  19.657  0.00  0.00    +0.000 NA
ATOM      5  C   UNL     1       3.791   3.861  19.483  0.00  0.00    +0.000 A 
ATOM      6  C   UNL     1       2.602   3.928  20.193  0.00  0.00    +0.000 A 
ATOM      7  N   UNL     1       1.823   4.979  19.753  0.00  0.00    +0.000 NA
ATOM      8  C   UNL     1       2.515   5.520  18.775  0.00  0.00    +0.000 A 
ATOM      9  N   UNL     1       3.703   4.868  18.554  0.00  0.00    +0.000 N 
ENDROOT
BRANCH   9  10
ATOM     10  C   UNL     1       4.666   5.145  17.507  0.00  0.00    +0.000 C 
ATOM     11  C   UNL     1       6.093   5.132  17.980  0.00  0.00    +0.000 C 
ATOM     12  C   UNL     1       6.874   4.482  17.117  0.00  0.00    +0.000 C 
ATOM     13  F   UNL     1       8.193   4.322  17.305  0.00  0.00    +0.000 F 
ATOM     14  C   UNL     1       6.141   3.965  15.927  0.00  0.00    +0.000 C 
ATOM     15  C   UNL     1       4.673   4.085  16.389  0.00  0.00    +0.000 C 
BRANCH  14  16
ATOM     16  C   UNL     1       6.442   4.798  14.682  0.00  0.00    +0.000 C 
BRANCH  16  17
ATOM     17  O   UNL     1       7.672   5.495  14.842  0.00  0.00    +0.000 OA
ATOM     18  H   UNL     1       7.907   5.884  13.981  0.00  0.00    +0.000 HD
ENDBRANCH  16  17
ENDBRANCH  14  16
ENDBRANCH   9  10
BRANCH   1  19
ATOM     19  N   UNL     1       1.233   2.876  21.936  0.00  0.00    +0.000 N 
ATOM     20  H   UNL     1       1.007   3.731  22.424  0.00  0.00    +0.000 HD
ATOM     21  H   UNL     1       0.485   2.360  21.487  0.00  0.00    +0.000 HD
ENDBRANCH   1  19
TORSDOF 4
ENDMDL
MODEL 8
REMARK VINA RESULT:      -6.7      3.821      6.140
REMARK  Name = 
REMARK  4 active torsions:
REMARK  status: ('A' for Active; 'I' for Inactive)
REMARK    1  A    between atoms: N_1  and  C_2
REMARK    2  A    between atoms: N_10  and  C_11
REMARK    3  A    between atoms: C_15  and  C_16
REMARK    4  A    between atoms: C_16  and  O_17
REMARK                            x       y       z     vdW  Elec       q    Type
REMARK                         _______ _______ _______ _____ _____    ______ ____
ROOT
ATOM      1  C   UNL     1       1.904   3.692  20.669  0.00  0.00    +0.000 A 
ATOM      2  N   UNL     1       1.623   4.995  20.892  0.00  0.00    +0.000 NA
ATOM      3  C   UNL     1       2.117   5.912  20.031  0.00  0.00    +0.000 A 
ATOM      4  N   UNL     1       2.875   5.714  18.929  0.00  0.00    +0.000 NA
ATOM      5  C   UNL     1       3.104   4.402  18.742  0.00  0.00    +0.000 A 
ATOM      6  C   UNL     1       2.657   3.356  19.533  0.00  0.00    +0.000 A 
ATOM      7  N   UNL     1       3.069   2.142  19.023  0.00  0.00    +0.000 NA
ATOM      8  C   UNL     1       3.776   2.449  17.959  0.00  0.00    +0.000 A 
ATOM      9  N   UNL     1       3.848   3.805  17.755  0.00  0.00    +0.000 N 
ENDROOT
BRANCH   9  10
ATOM     10  C   UNL     1       4.610   4.492  16.732  0.00  0.00    +0.000 C 
ATOM     11  C   UNL     1       5.487   5.589  17.266  0.00  0.00    +0.000 C 
ATOM     12  C   UNL     1       6.692   5.554  16.697  0.00  0.00    +0.000 C 
ATOM     13  F   UNL     1       7.668   6.424  17.001  0.00  0.00    +0.000 F 
ATOM     14  C   UNL     1       6.840   4.468  15.688  0.00  0.00    +0.000 C 
ATOM     15  C   UNL     1       5.616   3.582  16.004  0.00  0.00    +0.000 C 
BRANCH  14  16
ATOM     16  C   UNL     1       6.821   5.022  14.265  0.00  0.00    +0.000 C 
BRANCH  16  17
ATOM     17  O   UNL     1       8.071   5.627  13.956  0.00  0.00    +0.000 OA
ATOM     18  H   UNL     1       8.717   4.915  13.806  0.00  0.00    +0.000 HD
ENDBRANCH  16  17
ENDBRANCH  14  16
ENDBRANCH   9  10
BRANCH   1  19
ATOM     19  N   UNL     1       1.441   2.749  21.576  0.00  0.00    +0.000 N 
ATOM     20  H   UNL     1       2.171   2.351  22.150  0.00  0.00    +0.000 HD
ATOM     21  H   UNL     1       0.556   2.986  22.009  0.00  0.00    +0.000 HD
ENDBRANCH   1  19
TORSDOF 4
ENDMDL
MODEL 9
REMARK VINA RESULT:      -6.5      2.005      2.410
REMARK  Name = 
REMARK  4 active torsions:
REMARK  status: ('A' for Active; 'I' for Inactive)
REMARK    1  A    between atoms: N_1  and  C_2
REMARK    2  A    between atoms: N_10  and  C_11
REMARK    3  A    between atoms: C_15  and  C_16
REMARK    4  A    between atoms: C_16  and  O_17
REMARK                            x       y       z     vdW  Elec       q    Type
REMARK                         _______ _______ _______ _____ _____    ______ ____
ROOT
ATOM      1  C   UNL     1       7.049   6.881  17.471  0.00  0.00    +0.000 A 
ATOM      2  N   UNL     1       7.970   5.912  17.670  0.00  0.00    +0.000 NA
ATOM      3  C   UNL     1       7.538   4.686  18.040  0.00  0.00    +0.000 A 
ATOM      4  N   UNL     1       6.271   4.262  18.243  0.00  0.00    +0.000 NA
ATOM      5  C   UNL     1       5.396   5.256  18.009  0.00  0.00    +0.000 A 
ATOM      6  C   UNL     1       5.691   6.553  17.618  0.00  0.00    +0.000 A 
ATOM      7  N   UNL     1       4.538   7.292  17.452  0.00  0.00    +0.000 NA
ATOM      8  C   UNL     1       3.565   6.467  17.765  0.00  0.00    +0.000 A 
ATOM      9  N   UNL     1       4.029   5.228  18.131  0.00  0.00    +0.000 N 
ENDROOT
BRANCH   9  10
ATOM     10  C   UNL     1       3.242   4.110  18.613  0.00  0.00    +0.000 C 
ATOM     11  C   UNL     1       3.223   3.988  20.111  0.00  0.00    +0.000 C 
ATOM     12  C   UNL     1       1.992   3.723  20.550  0.00  0.00    +0.000 C 
ATOM     13  F   UNL     1       1.699   3.569  21.851  0.00  0.00    +0.000 F 
ATOM     14  C   UNL     1       0.986   3.604  19.458  0.00  0.00    +0.000 C 
ATOM     15  C   UNL     1       1.746   4.222  18.266  0.00  0.00    +0.000 C 
BRANCH  14  16
ATOM     16  C   UNL     1       0.590   2.148  19.220  0.00  0.00    +0.000 C 
BRANCH  16  17
ATOM     17  O   UNL     1       1.532   1.516  18.361  0.00  0.00    +0.000 OA
ATOM     18  H   UNL     1       1.118   0.708  18.010  0.00  0.00    +0.000 HD
ENDBRANCH  16  17
ENDBRANCH  14  16
ENDBRANCH   9  10
BRANCH   1  19
ATOM     19  N   UNL     1       7.486   8.154  17.137  0.00  0.00    +0.000 N 
ATOM     20  H   UNL     1       7.289   8.846  17.846  0.00  0.00    +0.000 HD
ATOM     21  H   UNL     1       8.387   8.178  16.673  0.00  0.00    +0.000 HD
ENDBRANCH   1  19
TORSDOF 4
ENDMDL
