MODEL 1
REMARK VINA RESULT:      -7.0      0.000      0.000
REMARK  Name = 
REMARK  13 active torsions:
REMARK  status: ('A' for Active; 'I' for Inactive)
REMARK    1  A    between atoms: C_1  and  C_2
REMARK    2  A    between atoms: C_2  and  C_3
REMARK    3  A    between atoms: C_3  and  C_4
REMARK    4  A    between atoms: C_4  and  O_5
REMARK    5  A    between atoms: O_5  and  C_6
REMARK    6  A    between atoms: C_11  and  O_12
REMARK    7  A    between atoms: O_12  and  C_13
REMARK    8  A    between atoms: C_13  and  C_14
REMARK    9  A    between atoms: C_14  and  C_15
REMARK   10  A    between atoms: C_15  and  C_16
REMARK   11  A    between atoms: C_17  and  N_18
REMARK   12  A    between atoms: N_19  and  C_20
REMARK   13  A    between atoms: C_21  and  O_22
REMARK                            x       y       z     vdW  Elec       q    Type
REMARK                         _______ _______ _______ _____ _____    ______ ____
ROOT
ATOM      1  C   UNL     1       4.424   5.900  18.325  0.00  0.00    +0.000 A 
ATOM      2  C   UNL     1       5.389   4.905  18.525  0.00  0.00    +0.000 A 
ATOM      3  C   UNL     1       5.160   3.859  19.405  0.00  0.00    +0.000 A 
ATOM      4  C   UNL     1       3.961   3.777  20.111  0.00  0.00    +0.000 A 
ATOM      5 CL   UNL     1       3.825   2.337  21.068  0.00  0.00    +0.000 Cl
ATOM      6  C   UNL     1       2.980   4.787  19.974  0.00  0.00    +0.000 A 
ATOM      7  C   UNL     1       3.193   5.849  19.038  0.00  0.00    +0.000 A 
ENDROOT
BRANCH   7   8
ATOM      8  N   UNL     1       2.216   6.887  18.935  0.00  0.00    +0.000 NA
ATOM      9  N   UNL     1       2.421   7.834  19.735  0.00  0.00    +0.000 NA
BRANCH   9  10
ATOM     10  C   UNL     1       1.424   8.853  19.633  0.00  0.00    +0.000 A 
ATOM     11  C   UNL     1       1.155   9.472  18.399  0.00  0.00    +0.000 A 
ATOM     12  C   UNL     1       0.249  10.519  18.282  0.00  0.00    +0.000 A 
ATOM     13  C   UNL     1      -0.417  10.985  19.414  0.00  0.00    +0.000 A 
ATOM     14  C   UNL     1      -0.183  10.407  20.668  0.00  0.00    +0.000 A 
ATOM     15  C   UNL     1      -0.864  10.893  21.800  0.00  0.00    +0.000 A 
ATOM     16  C   UNL     1      -0.651  10.339  23.061  0.00  0.00    +0.000 A 
ATOM     17  C   UNL     1       0.255   9.296  23.203  0.00  0.00    +0.000 A 
ATOM     18  C   UNL     1       0.941   8.806  22.086  0.00  0.00    +0.000 A 
ATOM     19  C   UNL     1       0.746   9.334  20.793  0.00  0.00    +0.000 A 
BRANCH  11  20
ATOM     20  O   UNL     1       1.782   9.074  17.245  0.00  0.00    +0.000 OA
ATOM     21  H   UNL     1       2.546   9.678  17.132  0.00  0.00    +0.000 HD
ENDBRANCH  11  20
ENDBRANCH   9  10
ENDBRANCH   7   8
BRANCH   1  22
ATOM     22  O   UNL     1       4.632   6.962  17.469  0.00  0.00    +0.000 OA
BRANCH  22  23
ATOM     23  C   UNL     1       5.784   6.876  16.629  0.00  0.00    +0.000 C 
BRANCH  23  24
ATOM     24  C   UNL     1       5.406   6.282  15.279  0.00  0.00    +0.000 C 
BRANCH  24  26
ATOM     25  C   UNL     1       5.626   3.974  14.304  0.00  0.00    +0.000 C 
ATOM     26  C   UNL     1       6.363   5.151  14.913  0.00  0.00    +0.000 C 
ENDBRANCH  24  26
ENDBRANCH  23  24
ENDBRANCH  22  23
ENDBRANCH   1  22
BRANCH   6  27
ATOM     27  O   UNL     1       1.780   4.852  20.661  0.00  0.00    +0.000 OA
BRANCH  27  28
ATOM     28  C   UNL     1       0.863   3.770  20.465  0.00  0.00    +0.000 C 
BRANCH  28  29
ATOM     29  C   UNL     1       0.671   3.478  18.979  0.00  0.00    +0.000 C 
BRANCH  29  30
ATOM     30  C   UNL     1       1.187   2.072  18.652  0.00  0.00    +0.000 C 
ATOM     31  C   UNL     1       2.322   2.093  17.644  0.00  0.00    +0.000 C 
ENDBRANCH  29  30
ENDBRANCH  28  29
ENDBRANCH  27  28
ENDBRANCH   6  27
TORSDOF 11
ENDMDL
MODEL 2
REMARK VINA RESULT:      -6.9      0.952      3.776
REMARK  Name = 
REMARK  13 active torsions:
REMARK  status: ('A' for Active; 'I' for Inactive)
REMARK    1  A    between atoms: C_1  and  C_2
REMARK    2  A    between atoms: C_2  and  C_3
REMARK    3  A    between atoms: C_3  and  C_4
REMARK    4  A    between atoms: C_4  and  O_5
REMARK    5  A    between atoms: O_5  and  C_6
REMARK    6  A    between atoms: C_11  and  O_12
REMARK    7  A    between atoms: O_12  and  C_13
REMARK    8  A    between atoms: C_13  and  C_14
REMARK    9  A    between atoms: C_14  and  C_15
REMARK   10  A    between atoms: C_15  and  C_16
REMARK   11  A    between atoms: C_17  and  N_18
REMARK   12  A    between atoms: N_19  and  C_20
REMARK   13  A    between atoms: C_21  and  O_22
REMARK                            x       y       z     vdW  Elec       q    Type
REMARK                         _______ _______ _______ _____ _____    ______ ____
ROOT
ATOM      1  C   UNL     1       3.031   4.713  20.109  0.00  0.00    +0.000 A 
ATOM      2  C   UNL     1       3.948   3.661  20.230  0.00  0.00    +0.000 A 
ATOM      3  C   UNL     1       5.161   3.696  19.561  0.00  0.00    +0.000 A 
ATOM      4  C   UNL     1       5.493   4.781  18.751  0.00  0.00    +0.000 A 
ATOM      5 CL   UNL     1       7.096   4.684  18.098  0.00  0.00    +0.000 Cl
ATOM      6  C   UNL     1       4.574   5.840  18.564  0.00  0.00    +0.000 A 
ATOM      7  C   UNL     1       3.337   5.830  19.283  0.00  0.00    +0.000 A 
ENDROOT
BRANCH   7   8
ATOM      8  N   UNL     1       2.398   6.884  19.058  0.00  0.00    +0.000 NA
ATOM      9  N   UNL     1       2.419   7.760  19.958  0.00  0.00    +0.000 NA
BRANCH   9  10
ATOM     10  C   UNL     1       1.460   8.796  19.728  0.00  0.00    +0.000 A 
ATOM     11  C   UNL     1       1.305   9.357  18.448  0.00  0.00    +0.000 A 
ATOM     12  C   UNL     1       0.440  10.417  18.208  0.00  0.00    +0.000 A 
ATOM     13  C   UNL     1      -0.300  10.955  19.259  0.00  0.00    +0.000 A 
ATOM     14  C   UNL     1      -0.181  10.437  20.554  0.00  0.00    +0.000 A 
ATOM     15  C   UNL     1      -0.936  10.995  21.603  0.00  0.00    +0.000 A 
ATOM     16  C   UNL     1      -0.838  10.500  22.902  0.00  0.00    +0.000 A 
ATOM     17  C   UNL     1       0.027   9.446  23.167  0.00  0.00    +0.000 A 
ATOM     18  C   UNL     1       0.784   8.884  22.133  0.00  0.00    +0.000 A 
ATOM     19  C   UNL     1       0.707   9.350  20.805  0.00  0.00    +0.000 A 
BRANCH  11  20
ATOM     20  O   UNL     1       2.011   8.887  17.368  0.00  0.00    +0.000 OA
ATOM     21  H   UNL     1       1.411   8.970  16.597  0.00  0.00    +0.000 HD
ENDBRANCH  11  20
ENDBRANCH   9  10
ENDBRANCH   7   8
BRANCH   1  22
ATOM     22  O   UNL     1       1.809   4.697  20.750  0.00  0.00    +0.000 OA
BRANCH  22  23
ATOM     23  C   UNL     1       1.072   3.477  20.669  0.00  0.00    +0.000 C 
BRANCH  23  24
ATOM     24  C   UNL     1       0.593   3.246  19.242  0.00  0.00    +0.000 C 
BRANCH  24  26
ATOM     25  C   UNL     1       2.254   2.332  17.588  0.00  0.00    +0.000 C 
ATOM     26  C   UNL     1       1.240   1.991  18.664  0.00  0.00    +0.000 C 
ENDBRANCH  24  26
ENDBRANCH  23  24
ENDBRANCH  22  23
ENDBRANCH   1  22
BRANCH   6  27
ATOM     27  O   UNL     1       4.759   6.940  17.743  0.00  0.00    +0.000 OA
BRANCH  27  28
ATOM     28  C   UNL     1       5.695   6.794  16.669  0.00  0.00    +0.000 C 
BRANCH  28  29
ATOM     29  C   UNL     1       5.087   6.000  15.516  0.00  0.00    +0.000 C 
BRANCH  29  30
ATOM     30  C   UNL     1       6.187   5.242  14.766  0.00  0.00    +0.000 C 
ATOM     31  C   UNL     1       5.951   3.743  14.753  0.00  0.00    +0.000 C 
ENDBRANCH  29  30
ENDBRANCH  28  29
ENDBRANCH  27  28
ENDBRANCH   6  27
TORSDOF 11
ENDMDL
MODEL 3
REMARK VINA RESULT:      -6.7      1.358      4.156
REMARK  Name = 
REMARK  13 active torsions:
REMARK  status: ('A' for Active; 'I' for Inactive)
REMARK    1  A    between atoms: C_1  and  C_2
REMARK    2  A    between atoms: C_2  and  C_3
REMARK    3  A    between atoms: C_3  and  C_4
REMARK    4  A    between atoms: C_4  and  O_5
REMARK    5  A    between atoms: O_5  and  C_6
REMARK    6  A    between atoms: C_11  and  O_12
REMARK    7  A    between atoms: O_12  and  C_13
REMARK    8  A    between atoms: C_13  and  C_14
REMARK    9  A    between atoms: C_14  and  C_15
REMARK   10  A    between atoms: C_15  and  C_16
REMARK   11  A    between atoms: C_17  and  N_18
REMARK   12  A    between atoms: N_19  and  C_20
REMARK   13  A    between atoms: C_21  and  O_22
REMARK                            x       y       z     vdW  Elec       q    Type
REMARK                         _______ _______ _______ _____ _____    ______ ____
ROOT
ATOM      1  C   UNL     1       3.299   4.716  19.991  0.00  0.00    +0.000 A 
ATOM      2  C   UNL     1       4.202   3.646  20.020  0.00  0.00    +0.000 A 
ATOM      3  C   UNL     1       5.159   3.498  19.029  0.00  0.00    +0.000 A 
ATOM      4  C   UNL     1       5.240   4.412  17.979  0.00  0.00    +0.000 A 
ATOM      5 CL   UNL     1       6.572   4.113  16.911  0.00  0.00    +0.000 Cl
ATOM      6  C   UNL     1       4.315   5.478  17.888  0.00  0.00    +0.000 A 
ATOM      7  C   UNL     1       3.351   5.661  18.929  0.00  0.00    +0.000 A 
ENDROOT
BRANCH   7   8
ATOM      8  N   UNL     1       2.395   6.717  18.808  0.00  0.00    +0.000 NA
ATOM      9  N   UNL     1       2.601   7.659  19.614  0.00  0.00    +0.000 NA
BRANCH   9  10
ATOM     10  C   UNL     1       1.625   8.697  19.493  0.00  0.00    +0.000 A 
ATOM     11  C   UNL     1       1.394   9.324  18.256  0.00  0.00    +0.000 A 
ATOM     12  C   UNL     1       0.511  10.388  18.122  0.00  0.00    +0.000 A 
ATOM     13  C   UNL     1      -0.172  10.862  19.241  0.00  0.00    +0.000 A 
ATOM     14  C   UNL     1       0.023  10.277  20.497  0.00  0.00    +0.000 A 
ATOM     15  C   UNL     1      -0.674  10.772  21.615  0.00  0.00    +0.000 A 
ATOM     16  C   UNL     1      -0.499  10.209  22.879  0.00  0.00    +0.000 A 
ATOM     17  C   UNL     1       0.385   9.150  23.038  0.00  0.00    +0.000 A 
ATOM     18  C   UNL     1       1.086   8.651  21.935  0.00  0.00    +0.000 A 
ATOM     19  C   UNL     1       0.930   9.187  20.640  0.00  0.00    +0.000 A 
BRANCH  11  20
ATOM     20  O   UNL     1       2.040   8.918  17.114  0.00  0.00    +0.000 OA
ATOM     21  H   UNL     1       2.724   8.279  17.405  0.00  0.00    +0.000 HD
ENDBRANCH  11  20
ENDBRANCH   9  10
ENDBRANCH   7   8
BRANCH   1  22
ATOM     22  O   UNL     1       2.325   4.879  20.955  0.00  0.00    +0.000 OA
BRANCH  22  23
ATOM     23  C   UNL     1       1.483   3.752  21.196  0.00  0.00    +0.000 C 
BRANCH  23  24
ATOM     24  C   UNL     1       0.553   3.528  20.012  0.00  0.00    +0.000 C 
BRANCH  24  26
ATOM     25  C   UNL     1       1.625   2.391  18.040  0.00  0.00    +0.000 C 
ATOM     26  C   UNL     1       0.866   2.194  19.339  0.00  0.00    +0.000 C 
ENDBRANCH  24  26
ENDBRANCH  23  24
ENDBRANCH  22  23
ENDBRANCH   1  22
BRANCH   6  27
ATOM     27  O   UNL     1       4.253   6.413  16.868  0.00  0.00    +0.000 OA
BRANCH  27  28
ATOM     28  C   UNL     1       5.499   6.921  16.379  0.00  0.00    +0.000 C 
BRANCH  28  29
ATOM     29  C   UNL     1       6.163   7.830  17.410  0.00  0.00    +0.000 C 
BRANCH  29  30
ATOM     30  C   UNL     1       7.657   7.505  17.509  0.00  0.00    +0.000 C 
ATOM     31  C   UNL     1       7.983   6.652  18.722  0.00  0.00    +0.000 C 
ENDBRANCH  29  30
ENDBRANCH  28  29
ENDBRANCH  27  28
ENDBRANCH   6  27
TORSDOF 11
ENDMDL
MODEL 4
REMARK VINA RESULT:      -6.7      2.204      5.334
REMARK  Name = 
REMARK  13 active torsions:
REMARK  status: ('A' for Active; 'I' for Inactive)
REMARK    1  A    between atoms: C_1  and  C_2
REMARK    2  A    between atoms: C_2  and  C_3
REMARK    3  A    between atoms: C_3  and  C_4
REMARK    4  A    between atoms: C_4  and  O_5
REMARK    5  A    between atoms: O_5  and  C_6
REMARK    6  A    between atoms: C_11  and  O_12
REMARK    7  A    between atoms: O_12  and  C_13
REMARK    8  A    between atoms: C_13  and  C_14
REMARK    9  A    between atoms: C_14  and  C_15
REMARK   10  A    between atoms: C_15  and  C_16
REMARK   11  A    between atoms: C_17  and  N_18
REMARK   12  A    between atoms: N_19  and  C_20
REMARK   13  A    between atoms: C_21  and  O_22
REMARK                            x       y       z     vdW  Elec       q    Type
REMARK                         _______ _______ _______ _____ _____    ______ ____
ROOT
ATOM      1  C   UNL     1       2.942   4.354  17.788  0.00  0.00    +0.000 A 
ATOM      2  C   UNL     1       3.443   3.482  16.813  0.00  0.00    +0.000 A 
ATOM      3  C   UNL     1       4.713   3.660  16.286  0.00  0.00    +0.000 A 
ATOM      4  C   UNL     1       5.517   4.715  16.715  0.00  0.00    +0.000 A 
ATOM      5 CL   UNL     1       7.105   4.694  16.020  0.00  0.00    +0.000 Cl
ATOM      6  C   UNL     1       5.029   5.645  17.662  0.00  0.00    +0.000 A 
ATOM      7  C   UNL     1       3.735   5.445  18.241  0.00  0.00    +0.000 A 
ENDROOT
BRANCH   7   8
ATOM      8  N   UNL     1       3.234   6.412  19.166  0.00  0.00    +0.000 NA
ATOM      9  N   UNL     1       2.361   7.164  18.665  0.00  0.00    +0.000 NA
BRANCH   9  10
ATOM     10  C   UNL     1       1.886   8.138  19.598  0.00  0.00    +0.000 A 
ATOM     11  C   UNL     1       1.420   7.748  20.866  0.00  0.00    +0.000 A 
ATOM     12  C   UNL     1       0.878   8.659  21.764  0.00  0.00    +0.000 A 
ATOM     13  C   UNL     1       0.783  10.003  21.409  0.00  0.00    +0.000 A 
ATOM     14  C   UNL     1       1.228  10.444  20.158  0.00  0.00    +0.000 A 
ATOM     15  C   UNL     1       1.120  11.806  19.817  0.00  0.00    +0.000 A 
ATOM     16  C   UNL     1       1.554  12.274  18.578  0.00  0.00    +0.000 A 
ATOM     17  C   UNL     1       2.092  11.380  17.661  0.00  0.00    +0.000 A 
ATOM     18  C   UNL     1       2.201  10.024  17.987  0.00  0.00    +0.000 A 
ATOM     19  C   UNL     1       1.782   9.513  19.232  0.00  0.00    +0.000 A 
BRANCH  11  20
ATOM     20  O   UNL     1       1.471   6.439  21.278  0.00  0.00    +0.000 OA
ATOM     21  H   UNL     1       0.648   6.285  21.787  0.00  0.00    +0.000 HD
ENDBRANCH  11  20
ENDBRANCH   9  10
ENDBRANCH   7   8
BRANCH   1  22
ATOM     22  O   UNL     1       1.676   4.211  18.318  0.00  0.00    +0.000 OA
BRANCH  22  23
ATOM     23  C   UNL     1       1.421   2.993  19.018  0.00  0.00    +0.000 C 
BRANCH  23  24
ATOM     24  C   UNL     1       0.724   3.283  20.340  0.00  0.00    +0.000 C 
BRANCH  24  26
ATOM     25  C   UNL     1       3.039   2.646  21.091  0.00  0.00    +0.000 C 
ATOM     26  C   UNL     1       1.591   2.820  21.508  0.00  0.00    +0.000 C 
ENDBRANCH  24  26
ENDBRANCH  23  24
ENDBRANCH  22  23
ENDBRANCH   1  22
BRANCH   6  27
ATOM     27  O   UNL     1       5.704   6.764  18.123  0.00  0.00    +0.000 OA
BRANCH  27  28
ATOM     28  C   UNL     1       6.698   7.322  17.257  0.00  0.00    +0.000 C 
BRANCH  28  29
ATOM     29  C   UNL     1       7.923   7.773  18.048  0.00  0.00    +0.000 C 
BRANCH  29  30
ATOM     30  C   UNL     1       8.127   9.282  17.880  0.00  0.00    +0.000 C 
ATOM     31  C   UNL     1       9.057   9.860  18.931  0.00  0.00    +0.000 C 
ENDBRANCH  29  30
ENDBRANCH  28  29
ENDBRANCH  27  28
ENDBRANCH   6  27
TORSDOF 11
ENDMDL
MODEL 5
REMARK VINA RESULT:      -6.6      1.877      4.766
REMARK  Name = 
REMARK  13 active torsions:
REMARK  status: ('A' for Active; 'I' for Inactive)
REMARK    1  A    between atoms: C_1  and  C_2
REMARK    2  A    between atoms: C_2  and  C_3
REMARK    3  A    between atoms: C_3  and  C_4
REMARK    4  A    between atoms: C_4  and  O_5
REMARK    5  A    between atoms: O_5  and  C_6
REMARK    6  A    between atoms: C_11  and  O_12
REMARK    7  A    between atoms: O_12  and  C_13
REMARK    8  A    between atoms: C_13  and  C_14
REMARK    9  A    between atoms: C_14  and  C_15
REMARK   10  A    between atoms: C_15  and  C_16
REMARK   11  A    between atoms: C_17  and  N_18
REMARK   12  A    between atoms: N_19  and  C_20
REMARK   13  A    between atoms: C_21  and  O_22
REMARK                            x       y       z     vdW  Elec       q    Type
REMARK                         _______ _______ _______ _____ _____    ______ ____
ROOT
ATOM      1  C   UNL     1       3.140   4.688  18.387  0.00  0.00    +0.000 A 
ATOM      2  C   UNL     1       3.908   3.521  18.298  0.00  0.00    +0.000 A 
ATOM      3  C   UNL     1       5.278   3.585  18.100  0.00  0.00    +0.000 A 
ATOM      4  C   UNL     1       5.921   4.817  17.983  0.00  0.00    +0.000 A 
ATOM      5 CL   UNL     1       7.644   4.682  17.854  0.00  0.00    +0.000 Cl
ATOM      6  C   UNL     1       5.174   6.018  18.018  0.00  0.00    +0.000 A 
ATOM      7  C   UNL     1       3.765   5.961  18.263  0.00  0.00    +0.000 A 
ENDROOT
BRANCH   7   8
ATOM      8  N   UNL     1       3.013   7.176  18.257  0.00  0.00    +0.000 NA
ATOM      9  N   UNL     1       2.448   7.408  19.355  0.00  0.00    +0.000 NA
BRANCH   9  10
ATOM     10  C   UNL     1       1.684   8.616  19.325  0.00  0.00    +0.000 A 
ATOM     11  C   UNL     1       1.658   9.419  18.172  0.00  0.00    +0.000 A 
ATOM     12  C   UNL     1       0.990  10.638  18.138  0.00  0.00    +0.000 A 
ATOM     13  C   UNL     1       0.325  11.092  19.275  0.00  0.00    +0.000 A 
ATOM     14  C   UNL     1       0.323  10.334  20.451  0.00  0.00    +0.000 A 
ATOM     15  C   UNL     1      -0.352  10.811  21.590  0.00  0.00    +0.000 A 
ATOM     16  C   UNL     1      -0.371  10.078  22.775  0.00  0.00    +0.000 A 
ATOM     17  C   UNL     1       0.296   8.861  22.835  0.00  0.00    +0.000 A 
ATOM     18  C   UNL     1       0.973   8.377  21.711  0.00  0.00    +0.000 A 
ATOM     19  C   UNL     1       1.008   9.085  20.492  0.00  0.00    +0.000 A 
BRANCH  11  20
ATOM     20  O   UNL     1       2.300   9.042  17.019  0.00  0.00    +0.000 OA
ATOM     21  H   UNL     1       3.256   9.179  17.186  0.00  0.00    +0.000 HD
ENDBRANCH  11  20
ENDBRANCH   9  10
ENDBRANCH   7   8
BRANCH   1  22
ATOM     22  O   UNL     1       1.773   4.654  18.567  0.00  0.00    +0.000 OA
BRANCH  22  23
ATOM     23  C   UNL     1       1.144   3.387  18.372  0.00  0.00    +0.000 C 
BRANCH  23  24
ATOM     24  C   UNL     1       0.553   2.887  19.682  0.00  0.00    +0.000 C 
BRANCH  24  26
ATOM     25  C   UNL     1       2.204   2.789  21.578  0.00  0.00    +0.000 C 
ATOM     26  C   UNL     1       1.171   3.636  20.860  0.00  0.00    +0.000 C 
ENDBRANCH  24  26
ENDBRANCH  23  24
ENDBRANCH  22  23
ENDBRANCH   1  22
BRANCH   6  27
ATOM     27  O   UNL     1       5.684   7.295  17.854  0.00  0.00    +0.000 OA
BRANCH  27  28
ATOM     28  C   UNL     1       6.920   7.412  17.143  0.00  0.00    +0.000 C 
BRANCH  28  29
ATOM     29  C   UNL     1       8.036   7.905  18.061  0.00  0.00    +0.000 C 
BRANCH  29  30
ATOM     30  C   UNL     1       8.247   9.410  17.864  0.00  0.00    +0.000 C 
ATOM     31  C   UNL     1       9.098  10.023  18.961  0.00  0.00    +0.000 C 
ENDBRANCH  29  30
ENDBRANCH  28  29
ENDBRANCH  27  28
ENDBRANCH   6  27
TORSDOF 11
ENDMDL
MODEL 6
REMARK VINA RESULT:      -6.6      0.909      1.397
REMARK  Name = 
REMARK  13 active torsions:
REMARK  status: ('A' for Active; 'I' for Inactive)
REMARK    1  A    between atoms: C_1  and  C_2
REMARK    2  A    between atoms: C_2  and  C_3
REMARK    3  A    between atoms: C_3  and  C_4
REMARK    4  A    between atoms: C_4  and  O_5
REMARK    5  A    between atoms: O_5  and  C_6
REMARK    6  A    between atoms: C_11  and  O_12
REMARK    7  A    between atoms: O_12  and  C_13
REMARK    8  A    between atoms: C_13  and  C_14
REMARK    9  A    between atoms: C_14  and  C_15
REMARK   10  A    between atoms: C_15  and  C_16
REMARK   11  A    between atoms: C_17  and  N_18
REMARK   12  A    between atoms: N_19  and  C_20
REMARK   13  A    between atoms: C_21  and  O_22
REMARK                            x       y       z     vdW  Elec       q    Type
REMARK                         _______ _______ _______ _____ _____    ______ ____
ROOT
ATOM      1  C   UNL     1       4.180   5.647  17.834  0.00  0.00    +0.000 A 
ATOM      2  C   UNL     1       5.123   4.620  17.960  0.00  0.00    +0.000 A 
ATOM      3  C   UNL     1       5.028   3.690  18.984  0.00  0.00    +0.000 A 
ATOM      4  C   UNL     1       3.990   3.761  19.911  0.00  0.00    +0.000 A 
ATOM      5 CL   UNL     1       3.986   2.443  21.038  0.00  0.00    +0.000 Cl
ATOM      6  C   UNL     1       3.045   4.811  19.847  0.00  0.00    +0.000 A 
ATOM      7  C   UNL     1       3.113   5.751  18.769  0.00  0.00    +0.000 A 
ENDROOT
BRANCH   7   8
ATOM      8  N   UNL     1       2.178   6.832  18.735  0.00  0.00    +0.000 NA
ATOM      9  N   UNL     1       2.468   7.755  19.536  0.00  0.00    +0.000 NA
BRANCH   9  10
ATOM     10  C   UNL     1       1.513   8.819  19.503  0.00  0.00    +0.000 A 
ATOM     11  C   UNL     1       1.270   9.527  18.313  0.00  0.00    +0.000 A 
ATOM     12  C   UNL     1       0.408  10.616  18.266  0.00  0.00    +0.000 A 
ATOM     13  C   UNL     1      -0.239  11.034  19.428  0.00  0.00    +0.000 A 
ATOM     14  C   UNL     1      -0.029  10.367  20.640  0.00  0.00    +0.000 A 
ATOM     15  C   UNL     1      -0.691  10.805  21.803  0.00  0.00    +0.000 A 
ATOM     16  C   UNL     1      -0.501  10.161  23.025  0.00  0.00    +0.000 A 
ATOM     17  C   UNL     1       0.362   9.075  23.097  0.00  0.00    +0.000 A 
ATOM     18  C   UNL     1       1.027   8.632  21.949  0.00  0.00    +0.000 A 
ATOM     19  C   UNL     1       0.855   9.251  20.693  0.00  0.00    +0.000 A 
BRANCH  11  20
ATOM     20  O   UNL     1       1.881   9.180  17.133  0.00  0.00    +0.000 OA
ATOM     21  H   UNL     1       2.540   9.884  16.955  0.00  0.00    +0.000 HD
ENDBRANCH  11  20
ENDBRANCH   9  10
ENDBRANCH   7   8
BRANCH   1  22
ATOM     22  O   UNL     1       4.259   6.596  16.835  0.00  0.00    +0.000 OA
BRANCH  22  23
ATOM     23  C   UNL     1       5.566   6.868  16.328  0.00  0.00    +0.000 C 
BRANCH  23  24
ATOM     24  C   UNL     1       6.363   7.682  17.338  0.00  0.00    +0.000 C 
BRANCH  24  26
ATOM     25  C   UNL     1       8.010   6.513  18.839  0.00  0.00    +0.000 C 
ATOM     26  C   UNL     1       7.777   7.123  17.470  0.00  0.00    +0.000 C 
ENDBRANCH  24  26
ENDBRANCH  23  24
ENDBRANCH  22  23
ENDBRANCH   1  22
BRANCH   6  27
ATOM     27  O   UNL     1       2.007   5.025  20.739  0.00  0.00    +0.000 OA
BRANCH  27  28
ATOM     28  C   UNL     1       0.740   4.447  20.408  0.00  0.00    +0.000 C 
BRANCH  28  29
ATOM     29  C   UNL     1       0.848   2.930  20.274  0.00  0.00    +0.000 C 
BRANCH  29  30
ATOM     30  C   UNL     1       0.572   2.512  18.826  0.00  0.00    +0.000 C 
ATOM     31  C   UNL     1       1.806   1.958  18.138  0.00  0.00    +0.000 C 
ENDBRANCH  29  30
ENDBRANCH  28  29
ENDBRANCH  27  28
ENDBRANCH   6  27
TORSDOF 11
ENDMDL
MODEL 7
REMARK VINA RESULT:      -6.5      1.515      2.157
REMARK  Name = 
REMARK  13 active torsions:
REMARK  status: ('A' for Active; 'I' for Inactive)
REMARK    1  A    between atoms: C_1  and  C_2
REMARK    2  A    between atoms: C_2  and  C_3
REMARK    3  A    between atoms: C_3  and  C_4
REMARK    4  A    between atoms: C_4  and  O_5
REMARK    5  A    between atoms: O_5  and  C_6
REMARK    6  A    between atoms: C_11  and  O_12
REMARK    7  A    between atoms: O_12  and  C_13
REMARK    8  A    between atoms: C_13  and  C_14
REMARK    9  A    between atoms: C_14  and  C_15
REMARK   10  A    between atoms: C_15  and  C_16
REMARK   11  A    between atoms: C_17  and  N_18
REMARK   12  A    between atoms: N_19  and  C_20
REMARK   13  A    between atoms: C_21  and  O_22
REMARK                            x       y       z     vdW  Elec       q    Type
REMARK                         _______ _______ _______ _____ _____    ______ ____
ROOT
ATOM      1  C   UNL     1       4.311   5.862  17.352  0.00  0.00    +0.000 A 
ATOM      2  C   UNL     1       5.023   4.660  17.253  0.00  0.00    +0.000 A 
ATOM      3  C   UNL     1       4.408   3.446  17.518  0.00  0.00    +0.000 A 
ATOM      4  C   UNL     1       3.065   3.398  17.890  0.00  0.00    +0.000 A 
ATOM      5 CL   UNL     1       2.459   1.783  18.064  0.00  0.00    +0.000 Cl
ATOM      6  C   UNL     1       2.325   4.593  18.048  0.00  0.00    +0.000 A 
ATOM      7  C   UNL     1       2.942   5.847  17.737  0.00  0.00    +0.000 A 
ENDROOT
BRANCH   7   8
ATOM      8  N   UNL     1       2.198   7.051  17.937  0.00  0.00    +0.000 NA
ATOM      9  N   UNL     1       2.458   7.610  19.032  0.00  0.00    +0.000 NA
BRANCH   9  10
ATOM     10  C   UNL     1       1.692   8.802  19.226  0.00  0.00    +0.000 A 
ATOM     11  C   UNL     1       1.726   9.838  18.275  0.00  0.00    +0.000 A 
ATOM     12  C   UNL     1       1.057  11.040  18.471  0.00  0.00    +0.000 A 
ATOM     13  C   UNL     1       0.329  11.241  19.643  0.00  0.00    +0.000 A 
ATOM     14  C   UNL     1       0.265  10.244  20.623  0.00  0.00    +0.000 A 
ATOM     15  C   UNL     1      -0.473  10.468  21.800  0.00  0.00    +0.000 A 
ATOM     16  C   UNL     1      -0.554   9.494  22.795  0.00  0.00    +0.000 A 
ATOM     17  C   UNL     1       0.113   8.288  22.624  0.00  0.00    +0.000 A 
ATOM     18  C   UNL     1       0.853   8.055  21.460  0.00  0.00    +0.000 A 
ATOM     19  C   UNL     1       0.952   9.011  20.428  0.00  0.00    +0.000 A 
BRANCH  11  20
ATOM     20  O   UNL     1       2.432   9.715  17.104  0.00  0.00    +0.000 OA
ATOM     21  H   UNL     1       2.733  10.619  16.876  0.00  0.00    +0.000 HD
ENDBRANCH  11  20
ENDBRANCH   9  10
ENDBRANCH   7   8
BRANCH   1  22
ATOM     22  O   UNL     1       4.902   7.085  17.111  0.00  0.00    +0.000 OA
BRANCH  22  23
ATOM     23  C   UNL     1       6.278   7.055  16.729  0.00  0.00    +0.000 C 
BRANCH  23  24
ATOM     24  C   UNL     1       7.105   7.908  17.680  0.00  0.00    +0.000 C 
BRANCH  24  26
ATOM     25  C   UNL     1       7.556   6.020  19.282  0.00  0.00    +0.000 C 
ATOM     26  C   UNL     1       8.173   7.055  18.361  0.00  0.00    +0.000 C 
ENDBRANCH  24  26
ENDBRANCH  23  24
ENDBRANCH  22  23
ENDBRANCH   1  22
BRANCH   6  27
ATOM     27  O   UNL     1       1.008   4.682  18.468  0.00  0.00    +0.000 OA
BRANCH  27  28
ATOM     28  C   UNL     1       0.681   4.049  19.709  0.00  0.00    +0.000 C 
BRANCH  28  29
ATOM     29  C   UNL     1       1.603   4.528  20.828  0.00  0.00    +0.000 C 
BRANCH  29  30
ATOM     30  C   UNL     1       1.959   3.356  21.749  0.00  0.00    +0.000 C 
ATOM     31  C   UNL     1       3.185   2.599  21.273  0.00  0.00    +0.000 C 
ENDBRANCH  29  30
ENDBRANCH  28  29
ENDBRANCH  27  28
ENDBRANCH   6  27
TORSDOF 11
ENDMDL
MODEL 8
REMARK VINA RESULT:      -6.5      1.686      2.424
REMARK  Name = 
REMARK  13 active torsions:
REMARK  status: ('A' for Active; 'I' for Inactive)
REMARK    1  A    between atoms: C_1  and  C_2
REMARK    2  A    between atoms: C_2  and  C_3
REMARK    3  A    between atoms: C_3  and  C_4
REMARK    4  A    between atoms: C_4  and  O_5
REMARK    5  A    between atoms: O_5  and  C_6
REMARK    6  A    between atoms: C_11  and  O_12
REMARK    7  A    between atoms: O_12  and  C_13
REMARK    8  A    between atoms: C_13  and  C_14
REMARK    9  A    between atoms: C_14  and  C_15
REMARK   10  A    between atoms: C_15  and  C_16
REMARK   11  A    between atoms: C_17  and  N_18
REMARK   12  A    between atoms: N_19  and  C_20
REMARK   13  A    between atoms: C_21  and  O_22
REMARK                            x       y       z     vdW  Elec       q    Type
REMARK                         _______ _______ _______ _____ _____    ______ ____
ROOT
ATOM      1  C   UNL     1       5.077   5.546  18.088  0.00  0.00    +0.000 A 
ATOM      2  C   UNL     1       5.764   4.332  18.217  0.00  0.00    +0.000 A 
ATOM      3  C   UNL     1       5.075   3.137  18.349  0.00  0.00    +0.000 A 
ATOM      4  C   UNL     1       3.681   3.120  18.357  0.00  0.00    +0.000 A 
ATOM      5 CL   UNL     1       3.015   1.520  18.416  0.00  0.00    +0.000 Cl
ATOM      6  C   UNL     1       2.951   4.329  18.278  0.00  0.00    +0.000 A 
ATOM      7  C   UNL     1       3.655   5.563  18.101  0.00  0.00    +0.000 A 
ENDROOT
BRANCH   7   8
ATOM      8  N   UNL     1       2.911   6.783  18.062  0.00  0.00    +0.000 NA
ATOM      9  N   UNL     1       2.667   7.244  19.206  0.00  0.00    +0.000 NA
BRANCH   9  10
ATOM     10  C   UNL     1       1.906   8.454  19.150  0.00  0.00    +0.000 A 
ATOM     11  C   UNL     1       1.979   9.294  18.025  0.00  0.00    +0.000 A 
ATOM     12  C   UNL     1       1.315  10.514  17.973  0.00  0.00    +0.000 A 
ATOM     13  C   UNL     1       0.553  10.931  19.063  0.00  0.00    +0.000 A 
ATOM     14  C   UNL     1       0.450  10.135  20.209  0.00  0.00    +0.000 A 
ATOM     15  C   UNL     1      -0.322  10.575  21.300  0.00  0.00    +0.000 A 
ATOM     16  C   UNL     1      -0.442   9.804  22.454  0.00  0.00    +0.000 A 
ATOM     17  C   UNL     1       0.219   8.585  22.532  0.00  0.00    +0.000 A 
ATOM     18  C   UNL     1       0.992   8.137  21.456  0.00  0.00    +0.000 A 
ATOM     19  C   UNL     1       1.131   8.884  20.268  0.00  0.00    +0.000 A 
BRANCH  11  20
ATOM     20  O   UNL     1       2.719   8.953  16.920  0.00  0.00    +0.000 OA
ATOM     21  H   UNL     1       2.149   9.140  16.146  0.00  0.00    +0.000 HD
ENDBRANCH  11  20
ENDBRANCH   9  10
ENDBRANCH   7   8
BRANCH   1  22
ATOM     22  O   UNL     1       5.737   6.753  17.972  0.00  0.00    +0.000 OA
BRANCH  22  23
ATOM     23  C   UNL     1       7.144   6.726  18.212  0.00  0.00    +0.000 C 
BRANCH  23  24
ATOM     24  C   UNL     1       7.854   7.702  17.284  0.00  0.00    +0.000 C 
BRANCH  24  26
ATOM     25  C   UNL     1       8.874   9.555  18.647  0.00  0.00    +0.000 C 
ATOM     26  C   UNL     1       7.692   9.131  17.796  0.00  0.00    +0.000 C 
ENDBRANCH  24  26
ENDBRANCH  23  24
ENDBRANCH  22  23
ENDBRANCH   1  22
BRANCH   6  27
ATOM     27  O   UNL     1       1.572   4.450  18.336  0.00  0.00    +0.000 OA
BRANCH  27  28
ATOM     28  C   UNL     1       0.920   3.881  19.476  0.00  0.00    +0.000 C 
BRANCH  28  29
ATOM     29  C   UNL     1       1.312   4.616  20.755  0.00  0.00    +0.000 C 
BRANCH  29  30
ATOM     30  C   UNL     1       2.209   3.722  21.618  0.00  0.00    +0.000 C 
ATOM     31  C   UNL     1       1.640   2.326  21.789  0.00  0.00    +0.000 C 
ENDBRANCH  29  30
ENDBRANCH  28  29
ENDBRANCH  27  28
ENDBRANCH   6  27
TORSDOF 11
ENDMDL
MODEL 9
REMARK VINA RESULT:      -6.4      2.574      4.221
REMARK  Name = 
REMARK  13 active torsions:
REMARK  status: ('A' for Active; 'I' for Inactive)
REMARK    1  A    between atoms: C_1  and  C_2
REMARK    2  A    between atoms: C_2  and  C_3
REMARK    3  A    between atoms: C_3  and  C_4
REMARK    4  A    between atoms: C_4  and  O_5
REMARK    5  A    between atoms: O_5  and  C_6
REMARK    6  A    between atoms: C_11  and  O_12
REMARK    7  A    between atoms: O_12  and  C_13
REMARK    8  A    between atoms: C_13  and  C_14
REMARK    9  A    between atoms: C_14  and  C_15
REMARK   10  A    between atoms: C_15  and  C_16
REMARK   11  A    between atoms: C_17  and  N_18
REMARK   12  A    between atoms: N_19  and  C_20
REMARK   13  A    between atoms: C_21  and  O_22
REMARK                            x       y       z     vdW  Elec       q    Type
REMARK                         _______ _______ _______ _____ _____    ______ ____
ROOT
ATOM      1  C   UNL     1       6.442   6.710  17.082  0.00  0.00    +0.000 A 
ATOM      2  C   UNL     1       7.313   6.256  16.083  0.00  0.00    +0.000 A 
ATOM      3  C   UNL     1       6.990   5.155  15.306  0.00  0.00    +0.000 A 
ATOM      4  C   UNL     1       5.789   4.475  15.504  0.00  0.00    +0.000 A 
ATOM      5 CL   UNL     1       5.525   3.202  14.358  0.00  0.00    +0.000 Cl
ATOM      6  C   UNL     1       4.905   4.873  16.534  0.00  0.00    +0.000 A 
ATOM      7  C   UNL     1       5.213   6.033  17.314  0.00  0.00    +0.000 A 
ENDROOT
BRANCH   7   8
ATOM      8  N   UNL     1       4.333   6.404  18.379  0.00  0.00    +0.000 NA
ATOM      9  N   UNL     1       3.360   7.096  17.991  0.00  0.00    +0.000 NA
BRANCH   9  10
ATOM     10  C   UNL     1       2.501   7.475  19.070  0.00  0.00    +0.000 A 
ATOM     11  C   UNL     1       2.233   6.579  20.120  0.00  0.00    +0.000 A 
ATOM     12  C   UNL     1       1.343   6.887  21.142  0.00  0.00    +0.000 A 
ATOM     13  C   UNL     1       0.684   8.115  21.136  0.00  0.00    +0.000 A 
ATOM     14  C   UNL     1       0.912   9.042  20.112  0.00  0.00    +0.000 A 
ATOM     15  C   UNL     1       0.235  10.276  20.122  0.00  0.00    +0.000 A 
ATOM     16  C   UNL     1       0.441  11.218  19.116  0.00  0.00    +0.000 A 
ATOM     17  C   UNL     1       1.320  10.929  18.081  0.00  0.00    +0.000 A 
ATOM     18  C   UNL     1       1.997   9.705  18.057  0.00  0.00    +0.000 A 
ATOM     19  C   UNL     1       1.822   8.730  19.061  0.00  0.00    +0.000 A 
BRANCH  11  20
ATOM     20  O   UNL     1       2.836   5.347  20.185  0.00  0.00    +0.000 OA
ATOM     21  H   UNL     1       2.124   4.712  20.409  0.00  0.00    +0.000 HD
ENDBRANCH  11  20
ENDBRANCH   9  10
ENDBRANCH   7   8
BRANCH   1  22
ATOM     22  O   UNL     1       6.745   7.793  17.882  0.00  0.00    +0.000 OA
BRANCH  22  23
ATOM     23  C   UNL     1       8.134   8.070  18.066  0.00  0.00    +0.000 C 
BRANCH  23  24
ATOM     24  C   UNL     1       8.378   9.572  18.038  0.00  0.00    +0.000 C 
BRANCH  24  26
ATOM     25  C   UNL     1       9.503  11.484  19.225  0.00  0.00    +0.000 C 
ATOM     26  C   UNL     1       9.274   9.984  19.203  0.00  0.00    +0.000 C 
ENDBRANCH  24  26
ENDBRANCH  23  24
ENDBRANCH  22  23
ENDBRANCH   1  22
BRANCH   6  27
ATOM     27  O   UNL     1       3.716   4.247  16.870  0.00  0.00    +0.000 OA
BRANCH  27  28
ATOM     28  C   UNL     1       3.813   3.042  17.637  0.00  0.00    +0.000 C 
BRANCH  28  29
ATOM     29  C   UNL     1       2.485   2.289  17.645  0.00  0.00    +0.000 C 
BRANCH  29  30
ATOM     30  C   UNL     1       2.032   2.047  19.089  0.00  0.00    +0.000 C 
ATOM     31  C   UNL     1       0.697   2.702  19.393  0.00  0.00    +0.000 C 
ENDBRANCH  29  30
ENDBRANCH  28  29
ENDBRANCH  27  28
ENDBRANCH   6  27
TORSDOF 11
ENDMDL
