MODEL 1
REMARK VINA RESULT:      -7.1      0.000      0.000
REMARK  Name = 
REMARK  2 active torsions:
REMARK  status: ('A' for Active; 'I' for Inactive)
REMARK    1  A    between atoms: C_1  and  C_2
REMARK    2  A    between atoms: C_6  and  C_7
REMARK                            x       y       z     vdW  Elec       q    Type
REMARK                         _______ _______ _______ _____ _____    ______ ____
ROOT
ATOM      1  C   UNL     1       4.190   4.226  18.488  0.00  0.00    +0.000 A 
ATOM      2  C   UNL     1       5.371   4.482  19.076  0.00  0.00    +0.000 A 
ATOM      3  C   UNL     1       6.574   4.685  18.236  0.00  0.00    +0.000 A 
ATOM      4  O   UNL     1       7.659   4.926  18.753  0.00  0.00    +0.000 OA
ATOM      5  C   UNL     1       6.409   4.612  16.765  0.00  0.00    +0.000 A 
ATOM      6  C   UNL     1       7.500   4.842  15.918  0.00  0.00    +0.000 A 
ATOM      7  C   UNL     1       7.321   4.773  14.537  0.00  0.00    +0.000 A 
ATOM      8  C   UNL     1       6.064   4.473  14.011  0.00  0.00    +0.000 A 
ATOM      9  C   UNL     1       4.977   4.244  14.861  0.00  0.00    +0.000 A 
ATOM     10  C   UNL     1       5.137   4.322  16.249  0.00  0.00    +0.000 A 
ATOM     11  N   UNL     1       4.060   4.121  17.118  0.00  0.00    +0.000 N 
ATOM     12  H   UNL     1       3.137   3.934  16.748  0.00  0.00    +0.000 HD
ENDROOT
BRANCH   1  18
ATOM     13  C   UNL     1       2.420   6.583  19.601  0.00  0.00    +0.000 C 
ATOM     14  C   UNL     1       2.244   5.123  19.867  0.00  0.00    +0.000 A 
ATOM     15  C   UNL     1       1.213   4.590  20.709  0.00  0.00    +0.000 A 
ATOM     16  C   UNL     1       1.247   3.217  20.784  0.00  0.00    +0.000 A 
ATOM     17  S   UNL     1       2.510   2.558  19.846  0.00  0.00    +0.000 S 
ATOM     18  C   UNL     1       3.051   4.114  19.348  0.00  0.00    +0.000 A 
ENDBRANCH   1  18
TORSDOF 1
ENDMDL
MODEL 2
REMARK VINA RESULT:      -7.1      3.713      6.613
REMARK  Name = 
REMARK  2 active torsions:
REMARK  status: ('A' for Active; 'I' for Inactive)
REMARK    1  A    between atoms: C_1  and  C_2
REMARK    2  A    between atoms: C_6  and  C_7
REMARK                            x       y       z     vdW  Elec       q    Type
REMARK                         _______ _______ _______ _____ _____    ______ ____
ROOT
ATOM      1  C   UNL     1       2.407   6.616  19.599  0.00  0.00    +0.000 A 
ATOM      2  C   UNL     1       2.472   7.322  18.457  0.00  0.00    +0.000 A 
ATOM      3  C   UNL     1       1.908   8.691  18.415  0.00  0.00    +0.000 A 
ATOM      4  O   UNL     1       1.963   9.354  17.386  0.00  0.00    +0.000 OA
ATOM      5  C   UNL     1       1.307   9.229  19.659  0.00  0.00    +0.000 A 
ATOM      6  C   UNL     1       0.800  10.533  19.694  0.00  0.00    +0.000 A 
ATOM      7  C   UNL     1       0.243  11.020  20.875  0.00  0.00    +0.000 A 
ATOM      8  C   UNL     1       0.191  10.207  22.009  0.00  0.00    +0.000 A 
ATOM      9  C   UNL     1       0.698   8.904  21.969  0.00  0.00    +0.000 A 
ATOM     10  C   UNL     1       1.272   8.405  20.794  0.00  0.00    +0.000 A 
ATOM     11  N   UNL     1       1.808   7.114  20.738  0.00  0.00    +0.000 N 
ATOM     12  H   UNL     1       1.805   6.527  21.561  0.00  0.00    +0.000 HD
ENDROOT
BRANCH   1  18
ATOM     13  C   UNL     1       1.071   3.854  20.323  0.00  0.00    +0.000 C 
ATOM     14  C   UNL     1       2.490   4.088  19.915  0.00  0.00    +0.000 A 
ATOM     15  C   UNL     1       3.467   3.043  19.811  0.00  0.00    +0.000 A 
ATOM     16  C   UNL     1       4.696   3.505  19.401  0.00  0.00    +0.000 A 
ATOM     17  S   UNL     1       4.688   5.190  19.137  0.00  0.00    +0.000 S 
ATOM     18  C   UNL     1       3.036   5.329  19.599  0.00  0.00    +0.000 A 
ENDBRANCH   1  18
TORSDOF 1
ENDMDL
MODEL 3
REMARK VINA RESULT:      -7.0      1.015      1.041
REMARK  Name = 
REMARK  2 active torsions:
REMARK  status: ('A' for Active; 'I' for Inactive)
REMARK    1  A    between atoms: C_1  and  C_2
REMARK    2  A    between atoms: C_6  and  C_7
REMARK                            x       y       z     vdW  Elec       q    Type
REMARK                         _______ _______ _______ _____ _____    ______ ____
ROOT
ATOM      1  C   UNL     1       4.167   3.800  18.438  0.00  0.00    +0.000 A 
ATOM      2  C   UNL     1       5.245   4.267  19.092  0.00  0.00    +0.000 A 
ATOM      3  C   UNL     1       6.443   4.675  18.321  0.00  0.00    +0.000 A 
ATOM      4  O   UNL     1       7.434   5.109  18.897  0.00  0.00    +0.000 OA
ATOM      5  C   UNL     1       6.385   4.563  16.844  0.00  0.00    +0.000 A 
ATOM      6  C   UNL     1       7.468   4.977  16.060  0.00  0.00    +0.000 A 
ATOM      7  C   UNL     1       7.390   4.868  14.672  0.00  0.00    +0.000 A 
ATOM      8  C   UNL     1       6.242   4.345  14.077  0.00  0.00    +0.000 A 
ATOM      9  C   UNL     1       5.162   3.932  14.865  0.00  0.00    +0.000 A 
ATOM     10  C   UNL     1       5.219   4.047  16.258  0.00  0.00    +0.000 A 
ATOM     11  N   UNL     1       4.143   3.664  17.065  0.00  0.00    +0.000 N 
ATOM     12  H   UNL     1       3.292   3.313  16.644  0.00  0.00    +0.000 HD
ENDROOT
BRANCH   1  18
ATOM     13  C   UNL     1       1.158   4.390  17.712  0.00  0.00    +0.000 C 
ATOM     14  C   UNL     1       1.672   3.738  18.954  0.00  0.00    +0.000 A 
ATOM     15  C   UNL     1       0.827   3.293  20.024  0.00  0.00    +0.000 A 
ATOM     16  C   UNL     1       1.532   2.710  21.050  0.00  0.00    +0.000 A 
ATOM     17  S   UNL     1       3.209   2.689  20.739  0.00  0.00    +0.000 S 
ATOM     18  C   UNL     1       3.015   3.493  19.231  0.00  0.00    +0.000 A 
ENDBRANCH   1  18
TORSDOF 1
ENDMDL
MODEL 4
REMARK VINA RESULT:      -6.9      2.232      5.858
REMARK  Name = 
REMARK  2 active torsions:
REMARK  status: ('A' for Active; 'I' for Inactive)
REMARK    1  A    between atoms: C_1  and  C_2
REMARK    2  A    between atoms: C_6  and  C_7
REMARK                            x       y       z     vdW  Elec       q    Type
REMARK                         _______ _______ _______ _____ _____    ______ ____
ROOT
ATOM      1  C   UNL     1       4.473   4.822  17.343  0.00  0.00    +0.000 A 
ATOM      2  C   UNL     1       4.026   6.022  17.751  0.00  0.00    +0.000 A 
ATOM      3  C   UNL     1       2.975   6.090  18.792  0.00  0.00    +0.000 A 
ATOM      4  O   UNL     1       2.558   7.175  19.183  0.00  0.00    +0.000 OA
ATOM      5  C   UNL     1       2.474   4.813  19.353  0.00  0.00    +0.000 A 
ATOM      6  C   UNL     1       1.515   4.815  20.373  0.00  0.00    +0.000 A 
ATOM      7  C   UNL     1       1.061   3.603  20.889  0.00  0.00    +0.000 A 
ATOM      8  C   UNL     1       1.560   2.400  20.386  0.00  0.00    +0.000 A 
ATOM      9  C   UNL     1       2.518   2.403  19.367  0.00  0.00    +0.000 A 
ATOM     10  C   UNL     1       2.994   3.612  18.847  0.00  0.00    +0.000 A 
ATOM     11  N   UNL     1       3.969   3.640  17.845  0.00  0.00    +0.000 N 
ATOM     12  H   UNL     1       4.362   2.776  17.494  0.00  0.00    +0.000 HD
ENDROOT
BRANCH   1  18
ATOM     13  C   UNL     1       7.554   5.093  17.952  0.00  0.00    +0.000 C 
ATOM     14  C   UNL     1       6.912   4.943  16.610  0.00  0.00    +0.000 A 
ATOM     15  C   UNL     1       7.646   4.916  15.379  0.00  0.00    +0.000 A 
ATOM     16  C   UNL     1       6.835   4.752  14.281  0.00  0.00    +0.000 A 
ATOM     17  S   UNL     1       5.191   4.626  14.716  0.00  0.00    +0.000 S 
ATOM     18  C   UNL     1       5.543   4.821  16.389  0.00  0.00    +0.000 A 
ENDBRANCH   1  18
TORSDOF 1
ENDMDL
MODEL 5
REMARK VINA RESULT:      -6.9      1.036      1.581
REMARK  Name = 
REMARK  2 active torsions:
REMARK  status: ('A' for Active; 'I' for Inactive)
REMARK    1  A    between atoms: C_1  and  C_2
REMARK    2  A    between atoms: C_6  and  C_7
REMARK                            x       y       z     vdW  Elec       q    Type
REMARK                         _______ _______ _______ _____ _____    ______ ____
ROOT
ATOM      1  C   UNL     1       4.126   4.238  18.295  0.00  0.00    +0.000 A 
ATOM      2  C   UNL     1       5.289   4.482  18.924  0.00  0.00    +0.000 A 
ATOM      3  C   UNL     1       6.522   4.675  18.126  0.00  0.00    +0.000 A 
ATOM      4  O   UNL     1       7.591   4.904  18.679  0.00  0.00    +0.000 OA
ATOM      5  C   UNL     1       6.406   4.608  16.649  0.00  0.00    +0.000 A 
ATOM      6  C   UNL     1       7.526   4.829  15.840  0.00  0.00    +0.000 A 
ATOM      7  C   UNL     1       7.394   4.766  14.454  0.00  0.00    +0.000 A 
ATOM      8  C   UNL     1       6.152   4.479  13.885  0.00  0.00    +0.000 A 
ATOM      9  C   UNL     1       5.035   4.258  14.697  0.00  0.00    +0.000 A 
ATOM     10  C   UNL     1       5.149   4.331  16.090  0.00  0.00    +0.000 A 
ATOM     11  N   UNL     1       4.041   4.138  16.922  0.00  0.00    +0.000 N 
ATOM     12  H   UNL     1       3.129   3.962  16.520  0.00  0.00    +0.000 HD
ENDROOT
BRANCH   1  18
ATOM     13  C   UNL     1       2.363   1.669  18.768  0.00  0.00    +0.000 C 
ATOM     14  C   UNL     1       2.147   3.027  19.351  0.00  0.00    +0.000 A 
ATOM     15  C   UNL     1       1.056   3.351  20.224  0.00  0.00    +0.000 A 
ATOM     16  C   UNL     1       1.082   4.660  20.642  0.00  0.00    +0.000 A 
ATOM     17  S   UNL     1       2.411   5.510  19.995  0.00  0.00    +0.000 S 
ATOM     18  C   UNL     1       2.957   4.135  19.116  0.00  0.00    +0.000 A 
ENDBRANCH   1  18
TORSDOF 1
ENDMDL
MODEL 6
REMARK VINA RESULT:      -6.8      2.403      3.142
REMARK  Name = 
REMARK  2 active torsions:
REMARK  status: ('A' for Active; 'I' for Inactive)
REMARK    1  A    between atoms: C_1  and  C_2
REMARK    2  A    between atoms: C_6  and  C_7
REMARK                            x       y       z     vdW  Elec       q    Type
REMARK                         _______ _______ _______ _____ _____    ______ ____
ROOT
ATOM      1  C   UNL     1       3.670   4.770  18.484  0.00  0.00    +0.000 A 
ATOM      2  C   UNL     1       3.506   5.544  17.398  0.00  0.00    +0.000 A 
ATOM      3  C   UNL     1       4.615   6.423  16.958  0.00  0.00    +0.000 A 
ATOM      4  O   UNL     1       4.489   7.133  15.966  0.00  0.00    +0.000 OA
ATOM      5  C   UNL     1       5.874   6.390  17.739  0.00  0.00    +0.000 A 
ATOM      6  C   UNL     1       6.973   7.162  17.345  0.00  0.00    +0.000 A 
ATOM      7  C   UNL     1       8.149   7.112  18.091  0.00  0.00    +0.000 A 
ATOM      8  C   UNL     1       8.222   6.299  19.223  0.00  0.00    +0.000 A 
ATOM      9  C   UNL     1       7.122   5.529  19.614  0.00  0.00    +0.000 A 
ATOM     10  C   UNL     1       5.938   5.558  18.868  0.00  0.00    +0.000 A 
ATOM     11  N   UNL     1       4.833   4.779  19.225  0.00  0.00    +0.000 N 
ATOM     12  H   UNL     1       4.884   4.162  20.025  0.00  0.00    +0.000 HD
ENDROOT
BRANCH   1  18
ATOM     13  C   UNL     1       1.509   5.182  20.741  0.00  0.00    +0.000 C 
ATOM     14  C   UNL     1       1.619   4.024  19.802  0.00  0.00    +0.000 A 
ATOM     15  C   UNL     1       0.728   2.902  19.820  0.00  0.00    +0.000 A 
ATOM     16  C   UNL     1       1.022   1.974  18.849  0.00  0.00    +0.000 A 
ATOM     17  S   UNL     1       2.367   2.441  17.909  0.00  0.00    +0.000 S 
ATOM     18  C   UNL     1       2.591   3.887  18.815  0.00  0.00    +0.000 A 
ENDBRANCH   1  18
TORSDOF 1
ENDMDL
MODEL 7
REMARK VINA RESULT:      -6.8      2.622      6.049
REMARK  Name = 
REMARK  2 active torsions:
REMARK  status: ('A' for Active; 'I' for Inactive)
REMARK    1  A    between atoms: C_1  and  C_2
REMARK    2  A    between atoms: C_6  and  C_7
REMARK                            x       y       z     vdW  Elec       q    Type
REMARK                         _______ _______ _______ _____ _____    ______ ____
ROOT
ATOM      1  C   UNL     1       4.348   4.053  17.564  0.00  0.00    +0.000 A 
ATOM      2  C   UNL     1       3.149   4.276  17.000  0.00  0.00    +0.000 A 
ATOM      3  C   UNL     1       1.917   3.988  17.771  0.00  0.00    +0.000 A 
ATOM      4  O   UNL     1       0.813   4.191  17.277  0.00  0.00    +0.000 OA
ATOM      5  C   UNL     1       2.071   3.478  19.154  0.00  0.00    +0.000 A 
ATOM      6  C   UNL     1       0.945   3.233  19.948  0.00  0.00    +0.000 A 
ATOM      7  C   UNL     1       1.113   2.758  21.248  0.00  0.00    +0.000 A 
ATOM      8  C   UNL     1       2.397   2.527  21.745  0.00  0.00    +0.000 A 
ATOM      9  C   UNL     1       3.520   2.774  20.948  0.00  0.00    +0.000 A 
ATOM     10  C   UNL     1       3.368   3.263  19.646  0.00  0.00    +0.000 A 
ATOM     11  N   UNL     1       4.476   3.540  18.839  0.00  0.00    +0.000 N 
ATOM     12  H   UNL     1       5.412   3.407  19.198  0.00  0.00    +0.000 HD
ENDROOT
BRANCH   1  18
ATOM     13  C   UNL     1       6.872   5.642  18.583  0.00  0.00    +0.000 C 
ATOM     14  C   UNL     1       6.633   5.124  17.202  0.00  0.00    +0.000 A 
ATOM     15  C   UNL     1       7.553   5.305  16.118  0.00  0.00    +0.000 A 
ATOM     16  C   UNL     1       7.118   4.723  14.950  0.00  0.00    +0.000 A 
ATOM     17  S   UNL     1       5.607   3.956  15.144  0.00  0.00    +0.000 S 
ATOM     18  C   UNL     1       5.501   4.421  16.798  0.00  0.00    +0.000 A 
ENDBRANCH   1  18
TORSDOF 1
ENDMDL
MODEL 8
REMARK VINA RESULT:      -6.7      2.710      5.673
REMARK  Name = 
REMARK  2 active torsions:
REMARK  status: ('A' for Active; 'I' for Inactive)
REMARK    1  A    between atoms: C_1  and  C_2
REMARK    2  A    between atoms: C_6  and  C_7
REMARK                            x       y       z     vdW  Elec       q    Type
REMARK                         _______ _______ _______ _____ _____    ______ ____
ROOT
ATOM      1  C   UNL     1       4.995   4.882  18.586  0.00  0.00    +0.000 A 
ATOM      2  C   UNL     1       5.020   3.697  17.953  0.00  0.00    +0.000 A 
ATOM      3  C   UNL     1       3.889   2.755  18.128  0.00  0.00    +0.000 A 
ATOM      4  O   UNL     1       3.890   1.671  17.555  0.00  0.00    +0.000 OA
ATOM      5  C   UNL     1       2.762   3.182  18.991  0.00  0.00    +0.000 A 
ATOM      6  C   UNL     1       1.645   2.355  19.156  0.00  0.00    +0.000 A 
ATOM      7  C   UNL     1       0.594   2.779  19.968  0.00  0.00    +0.000 A 
ATOM      8  C   UNL     1       0.663   4.015  20.611  0.00  0.00    +0.000 A 
ATOM      9  C   UNL     1       1.782   4.838  20.443  0.00  0.00    +0.000 A 
ATOM     10  C   UNL     1       2.840   4.433  19.621  0.00  0.00    +0.000 A 
ATOM     11  N   UNL     1       3.958   5.250  19.418  0.00  0.00    +0.000 N 
ATOM     12  H   UNL     1       4.006   6.162  19.853  0.00  0.00    +0.000 HD
ENDROOT
BRANCH   1  18
ATOM     13  C   UNL     1       5.197   6.957  16.222  0.00  0.00    +0.000 C 
ATOM     14  C   UNL     1       6.214   6.706  17.288  0.00  0.00    +0.000 A 
ATOM     15  C   UNL     1       7.468   7.396  17.364  0.00  0.00    +0.000 A 
ATOM     16  C   UNL     1       8.225   7.004  18.443  0.00  0.00    +0.000 A 
ATOM     17  S   UNL     1       7.439   5.809  19.372  0.00  0.00    +0.000 S 
ATOM     18  C   UNL     1       6.079   5.779  18.318  0.00  0.00    +0.000 A 
ENDBRANCH   1  18
TORSDOF 1
ENDMDL
MODEL 9
REMARK VINA RESULT:      -6.6      1.179      1.716
REMARK  Name = 
REMARK  2 active torsions:
REMARK  status: ('A' for Active; 'I' for Inactive)
REMARK    1  A    between atoms: C_1  and  C_2
REMARK    2  A    between atoms: C_6  and  C_7
REMARK                            x       y       z     vdW  Elec       q    Type
REMARK                         _______ _______ _______ _____ _____    ______ ____
ROOT
ATOM      1  C   UNL     1       4.541   4.182  18.627  0.00  0.00    +0.000 A 
ATOM      2  C   UNL     1       5.589   4.906  19.056  0.00  0.00    +0.000 A 
ATOM      3  C   UNL     1       6.635   5.315  18.090  0.00  0.00    +0.000 A 
ATOM      4  O   UNL     1       7.596   5.981  18.460  0.00  0.00    +0.000 OA
ATOM      5  C   UNL     1       6.462   4.914  16.674  0.00  0.00    +0.000 A 
ATOM      6  C   UNL     1       7.393   5.311  15.707  0.00  0.00    +0.000 A 
ATOM      7  C   UNL     1       7.208   4.928  14.380  0.00  0.00    +0.000 A 
ATOM      8  C   UNL     1       6.104   4.151  14.026  0.00  0.00    +0.000 A 
ATOM      9  C   UNL     1       5.176   3.756  14.995  0.00  0.00    +0.000 A 
ATOM     10  C   UNL     1       5.341   4.144  16.330  0.00  0.00    +0.000 A 
ATOM     11  N   UNL     1       4.413   3.782  17.312  0.00  0.00    +0.000 N 
ATOM     12  H   UNL     1       3.592   3.247  17.063  0.00  0.00    +0.000 HD
ENDROOT
BRANCH   1  18
ATOM     13  C   UNL     1       4.499   1.761  20.644  0.00  0.00    +0.000 C 
ATOM     14  C   UNL     1       3.461   2.826  20.496  0.00  0.00    +0.000 A 
ATOM     15  C   UNL     1       2.259   2.875  21.275  0.00  0.00    +0.000 A 
ATOM     16  C   UNL     1       1.471   3.958  20.968  0.00  0.00    +0.000 A 
ATOM     17  S   UNL     1       2.165   4.925  19.746  0.00  0.00    +0.000 S 
ATOM     18  C   UNL     1       3.525   3.882  19.591  0.00  0.00    +0.000 A 
ENDBRANCH   1  18
TORSDOF 1
ENDMDL
