MODEL 1
REMARK VINA RESULT:      -6.8      0.000      0.000
REMARK  Name = 
REMARK  17 active torsions:
REMARK  status: ('A' for Active; 'I' for Inactive)
REMARK    1  A    between atoms: C_1  and  C_2
REMARK    2  A    between atoms: C_2  and  C_3
REMARK    3  A    between atoms: C_2  and  C_4
REMARK    4  A    between atoms: C_6  and  C_7
REMARK    5  A    between atoms: C_14  and  O_15
REMARK    6  A    between atoms: O_15  and  C_16
REMARK    7  A    between atoms: C_16  and  C_17
REMARK    8  A    between atoms: C_17  and  O_18
REMARK    9  A    between atoms: C_17  and  C_19
REMARK   10  A    between atoms: C_19  and  C_20
REMARK   11  A    between atoms: C_20  and  O_21
REMARK   12  A    between atoms: C_20  and  C_22
REMARK   13  A    between atoms: C_22  and  C_23
REMARK   14  A    between atoms: C_23  and  O_25
REMARK   15  A    between atoms: C_26  and  C_27
REMARK   16  A    between atoms: C_27  and  C_28
REMARK   17  A    between atoms: C_27  and  C_29
REMARK                            x       y       z     vdW  Elec       q    Type
REMARK                         _______ _______ _______ _____ _____    ______ ____
ROOT
ATOM      1  C   UNL     1       2.633   4.253  20.062  0.00  0.00    +0.000 A 
ATOM      2  C   UNL     1       2.069   5.309  20.782  0.00  0.00    +0.000 A 
ATOM      3  C   UNL     1       2.057   6.644  20.312  0.00  0.00    +0.000 A 
ATOM      4  C   UNL     1       2.742   6.922  19.085  0.00  0.00    +0.000 A 
ATOM      5  C   UNL     1       3.397   5.877  18.365  0.00  0.00    +0.000 A 
ATOM      6  C   UNL     1       3.298   4.558  18.877  0.00  0.00    +0.000 A 
ENDROOT
BRANCH   3   7
ATOM      7  C   UNL     1       1.241   7.644  21.082  0.00  0.00    +0.000 A 
ATOM      8  C   UNL     1      -0.162   7.720  21.016  0.00  0.00    +0.000 A 
ATOM      9  C   UNL     1      -0.889   8.640  21.786  0.00  0.00    +0.000 A 
ATOM     10  C   UNL     1      -0.220   9.531  22.609  0.00  0.00    +0.000 A 
ATOM     11  F   UNL     1      -0.912  10.415  23.338  0.00  0.00    +0.000 F 
ATOM     12  C   UNL     1       1.162   9.512  22.688  0.00  0.00    +0.000 A 
ATOM     13  C   UNL     1       1.878   8.568  21.945  0.00  0.00    +0.000 A 
ENDBRANCH   3   7
BRANCH   1  15
ATOM     14  C   UNL     1       1.238   2.835  21.539  0.00  0.00    +0.000 C 
ATOM     15  C   UNL     1       2.376   2.826  20.511  0.00  0.00    +0.000 C 
ATOM     16  C   UNL     1       2.061   1.842  19.381  0.00  0.00    +0.000 C 
ENDBRANCH   1  15
BRANCH   5  17
ATOM     17  C   UNL     1       4.192   6.007  17.071  0.00  0.00    +0.000 C 
ATOM     18  C   UNL     1       5.411   6.928  17.210  0.00  0.00    +0.000 C 
ATOM     19  C   UNL     1       4.614   4.632  16.525  0.00  0.00    +0.000 C 
ENDBRANCH   5  17
BRANCH   4  20
ATOM     20  O   UNL     1       2.724   8.257  18.733  0.00  0.00    +0.000 OA
BRANCH  20  21
ATOM     21  C   UNL     1       1.795   8.697  17.758  0.00  0.00    +0.000 C 
BRANCH  21  22
ATOM     22  C   UNL     1       0.892   9.839  18.250  0.00  0.00    +0.000 C 
BRANCH  22  23
ATOM     23  O   UNL     1       1.398  11.120  17.847  0.00  0.00    +0.000 OA
ATOM     24  H   UNL     1       2.362  11.049  17.741  0.00  0.00    +0.000 HD
ENDBRANCH  22  23
BRANCH  22  25
ATOM     25  C   UNL     1      -0.520   9.702  17.647  0.00  0.00    +0.000 C 
BRANCH  25  26
ATOM     26  C   UNL     1      -1.531  10.732  18.173  0.00  0.00    +0.000 C 
BRANCH  26  27
ATOM     27  O   UNL     1      -1.196  12.027  17.674  0.00  0.00    +0.000 OA
ATOM     28  H   UNL     1      -0.227  12.117  17.653  0.00  0.00    +0.000 HD
ENDBRANCH  26  27
BRANCH  26  29
ATOM     29  C   UNL     1      -2.974  10.414  17.789  0.00  0.00    +0.000 C 
BRANCH  29  30
ATOM     30  C   UNL     1      -3.373  11.133  16.526  0.00  0.00    +0.000 C 
ATOM     31  O   UNL     1      -2.938  10.873  15.414  0.00  0.00    +0.000 OA
BRANCH  30  32
ATOM     32  O   UNL     1      -4.284  12.109  16.740  0.00  0.00    +0.000 OA
ATOM     33  H   UNL     1      -5.181  11.905  16.410  0.00  0.00    +0.000 HD
ENDBRANCH  30  32
ENDBRANCH  29  30
ENDBRANCH  26  29
ENDBRANCH  25  26
ENDBRANCH  22  25
ENDBRANCH  21  22
ENDBRANCH  20  21
ENDBRANCH   4  20
TORSDOF 13
ENDMDL
MODEL 2
REMARK VINA RESULT:      -6.5      1.661      2.120
REMARK  Name = 
REMARK  17 active torsions:
REMARK  status: ('A' for Active; 'I' for Inactive)
REMARK    1  A    between atoms: C_1  and  C_2
REMARK    2  A    between atoms: C_2  and  C_3
REMARK    3  A    between atoms: C_2  and  C_4
REMARK    4  A    between atoms: C_6  and  C_7
REMARK    5  A    between atoms: C_14  and  O_15
REMARK    6  A    between atoms: O_15  and  C_16
REMARK    7  A    between atoms: C_16  and  C_17
REMARK    8  A    between atoms: C_17  and  O_18
REMARK    9  A    between atoms: C_17  and  C_19
REMARK   10  A    between atoms: C_19  and  C_20
REMARK   11  A    between atoms: C_20  and  O_21
REMARK   12  A    between atoms: C_20  and  C_22
REMARK   13  A    between atoms: C_22  and  C_23
REMARK   14  A    between atoms: C_23  and  O_25
REMARK   15  A    between atoms: C_26  and  C_27
REMARK   16  A    between atoms: C_27  and  C_28
REMARK   17  A    between atoms: C_27  and  C_29
REMARK                            x       y       z     vdW  Elec       q    Type
REMARK                         _______ _______ _______ _____ _____    ______ ____
ROOT
ATOM      1  C   UNL     1       1.891   4.329  20.102  0.00  0.00    +0.000 A 
ATOM      2  C   UNL     1       1.469   5.465  20.796  0.00  0.00    +0.000 A 
ATOM      3  C   UNL     1       1.720   6.782  20.342  0.00  0.00    +0.000 A 
ATOM      4  C   UNL     1       2.525   6.939  19.168  0.00  0.00    +0.000 A 
ATOM      5  C   UNL     1       3.039   5.797  18.482  0.00  0.00    +0.000 A 
ATOM      6  C   UNL     1       2.679   4.514  18.969  0.00  0.00    +0.000 A 
ENDROOT
BRANCH   3   7
ATOM      7  C   UNL     1       1.037   7.908  21.068  0.00  0.00    +0.000 A 
ATOM      8  C   UNL     1      -0.274   8.334  20.785  0.00  0.00    +0.000 A 
ATOM      9  C   UNL     1      -0.891   9.360  21.517  0.00  0.00    +0.000 A 
ATOM     10  C   UNL     1      -0.190  10.008  22.521  0.00  0.00    +0.000 A 
ATOM     11  F   UNL     1      -0.774  10.993  23.214  0.00  0.00    +0.000 F 
ATOM     12  C   UNL     1       1.112   9.642  22.818  0.00  0.00    +0.000 A 
ATOM     13  C   UNL     1       1.708   8.594  22.109  0.00  0.00    +0.000 A 
ENDBRANCH   3   7
BRANCH   1  15
ATOM     14  C   UNL     1       1.769   1.941  19.449  0.00  0.00    +0.000 C 
ATOM     15  C   UNL     1       1.361   2.967  20.515  0.00  0.00    +0.000 C 
ATOM     16  C   UNL     1       1.808   2.496  21.902  0.00  0.00    +0.000 C 
ENDBRANCH   1  15
BRANCH   5  17
ATOM     17  C   UNL     1       3.932   5.788  17.246  0.00  0.00    +0.000 C 
ATOM     18  C   UNL     1       5.241   6.560  17.452  0.00  0.00    +0.000 C 
ATOM     19  C   UNL     1       4.220   4.355  16.765  0.00  0.00    +0.000 C 
ENDBRANCH   5  17
BRANCH   4  20
ATOM     20  O   UNL     1       2.762   8.257  18.833  0.00  0.00    +0.000 OA
BRANCH  20  21
ATOM     21  C   UNL     1       2.236   8.761  17.617  0.00  0.00    +0.000 C 
BRANCH  21  22
ATOM     22  C   UNL     1       1.522  10.112  17.777  0.00  0.00    +0.000 C 
BRANCH  22  23
ATOM     23  O   UNL     1       0.095   9.959  17.749  0.00  0.00    +0.000 OA
ATOM     24  H   UNL     1      -0.267  10.588  17.102  0.00  0.00    +0.000 HD
ENDBRANCH  22  23
BRANCH  22  25
ATOM     25  C   UNL     1       1.881  10.748  19.135  0.00  0.00    +0.000 C 
BRANCH  25  26
ATOM     26  C   UNL     1       1.644  12.265  19.201  0.00  0.00    +0.000 C 
BRANCH  26  27
ATOM     27  O   UNL     1       1.957  12.852  17.938  0.00  0.00    +0.000 OA
ATOM     28  H   UNL     1       1.290  13.531  17.730  0.00  0.00    +0.000 HD
ENDBRANCH  26  27
BRANCH  26  29
ATOM     29  C   UNL     1       0.211  12.638  19.576  0.00  0.00    +0.000 C 
BRANCH  29  30
ATOM     30  C   UNL     1      -0.408  13.535  18.536  0.00  0.00    +0.000 C 
ATOM     31  O   UNL     1      -0.334  14.755  18.538  0.00  0.00    +0.000 OA
BRANCH  30  32
ATOM     32  O   UNL     1      -1.062  12.849  17.571  0.00  0.00    +0.000 OA
ATOM     33  H   UNL     1      -1.916  13.242  17.304  0.00  0.00    +0.000 HD
ENDBRANCH  30  32
ENDBRANCH  29  30
ENDBRANCH  26  29
ENDBRANCH  25  26
ENDBRANCH  22  25
ENDBRANCH  21  22
ENDBRANCH  20  21
ENDBRANCH   4  20
TORSDOF 13
ENDMDL
MODEL 3
REMARK VINA RESULT:      -6.5      0.732      1.321
REMARK  Name = 
REMARK  17 active torsions:
REMARK  status: ('A' for Active; 'I' for Inactive)
REMARK    1  A    between atoms: C_1  and  C_2
REMARK    2  A    between atoms: C_2  and  C_3
REMARK    3  A    between atoms: C_2  and  C_4
REMARK    4  A    between atoms: C_6  and  C_7
REMARK    5  A    between atoms: C_14  and  O_15
REMARK    6  A    between atoms: O_15  and  C_16
REMARK    7  A    between atoms: C_16  and  C_17
REMARK    8  A    between atoms: C_17  and  O_18
REMARK    9  A    between atoms: C_17  and  C_19
REMARK   10  A    between atoms: C_19  and  C_20
REMARK   11  A    between atoms: C_20  and  O_21
REMARK   12  A    between atoms: C_20  and  C_22
REMARK   13  A    between atoms: C_22  and  C_23
REMARK   14  A    between atoms: C_23  and  O_25
REMARK   15  A    between atoms: C_26  and  C_27
REMARK   16  A    between atoms: C_27  and  C_28
REMARK   17  A    between atoms: C_27  and  C_29
REMARK                            x       y       z     vdW  Elec       q    Type
REMARK                         _______ _______ _______ _____ _____    ______ ____
ROOT
ATOM      1  C   UNL     1       1.968   4.249  19.942  0.00  0.00    +0.000 A 
ATOM      2  C   UNL     1       1.578   5.343  20.718  0.00  0.00    +0.000 A 
ATOM      3  C   UNL     1       1.821   6.684  20.338  0.00  0.00    +0.000 A 
ATOM      4  C   UNL     1       2.586   6.909  19.148  0.00  0.00    +0.000 A 
ATOM      5  C   UNL     1       3.069   5.810  18.376  0.00  0.00    +0.000 A 
ATOM      6  C   UNL     1       2.718   4.501  18.796  0.00  0.00    +0.000 A 
ENDROOT
BRANCH   3   7
ATOM      7  C   UNL     1       1.170   7.766  21.155  0.00  0.00    +0.000 A 
ATOM      8  C   UNL     1       1.891   8.713  21.906  0.00  0.00    +0.000 A 
ATOM      9  C   UNL     1       1.246   9.735  22.619  0.00  0.00    +0.000 A 
ATOM     10  C   UNL     1      -0.138   9.802  22.627  0.00  0.00    +0.000 A 
ATOM     11  F   UNL     1      -0.755  10.772  23.315  0.00  0.00    +0.000 F 
ATOM     12  C   UNL     1      -0.891   8.877  21.925  0.00  0.00    +0.000 A 
ATOM     13  C   UNL     1      -0.241   7.883  21.187  0.00  0.00    +0.000 A 
ENDBRANCH   3   7
BRANCH   1  15
ATOM     14  C   UNL     1       2.056   1.855  19.311  0.00  0.00    +0.000 C 
ATOM     15  C   UNL     1       1.445   2.867  20.288  0.00  0.00    +0.000 C 
ATOM     16  C   UNL     1       1.698   2.426  21.733  0.00  0.00    +0.000 C 
ENDBRANCH   1  15
BRANCH   5  17
ATOM     17  C   UNL     1       3.918   5.874  17.112  0.00  0.00    +0.000 C 
ATOM     18  C   UNL     1       5.149   6.776  17.266  0.00  0.00    +0.000 C 
ATOM     19  C   UNL     1       4.333   4.471  16.636  0.00  0.00    +0.000 C 
ENDBRANCH   5  17
BRANCH   4  20
ATOM     20  O   UNL     1       2.819   8.245  18.887  0.00  0.00    +0.000 OA
BRANCH  20  21
ATOM     21  C   UNL     1       2.055   8.891  17.884  0.00  0.00    +0.000 C 
BRANCH  21  22
ATOM     22  C   UNL     1       1.251  10.091  18.410  0.00  0.00    +0.000 C 
BRANCH  22  23
ATOM     23  O   UNL     1       1.761  11.331  17.898  0.00  0.00    +0.000 OA
ATOM     24  H   UNL     1       2.372  11.132  17.168  0.00  0.00    +0.000 HD
ENDBRANCH  22  23
BRANCH  22  25
ATOM     25  C   UNL     1      -0.219   9.987  17.959  0.00  0.00    +0.000 C 
BRANCH  25  26
ATOM     26  C   UNL     1      -1.188  10.861  18.770  0.00  0.00    +0.000 C 
BRANCH  26  27
ATOM     27  O   UNL     1      -0.447  11.700  19.656  0.00  0.00    +0.000 OA
ATOM     28  H   UNL     1       0.472  11.760  19.340  0.00  0.00    +0.000 HD
ENDBRANCH  26  27
BRANCH  26  29
ATOM     29  C   UNL     1      -2.088  11.736  17.900  0.00  0.00    +0.000 C 
BRANCH  29  30
ATOM     30  C   UNL     1      -2.811  10.913  16.866  0.00  0.00    +0.000 C 
ATOM     31  O   UNL     1      -2.580  10.946  15.667  0.00  0.00    +0.000 OA
BRANCH  30  32
ATOM     32  O   UNL     1      -3.758  10.109  17.401  0.00  0.00    +0.000 OA
ATOM     33  H   UNL     1      -4.356   9.696  16.747  0.00  0.00    +0.000 HD
ENDBRANCH  30  32
ENDBRANCH  29  30
ENDBRANCH  26  29
ENDBRANCH  25  26
ENDBRANCH  22  25
ENDBRANCH  21  22
ENDBRANCH  20  21
ENDBRANCH   4  20
TORSDOF 13
ENDMDL
MODEL 4
REMARK VINA RESULT:      -6.4      3.252      6.195
REMARK  Name = 
REMARK  17 active torsions:
REMARK  status: ('A' for Active; 'I' for Inactive)
REMARK    1  A    between atoms: C_1  and  C_2
REMARK    2  A    between atoms: C_2  and  C_3
REMARK    3  A    between atoms: C_2  and  C_4
REMARK    4  A    between atoms: C_6  and  C_7
REMARK    5  A    between atoms: C_14  and  O_15
REMARK    6  A    between atoms: O_15  and  C_16
REMARK    7  A    between atoms: C_16  and  C_17
REMARK    8  A    between atoms: C_17  and  O_18
REMARK    9  A    between atoms: C_17  and  C_19
REMARK   10  A    between atoms: C_19  and  C_20
REMARK   11  A    between atoms: C_20  and  O_21
REMARK   12  A    between atoms: C_20  and  C_22
REMARK   13  A    between atoms: C_22  and  C_23
REMARK   14  A    between atoms: C_23  and  O_25
REMARK   15  A    between atoms: C_26  and  C_27
REMARK   16  A    between atoms: C_27  and  C_28
REMARK   17  A    between atoms: C_27  and  C_29
REMARK                            x       y       z     vdW  Elec       q    Type
REMARK                         _______ _______ _______ _____ _____    ______ ____
ROOT
ATOM      1  C   UNL     1       6.145   4.594  14.868  0.00  0.00    +0.000 A 
ATOM      2  C   UNL     1       5.116   3.921  15.531  0.00  0.00    +0.000 A 
ATOM      3  C   UNL     1       4.793   4.154  16.889  0.00  0.00    +0.000 A 
ATOM      4  C   UNL     1       5.629   5.054  17.626  0.00  0.00    +0.000 A 
ATOM      5  C   UNL     1       6.739   5.695  16.997  0.00  0.00    +0.000 A 
ATOM      6  C   UNL     1       6.946   5.454  15.615  0.00  0.00    +0.000 A 
ENDROOT
BRANCH   3   7
ATOM      7  C   UNL     1       3.538   3.521  17.422  0.00  0.00    +0.000 A 
ATOM      8  C   UNL     1       3.518   2.296  18.115  0.00  0.00    +0.000 A 
ATOM      9  C   UNL     1       2.331   1.762  18.636  0.00  0.00    +0.000 A 
ATOM     10  C   UNL     1       1.130   2.425  18.436  0.00  0.00    +0.000 A 
ATOM     11  F   UNL     1      -0.005   1.911  18.926  0.00  0.00    +0.000 F 
ATOM     12  C   UNL     1       1.095   3.620  17.739  0.00  0.00    +0.000 A 
ATOM     13  C   UNL     1       2.288   4.166  17.254  0.00  0.00    +0.000 A 
ENDBRANCH   3   7
BRANCH   1  15
ATOM     14  C   UNL     1       7.629   5.014  12.928  0.00  0.00    +0.000 C 
ATOM     15  C   UNL     1       6.257   4.478  13.358  0.00  0.00    +0.000 C 
ATOM     16  C   UNL     1       6.043   3.067  12.803  0.00  0.00    +0.000 C 
ENDBRANCH   1  15
BRANCH   5  17
ATOM     17  C   UNL     1       7.740   6.647  17.642  0.00  0.00    +0.000 C 
ATOM     18  C   UNL     1       7.278   8.109  17.613  0.00  0.00    +0.000 C 
ATOM     19  C   UNL     1       8.085   6.218  19.079  0.00  0.00    +0.000 C 
ENDBRANCH   5  17
BRANCH   4  20
ATOM     20  O   UNL     1       5.271   5.176  18.954  0.00  0.00    +0.000 OA
BRANCH  20  21
ATOM     21  C   UNL     1       4.509   6.301  19.358  0.00  0.00    +0.000 C 
BRANCH  21  22
ATOM     22  C   UNL     1       3.033   5.970  19.630  0.00  0.00    +0.000 C 
BRANCH  22  23
ATOM     23  O   UNL     1       2.894   5.044  20.718  0.00  0.00    +0.000 OA
ATOM     24  H   UNL     1       2.318   4.316  20.427  0.00  0.00    +0.000 HD
ENDBRANCH  22  23
BRANCH  22  25
ATOM     25  C   UNL     1       2.263   7.246  20.022  0.00  0.00    +0.000 C 
BRANCH  25  26
ATOM     26  C   UNL     1       2.119   8.268  18.884  0.00  0.00    +0.000 C 
BRANCH  26  27
ATOM     27  O   UNL     1       1.858   7.584  17.658  0.00  0.00    +0.000 OA
ATOM     28  H   UNL     1       2.578   6.951  17.490  0.00  0.00    +0.000 HD
ENDBRANCH  26  27
BRANCH  26  29
ATOM     29  C   UNL     1       1.010   9.289  19.125  0.00  0.00    +0.000 C 
BRANCH  29  30
ATOM     30  C   UNL     1       1.395  10.646  18.595  0.00  0.00    +0.000 C 
ATOM     31  O   UNL     1       1.176  11.703  19.169  0.00  0.00    +0.000 OA
BRANCH  30  32
ATOM     32  O   UNL     1       2.029  10.586  17.402  0.00  0.00    +0.000 OA
ATOM     33  H   UNL     1       1.591  10.018  16.739  0.00  0.00    +0.000 HD
ENDBRANCH  30  32
ENDBRANCH  29  30
ENDBRANCH  26  29
ENDBRANCH  25  26
ENDBRANCH  22  25
ENDBRANCH  21  22
ENDBRANCH  20  21
ENDBRANCH   4  20
TORSDOF 13
ENDMDL
MODEL 5
REMARK VINA RESULT:      -6.4      3.539      6.316
REMARK  Name = 
REMARK  17 active torsions:
REMARK  status: ('A' for Active; 'I' for Inactive)
REMARK    1  A    between atoms: C_1  and  C_2
REMARK    2  A    between atoms: C_2  and  C_3
REMARK    3  A    between atoms: C_2  and  C_4
REMARK    4  A    between atoms: C_6  and  C_7
REMARK    5  A    between atoms: C_14  and  O_15
REMARK    6  A    between atoms: O_15  and  C_16
REMARK    7  A    between atoms: C_16  and  C_17
REMARK    8  A    between atoms: C_17  and  O_18
REMARK    9  A    between atoms: C_17  and  C_19
REMARK   10  A    between atoms: C_19  and  C_20
REMARK   11  A    between atoms: C_20  and  O_21
REMARK   12  A    between atoms: C_20  and  C_22
REMARK   13  A    between atoms: C_22  and  C_23
REMARK   14  A    between atoms: C_23  and  O_25
REMARK   15  A    between atoms: C_26  and  C_27
REMARK   16  A    between atoms: C_27  and  C_28
REMARK   17  A    between atoms: C_27  and  C_29
REMARK                            x       y       z     vdW  Elec       q    Type
REMARK                         _______ _______ _______ _____ _____    ______ ____
ROOT
ATOM      1  C   UNL     1       6.128   4.633  14.881  0.00  0.00    +0.000 A 
ATOM      2  C   UNL     1       5.103   3.954  15.545  0.00  0.00    +0.000 A 
ATOM      3  C   UNL     1       4.789   4.176  16.907  0.00  0.00    +0.000 A 
ATOM      4  C   UNL     1       5.630   5.068  17.647  0.00  0.00    +0.000 A 
ATOM      5  C   UNL     1       6.736   5.715  17.016  0.00  0.00    +0.000 A 
ATOM      6  C   UNL     1       6.934   5.486  15.630  0.00  0.00    +0.000 A 
ENDROOT
BRANCH   3   7
ATOM      7  C   UNL     1       3.537   3.538  17.443  0.00  0.00    +0.000 A 
ATOM      8  C   UNL     1       3.516   2.289  18.090  0.00  0.00    +0.000 A 
ATOM      9  C   UNL     1       2.333   1.749  18.616  0.00  0.00    +0.000 A 
ATOM     10  C   UNL     1       1.137   2.434  18.467  0.00  0.00    +0.000 A 
ATOM     11  F   UNL     1       0.005   1.916  18.961  0.00  0.00    +0.000 F 
ATOM     12  C   UNL     1       1.103   3.654  17.814  0.00  0.00    +0.000 A 
ATOM     13  C   UNL     1       2.292   4.203  17.325  0.00  0.00    +0.000 A 
ENDBRANCH   3   7
BRANCH   1  15
ATOM     14  C   UNL     1       7.631   4.987  12.943  0.00  0.00    +0.000 C 
ATOM     15  C   UNL     1       6.230   4.529  13.370  0.00  0.00    +0.000 C 
ATOM     16  C   UNL     1       5.930   3.141  12.797  0.00  0.00    +0.000 C 
ENDBRANCH   1  15
BRANCH   5  17
ATOM     17  C   UNL     1       7.742   6.661  17.663  0.00  0.00    +0.000 C 
ATOM     18  C   UNL     1       7.278   8.122  17.653  0.00  0.00    +0.000 C 
ATOM     19  C   UNL     1       8.099   6.216  19.092  0.00  0.00    +0.000 C 
ENDBRANCH   5  17
BRANCH   4  20
ATOM     20  O   UNL     1       5.281   5.179  18.978  0.00  0.00    +0.000 OA
BRANCH  20  21
ATOM     21  C   UNL     1       4.611   6.349  19.416  0.00  0.00    +0.000 C 
BRANCH  21  22
ATOM     22  C   UNL     1       3.085   6.184  19.490  0.00  0.00    +0.000 C 
BRANCH  22  23
ATOM     23  O   UNL     1       2.676   5.633  20.750  0.00  0.00    +0.000 OA
ATOM     24  H   UNL     1       3.454   5.592  21.333  0.00  0.00    +0.000 HD
ENDBRANCH  22  23
BRANCH  22  25
ATOM     25  C   UNL     1       2.393   7.554  19.351  0.00  0.00    +0.000 C 
BRANCH  25  26
ATOM     26  C   UNL     1       1.420   7.886  20.494  0.00  0.00    +0.000 C 
BRANCH  26  27
ATOM     27  O   UNL     1       2.155   8.107  21.697  0.00  0.00    +0.000 OA
ATOM     28  H   UNL     1       2.314   7.251  22.133  0.00  0.00    +0.000 HD
ENDBRANCH  26  27
BRANCH  26  29
ATOM     29  C   UNL     1       0.552   9.110  20.214  0.00  0.00    +0.000 C 
BRANCH  29  30
ATOM     30  C   UNL     1       0.337   9.922  21.464  0.00  0.00    +0.000 C 
ATOM     31  O   UNL     1       0.877  10.994  21.697  0.00  0.00    +0.000 OA
BRANCH  30  32
ATOM     32  O   UNL     1      -0.537   9.348  22.322  0.00  0.00    +0.000 OA
ATOM     33  H   UNL     1      -0.589   8.374  22.256  0.00  0.00    +0.000 HD
ENDBRANCH  30  32
ENDBRANCH  29  30
ENDBRANCH  26  29
ENDBRANCH  25  26
ENDBRANCH  22  25
ENDBRANCH  21  22
ENDBRANCH  20  21
ENDBRANCH   4  20
TORSDOF 13
ENDMDL
MODEL 6
REMARK VINA RESULT:      -6.3      1.348      1.893
REMARK  Name = 
REMARK  17 active torsions:
REMARK  status: ('A' for Active; 'I' for Inactive)
REMARK    1  A    between atoms: C_1  and  C_2
REMARK    2  A    between atoms: C_2  and  C_3
REMARK    3  A    between atoms: C_2  and  C_4
REMARK    4  A    between atoms: C_6  and  C_7
REMARK    5  A    between atoms: C_14  and  O_15
REMARK    6  A    between atoms: O_15  and  C_16
REMARK    7  A    between atoms: C_16  and  C_17
REMARK    8  A    between atoms: C_17  and  O_18
REMARK    9  A    between atoms: C_17  and  C_19
REMARK   10  A    between atoms: C_19  and  C_20
REMARK   11  A    between atoms: C_20  and  O_21
REMARK   12  A    between atoms: C_20  and  C_22
REMARK   13  A    between atoms: C_22  and  C_23
REMARK   14  A    between atoms: C_23  and  O_25
REMARK   15  A    between atoms: C_26  and  C_27
REMARK   16  A    between atoms: C_27  and  C_28
REMARK   17  A    between atoms: C_27  and  C_29
REMARK                            x       y       z     vdW  Elec       q    Type
REMARK                         _______ _______ _______ _____ _____    ______ ____
ROOT
ATOM      1  C   UNL     1       1.887   4.244  20.016  0.00  0.00    +0.000 A 
ATOM      2  C   UNL     1       1.509   5.353  20.776  0.00  0.00    +0.000 A 
ATOM      3  C   UNL     1       1.767   6.686  20.377  0.00  0.00    +0.000 A 
ATOM      4  C   UNL     1       2.536   6.885  19.185  0.00  0.00    +0.000 A 
ATOM      5  C   UNL     1       3.008   5.769  18.429  0.00  0.00    +0.000 A 
ATOM      6  C   UNL     1       2.642   4.471  18.868  0.00  0.00    +0.000 A 
ENDROOT
BRANCH   3   7
ATOM      7  C   UNL     1       1.128   7.787  21.177  0.00  0.00    +0.000 A 
ATOM      8  C   UNL     1       1.859   8.760  21.884  0.00  0.00    +0.000 A 
ATOM      9  C   UNL     1       1.223   9.797  22.581  0.00  0.00    +0.000 A 
ATOM     10  C   UNL     1      -0.161   9.856  22.619  0.00  0.00    +0.000 A 
ATOM     11  F   UNL     1      -0.769  10.842  23.292  0.00  0.00    +0.000 F 
ATOM     12  C   UNL     1      -0.923   8.907  21.961  0.00  0.00    +0.000 A 
ATOM     13  C   UNL     1      -0.283   7.896  21.237  0.00  0.00    +0.000 A 
ENDBRANCH   3   7
BRANCH   1  15
ATOM     14  C   UNL     1       1.858   1.857  19.352  0.00  0.00    +0.000 C 
ATOM     15  C   UNL     1       1.348   2.872  20.382  0.00  0.00    +0.000 C 
ATOM     16  C   UNL     1       1.687   2.405  21.800  0.00  0.00    +0.000 C 
ENDBRANCH   1  15
BRANCH   5  17
ATOM     17  C   UNL     1       3.860   5.805  17.166  0.00  0.00    +0.000 C 
ATOM     18  C   UNL     1       5.115   6.674  17.318  0.00  0.00    +0.000 C 
ATOM     19  C   UNL     1       4.237   4.389  16.697  0.00  0.00    +0.000 C 
ENDBRANCH   5  17
BRANCH   4  20
ATOM     20  O   UNL     1       2.785   8.213  18.905  0.00  0.00    +0.000 OA
BRANCH  20  21
ATOM     21  C   UNL     1       1.976   8.876  17.948  0.00  0.00    +0.000 C 
BRANCH  21  22
ATOM     22  C   UNL     1       1.426  10.222  18.445  0.00  0.00    +0.000 C 
BRANCH  22  23
ATOM     23  O   UNL     1       1.947  11.318  17.678  0.00  0.00    +0.000 OA
ATOM     24  H   UNL     1       2.885  11.432  17.905  0.00  0.00    +0.000 HD
ENDBRANCH  22  23
BRANCH  22  25
ATOM     25  C   UNL     1      -0.108  10.259  18.300  0.00  0.00    +0.000 C 
BRANCH  25  26
ATOM     26  C   UNL     1      -0.810  11.211  19.280  0.00  0.00    +0.000 C 
BRANCH  26  27
ATOM     27  O   UNL     1       0.116  12.202  19.728  0.00  0.00    +0.000 OA
ATOM     28  H   UNL     1      -0.302  13.078  19.663  0.00  0.00    +0.000 HD
ENDBRANCH  26  27
BRANCH  26  29
ATOM     29  C   UNL     1      -2.027  11.910  18.678  0.00  0.00    +0.000 C 
BRANCH  29  30
ATOM     30  C   UNL     1      -3.018  12.293  19.746  0.00  0.00    +0.000 C 
ATOM     31  O   UNL     1      -4.211  12.473  19.553  0.00  0.00    +0.000 OA
BRANCH  30  32
ATOM     32  O   UNL     1      -2.454  12.412  20.970  0.00  0.00    +0.000 OA
ATOM     33  H   UNL     1      -3.008  12.083  21.705  0.00  0.00    +0.000 HD
ENDBRANCH  30  32
ENDBRANCH  29  30
ENDBRANCH  26  29
ENDBRANCH  25  26
ENDBRANCH  22  25
ENDBRANCH  21  22
ENDBRANCH  20  21
ENDBRANCH   4  20
TORSDOF 13
ENDMDL
MODEL 7
REMARK VINA RESULT:      -6.3      1.660      2.164
REMARK  Name = 
REMARK  17 active torsions:
REMARK  status: ('A' for Active; 'I' for Inactive)
REMARK    1  A    between atoms: C_1  and  C_2
REMARK    2  A    between atoms: C_2  and  C_3
REMARK    3  A    between atoms: C_2  and  C_4
REMARK    4  A    between atoms: C_6  and  C_7
REMARK    5  A    between atoms: C_14  and  O_15
REMARK    6  A    between atoms: O_15  and  C_16
REMARK    7  A    between atoms: C_16  and  C_17
REMARK    8  A    between atoms: C_17  and  O_18
REMARK    9  A    between atoms: C_17  and  C_19
REMARK   10  A    between atoms: C_19  and  C_20
REMARK   11  A    between atoms: C_20  and  O_21
REMARK   12  A    between atoms: C_20  and  C_22
REMARK   13  A    between atoms: C_22  and  C_23
REMARK   14  A    between atoms: C_23  and  O_25
REMARK   15  A    between atoms: C_26  and  C_27
REMARK   16  A    between atoms: C_27  and  C_28
REMARK   17  A    between atoms: C_27  and  C_29
REMARK                            x       y       z     vdW  Elec       q    Type
REMARK                         _______ _______ _______ _____ _____    ______ ____
ROOT
ATOM      1  C   UNL     1       2.589   4.270  20.056  0.00  0.00    +0.000 A 
ATOM      2  C   UNL     1       2.043   5.322  20.795  0.00  0.00    +0.000 A 
ATOM      3  C   UNL     1       2.028   6.660  20.336  0.00  0.00    +0.000 A 
ATOM      4  C   UNL     1       2.693   6.946  19.099  0.00  0.00    +0.000 A 
ATOM      5  C   UNL     1       3.332   5.904  18.360  0.00  0.00    +0.000 A 
ATOM      6  C   UNL     1       3.236   4.582  18.863  0.00  0.00    +0.000 A 
ENDROOT
BRANCH   3   7
ATOM      7  C   UNL     1       1.230   7.658  21.128  0.00  0.00    +0.000 A 
ATOM      8  C   UNL     1       1.797   8.537  22.069  0.00  0.00    +0.000 A 
ATOM      9  C   UNL     1       1.022   9.484  22.755  0.00  0.00    +0.000 A 
ATOM     10  C   UNL     1      -0.346   9.541  22.541  0.00  0.00    +0.000 A 
ATOM     11  F   UNL     1      -1.088  10.439  23.201  0.00  0.00    +0.000 F 
ATOM     12  C   UNL     1      -0.954   8.680  21.644  0.00  0.00    +0.000 A 
ATOM     13  C   UNL     1      -0.170   7.763  20.936  0.00  0.00    +0.000 A 
ENDBRANCH   3   7
BRANCH   1  15
ATOM     14  C   UNL     1       1.360   2.862  21.682  0.00  0.00    +0.000 C 
ATOM     15  C   UNL     1       2.334   2.840  20.498  0.00  0.00    +0.000 C 
ATOM     16  C   UNL     1       1.812   1.910  19.400  0.00  0.00    +0.000 C 
ENDBRANCH   1  15
BRANCH   5  17
ATOM     17  C   UNL     1       4.106   6.042  17.054  0.00  0.00    +0.000 C 
ATOM     18  C   UNL     1       5.364   6.907  17.195  0.00  0.00    +0.000 C 
ATOM     19  C   UNL     1       4.459   4.668  16.458  0.00  0.00    +0.000 C 
ENDBRANCH   5  17
BRANCH   4  20
ATOM     20  O   UNL     1       2.675   8.284  18.759  0.00  0.00    +0.000 OA
BRANCH  20  21
ATOM     21  C   UNL     1       1.920   8.695  17.633  0.00  0.00    +0.000 C 
BRANCH  21  22
ATOM     22  C   UNL     1       1.241  10.061  17.822  0.00  0.00    +0.000 C 
BRANCH  22  23
ATOM     23  O   UNL     1      -0.189   9.946  17.793  0.00  0.00    +0.000 OA
ATOM     24  H   UNL     1      -0.528  10.125  18.687  0.00  0.00    +0.000 HD
ENDBRANCH  22  23
BRANCH  22  25
ATOM     25  C   UNL     1       1.618  10.660  19.191  0.00  0.00    +0.000 C 
BRANCH  25  26
ATOM     26  C   UNL     1       1.272  12.149  19.343  0.00  0.00    +0.000 C 
BRANCH  26  27
ATOM     27  O   UNL     1       0.655  12.620  18.144  0.00  0.00    +0.000 OA
ATOM     28  H   UNL     1      -0.311  12.547  18.236  0.00  0.00    +0.000 HD
ENDBRANCH  26  27
BRANCH  26  29
ATOM     29  C   UNL     1       0.344  12.438  20.521  0.00  0.00    +0.000 C 
BRANCH  29  30
ATOM     30  C   UNL     1      -1.062  12.707  20.053  0.00  0.00    +0.000 C 
ATOM     31  O   UNL     1      -1.558  13.820  19.951  0.00  0.00    +0.000 OA
BRANCH  30  32
ATOM     32  O   UNL     1      -1.739  11.579  19.740  0.00  0.00    +0.000 OA
ATOM     33  H   UNL     1      -1.328  10.756  20.068  0.00  0.00    +0.000 HD
ENDBRANCH  30  32
ENDBRANCH  29  30
ENDBRANCH  26  29
ENDBRANCH  25  26
ENDBRANCH  22  25
ENDBRANCH  21  22
ENDBRANCH  20  21
ENDBRANCH   4  20
TORSDOF 13
ENDMDL
MODEL 8
REMARK VINA RESULT:      -6.3      3.015      5.135
REMARK  Name = 
REMARK  17 active torsions:
REMARK  status: ('A' for Active; 'I' for Inactive)
REMARK    1  A    between atoms: C_1  and  C_2
REMARK    2  A    between atoms: C_2  and  C_3
REMARK    3  A    between atoms: C_2  and  C_4
REMARK    4  A    between atoms: C_6  and  C_7
REMARK    5  A    between atoms: C_14  and  O_15
REMARK    6  A    between atoms: O_15  and  C_16
REMARK    7  A    between atoms: C_16  and  C_17
REMARK    8  A    between atoms: C_17  and  O_18
REMARK    9  A    between atoms: C_17  and  C_19
REMARK   10  A    between atoms: C_19  and  C_20
REMARK   11  A    between atoms: C_20  and  O_21
REMARK   12  A    between atoms: C_20  and  C_22
REMARK   13  A    between atoms: C_22  and  C_23
REMARK   14  A    between atoms: C_23  and  O_25
REMARK   15  A    between atoms: C_26  and  C_27
REMARK   16  A    between atoms: C_27  and  C_28
REMARK   17  A    between atoms: C_27  and  C_29
REMARK                            x       y       z     vdW  Elec       q    Type
REMARK                         _______ _______ _______ _____ _____    ______ ____
ROOT
ATOM      1  C   UNL     1       3.646   7.018  17.618  0.00  0.00    +0.000 A 
ATOM      2  C   UNL     1       2.901   8.199  17.593  0.00  0.00    +0.000 A 
ATOM      3  C   UNL     1       1.982   8.552  18.609  0.00  0.00    +0.000 A 
ATOM      4  C   UNL     1       1.747   7.599  19.653  0.00  0.00    +0.000 A 
ATOM      5  C   UNL     1       2.433   6.347  19.662  0.00  0.00    +0.000 A 
ATOM      6  C   UNL     1       3.388   6.109  18.641  0.00  0.00    +0.000 A 
ENDROOT
BRANCH   3   7
ATOM      7  C   UNL     1       1.401   9.938  18.569  0.00  0.00    +0.000 A 
ATOM      8  C   UNL     1       2.176  11.109  18.672  0.00  0.00    +0.000 A 
ATOM      9  C   UNL     1       1.599  12.385  18.585  0.00  0.00    +0.000 A 
ATOM     10  C   UNL     1       0.228  12.513  18.435  0.00  0.00    +0.000 A 
ATOM     11  F   UNL     1      -0.325  13.731  18.361  0.00  0.00    +0.000 F 
ATOM     12  C   UNL     1      -0.579  11.391  18.355  0.00  0.00    +0.000 A 
ATOM     13  C   UNL     1       0.007  10.122  18.406  0.00  0.00    +0.000 A 
ENDBRANCH   3   7
BRANCH   1  15
ATOM     14  C   UNL     1       6.092   7.280  17.316  0.00  0.00    +0.000 C 
ATOM     15  C   UNL     1       4.790   6.839  16.635  0.00  0.00    +0.000 C 
ATOM     16  C   UNL     1       4.940   5.423  16.073  0.00  0.00    +0.000 C 
ENDBRANCH   1  15
BRANCH   5  17
ATOM     17  C   UNL     1       2.276   5.217  20.673  0.00  0.00    +0.000 C 
ATOM     18  C   UNL     1       0.932   4.489  20.549  0.00  0.00    +0.000 C 
ATOM     19  C   UNL     1       3.442   4.216  20.589  0.00  0.00    +0.000 C 
ENDBRANCH   5  17
BRANCH   4  20
ATOM     20  O   UNL     1       0.795   8.005  20.567  0.00  0.00    +0.000 OA
BRANCH  20  21
ATOM     21  C   UNL     1       1.218   8.645  21.759  0.00  0.00    +0.000 C 
BRANCH  21  22
ATOM     22  C   UNL     1       0.054   9.184  22.605  0.00  0.00    +0.000 C 
BRANCH  22  23
ATOM     23  O   UNL     1       0.501   9.615  23.900  0.00  0.00    +0.000 OA
ATOM     24  H   UNL     1       1.437   9.371  23.996  0.00  0.00    +0.000 HD
ENDBRANCH  22  23
BRANCH  22  25
ATOM     25  C   UNL     1      -0.583  10.408  21.918  0.00  0.00    +0.000 C 
BRANCH  25  26
ATOM     26  C   UNL     1      -1.151  11.451  22.893  0.00  0.00    +0.000 C 
BRANCH  26  27
ATOM     27  O   UNL     1      -0.228  12.531  23.027  0.00  0.00    +0.000 OA
ATOM     28  H   UNL     1       0.516  12.244  23.586  0.00  0.00    +0.000 HD
ENDBRANCH  26  27
BRANCH  26  29
ATOM     29  C   UNL     1      -2.505  12.010  22.460  0.00  0.00    +0.000 C 
BRANCH  29  30
ATOM     30  C   UNL     1      -3.265  12.565  23.637  0.00  0.00    +0.000 C 
ATOM     31  O   UNL     1      -4.147  11.969  24.237  0.00  0.00    +0.000 OA
BRANCH  30  32
ATOM     32  O   UNL     1      -2.867  13.811  23.981  0.00  0.00    +0.000 OA
ATOM     33  H   UNL     1      -3.052  14.053  24.910  0.00  0.00    +0.000 HD
ENDBRANCH  30  32
ENDBRANCH  29  30
ENDBRANCH  26  29
ENDBRANCH  25  26
ENDBRANCH  22  25
ENDBRANCH  21  22
ENDBRANCH  20  21
ENDBRANCH   4  20
TORSDOF 13
ENDMDL
MODEL 9
REMARK VINA RESULT:      -6.3      1.396      2.372
REMARK  Name = 
REMARK  17 active torsions:
REMARK  status: ('A' for Active; 'I' for Inactive)
REMARK    1  A    between atoms: C_1  and  C_2
REMARK    2  A    between atoms: C_2  and  C_3
REMARK    3  A    between atoms: C_2  and  C_4
REMARK    4  A    between atoms: C_6  and  C_7
REMARK    5  A    between atoms: C_14  and  O_15
REMARK    6  A    between atoms: O_15  and  C_16
REMARK    7  A    between atoms: C_16  and  C_17
REMARK    8  A    between atoms: C_17  and  O_18
REMARK    9  A    between atoms: C_17  and  C_19
REMARK   10  A    between atoms: C_19  and  C_20
REMARK   11  A    between atoms: C_20  and  O_21
REMARK   12  A    between atoms: C_20  and  C_22
REMARK   13  A    between atoms: C_22  and  C_23
REMARK   14  A    between atoms: C_23  and  O_25
REMARK   15  A    between atoms: C_26  and  C_27
REMARK   16  A    between atoms: C_27  and  C_28
REMARK   17  A    between atoms: C_27  and  C_29
REMARK                            x       y       z     vdW  Elec       q    Type
REMARK                         _______ _______ _______ _____ _____    ______ ____
ROOT
ATOM      1  C   UNL     1       2.543   4.213  19.872  0.00  0.00    +0.000 A 
ATOM      2  C   UNL     1       2.033   5.272  20.628  0.00  0.00    +0.000 A 
ATOM      3  C   UNL     1       2.090   6.620  20.202  0.00  0.00    +0.000 A 
ATOM      4  C   UNL     1       2.790   6.903  18.985  0.00  0.00    +0.000 A 
ATOM      5  C   UNL     1       3.393   5.851  18.231  0.00  0.00    +0.000 A 
ATOM      6  C   UNL     1       3.225   4.522  18.699  0.00  0.00    +0.000 A 
ENDROOT
BRANCH   3   7
ATOM      7  C   UNL     1       1.326   7.635  21.006  0.00  0.00    +0.000 A 
ATOM      8  C   UNL     1       1.937   8.582  21.848  0.00  0.00    +0.000 A 
ATOM      9  C   UNL     1       1.189   9.541  22.546  0.00  0.00    +0.000 A 
ATOM     10  C   UNL     1      -0.193   9.544  22.447  0.00  0.00    +0.000 A 
ATOM     11  F   UNL     1      -0.909  10.454  23.119  0.00  0.00    +0.000 F 
ATOM     12  C   UNL     1      -0.842   8.615  21.651  0.00  0.00    +0.000 A 
ATOM     13  C   UNL     1      -0.088   7.685  20.929  0.00  0.00    +0.000 A 
ENDBRANCH   3   7
BRANCH   1  15
ATOM     14  C   UNL     1       1.361   2.823  21.549  0.00  0.00    +0.000 C 
ATOM     15  C   UNL     1       2.212   2.786  20.274  0.00  0.00    +0.000 C 
ATOM     16  C   UNL     1       1.511   1.959  19.192  0.00  0.00    +0.000 C 
ENDBRANCH   1  15
BRANCH   5  17
ATOM     17  C   UNL     1       4.195   5.983  16.942  0.00  0.00    +0.000 C 
ATOM     18  C   UNL     1       5.442   6.861  17.104  0.00  0.00    +0.000 C 
ATOM     19  C   UNL     1       4.574   4.607  16.367  0.00  0.00    +0.000 C 
ENDBRANCH   5  17
BRANCH   4  20
ATOM     20  O   UNL     1       2.842   8.248  18.679  0.00  0.00    +0.000 OA
BRANCH  20  21
ATOM     21  C   UNL     1       1.760   8.834  17.973  0.00  0.00    +0.000 C 
BRANCH  21  22
ATOM     22  C   UNL     1       1.466  10.280  18.402  0.00  0.00    +0.000 C 
BRANCH  22  23
ATOM     23  O   UNL     1       2.123  11.226  17.547  0.00  0.00    +0.000 OA
ATOM     24  H   UNL     1       3.079  11.045  17.568  0.00  0.00    +0.000 HD
ENDBRANCH  22  23
BRANCH  22  25
ATOM     25  C   UNL     1      -0.046  10.566  18.314  0.00  0.00    +0.000 C 
BRANCH  25  26
ATOM     26  C   UNL     1      -0.418  12.046  18.495  0.00  0.00    +0.000 C 
BRANCH  26  27
ATOM     27  O   UNL     1      -1.452  12.394  17.575  0.00  0.00    +0.000 OA
ATOM     28  H   UNL     1      -1.576  13.359  17.589  0.00  0.00    +0.000 HD
ENDBRANCH  26  27
BRANCH  26  29
ATOM     29  C   UNL     1      -0.881  12.385  19.910  0.00  0.00    +0.000 C 
BRANCH  29  30
ATOM     30  C   UNL     1       0.149  13.211  20.636  0.00  0.00    +0.000 C 
ATOM     31  O   UNL     1       0.982  12.759  21.408  0.00  0.00    +0.000 OA
BRANCH  30  32
ATOM     32  O   UNL     1       0.070  14.529  20.342  0.00  0.00    +0.000 OA
ATOM     33  H   UNL     1      -0.344  15.075  21.038  0.00  0.00    +0.000 HD
ENDBRANCH  30  32
ENDBRANCH  29  30
ENDBRANCH  26  29
ENDBRANCH  25  26
ENDBRANCH  22  25
ENDBRANCH  21  22
ENDBRANCH  20  21
ENDBRANCH   4  20
TORSDOF 13
ENDMDL
