MODEL 1
REMARK VINA RESULT:      -7.0      0.000      0.000
REMARK  Name = 
REMARK  4 active torsions:
REMARK  status: ('A' for Active; 'I' for Inactive)
REMARK    1  A    between atoms: C_1  and  C_2
REMARK    2  A    between atoms: N_13  and  C_14
REMARK    3  A    between atoms: C_19  and  C_20
REMARK    4  A    between atoms: C_21  and  C_22
REMARK                            x       y       z     vdW  Elec       q    Type
REMARK                         _______ _______ _______ _____ _____    ______ ____
ROOT
ATOM      1  C   UNL     1      11.720  12.007  20.220  0.00  0.00    +0.000 C 
ATOM      2  C   UNL     1      10.957  12.947  19.333  0.00  0.00    +0.000 A 
ATOM      3  N   UNL     1      11.585  13.311  18.191  0.00  0.00    +0.000 NA
ATOM      4  C   UNL     1      10.895  14.110  17.370  0.00  0.00    +0.000 A 
ATOM      5  N   UNL     1       9.662  14.577  17.580  0.00  0.00    +0.000 NA
ATOM      6  C   UNL     1       9.049  14.222  18.731  0.00  0.00    +0.000 A 
ATOM      7  N   UNL     1       7.738  14.633  18.895  0.00  0.00    +0.000 N 
ATOM      8  C   UNL     1       6.937  14.856  17.699  0.00  0.00    +0.000 C 
ATOM      9  C   UNL     1       5.515  14.397  18.035  0.00  0.00    +0.000 C 
ATOM     10  C   UNL     1       4.932  15.108  19.292  0.00  0.00    +0.000 C 
ATOM     11  C   UNL     1       4.634  16.599  19.026  0.00  0.00    +0.000 C 
ATOM     12  C   UNL     1       3.474  16.793  18.049  0.00  0.00    +0.000 C 
ATOM     13  N   UNL     1       2.241  16.112  18.457  0.00  0.00    +0.000 NA
ATOM     14  C   UNL     1       1.595  16.783  19.582  0.00  0.00    +0.000 C 
ATOM     15  C   UNL     1       2.471  14.686  18.726  0.00  0.00    +0.000 C 
ATOM     16  C   UNL     1       3.614  14.413  19.711  0.00  0.00    +0.000 C 
ATOM     17  C   UNL     1       5.957  14.982  20.448  0.00  0.00    +0.000 C 
ATOM     18  C   UNL     1       7.361  15.438  20.049  0.00  0.00    +0.000 C 
ATOM     19  C   UNL     1       9.675  13.380  19.661  0.00  0.00    +0.000 A 
ENDROOT
BRANCH  19  20
ATOM     20  C   UNL     1       9.016  12.920  20.862  0.00  0.00    +0.000 C 
ATOM     21  C   UNL     1       8.444  12.590  21.866  0.00  0.00    +0.000 C 
BRANCH  21  22
ATOM     22  C   UNL     1       7.734  12.278  23.076  0.00  0.00    +0.000 A 
ATOM     23  C   UNL     1       8.401  12.014  24.271  0.00  0.00    +0.000 A 
ATOM     24  C   UNL     1       7.676  11.666  25.412  0.00  0.00    +0.000 A 
ATOM     25  C   UNL     1       6.296  11.590  25.327  0.00  0.00    +0.000 A 
ATOM     26  N   UNL     1       5.542  11.271  26.452  0.00  0.00    +0.000 N 
ATOM     27  N   UNL     1       5.625  11.856  24.196  0.00  0.00    +0.000 NA
ATOM     28  C   UNL     1       6.355  12.193  23.099  0.00  0.00    +0.000 A 
ATOM     29  H   UNL     1       5.853  10.411  26.886  0.00  0.00    +0.000 HD
ATOM     30  H   UNL     1       4.570  11.220  26.157  0.00  0.00    +0.000 HD
ENDBRANCH  21  22
ENDBRANCH  19  20
TORSDOF 2
ENDMDL
MODEL 2
REMARK VINA RESULT:      -6.5      6.293      9.821
REMARK  Name = 
REMARK  4 active torsions:
REMARK  status: ('A' for Active; 'I' for Inactive)
REMARK    1  A    between atoms: C_1  and  C_2
REMARK    2  A    between atoms: N_13  and  C_14
REMARK    3  A    between atoms: C_19  and  C_20
REMARK    4  A    between atoms: C_21  and  C_22
REMARK                            x       y       z     vdW  Elec       q    Type
REMARK                         _______ _______ _______ _____ _____    ______ ____
ROOT
ATOM      1  C   UNL     1      -4.259  12.510  24.616  0.00  0.00    +0.000 C 
ATOM      2  C   UNL     1      -4.023  13.784  23.858  0.00  0.00    +0.000 A 
ATOM      3  N   UNL     1      -4.847  14.810  24.168  0.00  0.00    +0.000 NA
ATOM      4  C   UNL     1      -4.614  15.964  23.534  0.00  0.00    +0.000 A 
ATOM      5  N   UNL     1      -3.657  16.185  22.629  0.00  0.00    +0.000 NA
ATOM      6  C   UNL     1      -2.849  15.149  22.312  0.00  0.00    +0.000 A 
ATOM      7  N   UNL     1      -1.804  15.412  21.445  0.00  0.00    +0.000 N 
ATOM      8  C   UNL     1      -1.274  16.769  21.406  0.00  0.00    +0.000 C 
ATOM      9  C   UNL     1       0.237  16.641  21.194  0.00  0.00    +0.000 C 
ATOM     10  C   UNL     1       0.601  15.815  19.925  0.00  0.00    +0.000 C 
ATOM     11  C   UNL     1       0.251  16.570  18.624  0.00  0.00    +0.000 C 
ATOM     12  C   UNL     1       1.140  17.795  18.409  0.00  0.00    +0.000 C 
ATOM     13  N   UNL     1       2.574  17.492  18.428  0.00  0.00    +0.000 NA
ATOM     14  C   UNL     1       2.999  16.791  17.219  0.00  0.00    +0.000 C 
ATOM     15  C   UNL     1       2.961  16.769  19.647  0.00  0.00    +0.000 C 
ATOM     16  C   UNL     1       2.120  15.517  19.922  0.00  0.00    +0.000 C 
ATOM     17  C   UNL     1      -0.176  14.475  19.970  0.00  0.00    +0.000 C 
ATOM     18  C   UNL     1      -1.675  14.664  20.202  0.00  0.00    +0.000 C 
ATOM     19  C   UNL     1      -2.997  13.895  22.923  0.00  0.00    +0.000 A 
ENDROOT
BRANCH  19  20
ATOM     20  C   UNL     1      -2.100  12.793  22.663  0.00  0.00    +0.000 C 
ATOM     21  C   UNL     1      -1.377  11.871  22.393  0.00  0.00    +0.000 C 
BRANCH  21  22
ATOM     22  C   UNL     1      -0.555  10.762  21.995  0.00  0.00    +0.000 A 
ATOM     23  C   UNL     1      -0.053   9.850  22.923  0.00  0.00    +0.000 A 
ATOM     24  C   UNL     1       0.783   8.816  22.501  0.00  0.00    +0.000 A 
ATOM     25  C   UNL     1       1.098   8.719  21.156  0.00  0.00    +0.000 A 
ATOM     26  N   UNL     1       1.908   7.684  20.699  0.00  0.00    +0.000 N 
ATOM     27  N   UNL     1       0.616   9.570  20.237  0.00  0.00    +0.000 NA
ATOM     28  C   UNL     1      -0.197  10.569  20.674  0.00  0.00    +0.000 A 
ATOM     29  H   UNL     1       2.783   7.635  21.206  0.00  0.00    +0.000 HD
ATOM     30  H   UNL     1       2.051   7.832  19.703  0.00  0.00    +0.000 HD
ENDBRANCH  21  22
ENDBRANCH  19  20
TORSDOF 2
ENDMDL
MODEL 3
REMARK VINA RESULT:      -6.4      1.042      1.091
REMARK  Name = 
REMARK  4 active torsions:
REMARK  status: ('A' for Active; 'I' for Inactive)
REMARK    1  A    between atoms: C_1  and  C_2
REMARK    2  A    between atoms: N_13  and  C_14
REMARK    3  A    between atoms: C_19  and  C_20
REMARK    4  A    between atoms: C_21  and  C_22
REMARK                            x       y       z     vdW  Elec       q    Type
REMARK                         _______ _______ _______ _____ _____    ______ ____
ROOT
ATOM      1  C   UNL     1      10.834  12.441  20.830  0.00  0.00    +0.000 C 
ATOM      2  C   UNL     1      10.087  13.305  19.855  0.00  0.00    +0.000 A 
ATOM      3  N   UNL     1      10.752  13.611  18.718  0.00  0.00    +0.000 NA
ATOM      4  C   UNL     1      10.078  14.339  17.821  0.00  0.00    +0.000 A 
ATOM      5  N   UNL     1       8.828  14.790  17.953  0.00  0.00    +0.000 NA
ATOM      6  C   UNL     1       8.177  14.493  19.101  0.00  0.00    +0.000 A 
ATOM      7  N   UNL     1       6.853  14.883  19.188  0.00  0.00    +0.000 N 
ATOM      8  C   UNL     1       6.095  15.010  17.950  0.00  0.00    +0.000 C 
ATOM      9  C   UNL     1       4.671  14.541  18.260  0.00  0.00    +0.000 C 
ATOM     10  C   UNL     1       4.024  15.315  19.446  0.00  0.00    +0.000 C 
ATOM     11  C   UNL     1       3.705  16.779  19.074  0.00  0.00    +0.000 C 
ATOM     12  C   UNL     1       2.581  16.883  18.042  0.00  0.00    +0.000 C 
ATOM     13  N   UNL     1       1.348  16.200  18.446  0.00  0.00    +0.000 NA
ATOM     14  C   UNL     1       0.643  16.925  19.501  0.00  0.00    +0.000 C 
ATOM     15  C   UNL     1       1.597  14.800  18.814  0.00  0.00    +0.000 C 
ATOM     16  C   UNL     1       2.705  14.617  19.858  0.00  0.00    +0.000 C 
ATOM     17  C   UNL     1       5.004  15.287  20.646  0.00  0.00    +0.000 C 
ATOM     18  C   UNL     1       6.413  15.750  20.272  0.00  0.00    +0.000 C 
ATOM     19  C   UNL     1       8.784  13.727  20.106  0.00  0.00    +0.000 A 
ENDROOT
BRANCH  19  20
ATOM     20  C   UNL     1       8.088  13.328  21.307  0.00  0.00    +0.000 C 
ATOM     21  C   UNL     1       7.536  13.039  22.336  0.00  0.00    +0.000 C 
BRANCH  21  22
ATOM     22  C   UNL     1       6.924  12.755  23.604  0.00  0.00    +0.000 A 
ATOM     23  C   UNL     1       7.304  11.655  24.372  0.00  0.00    +0.000 A 
ATOM     24  C   UNL     1       6.650  11.385  25.575  0.00  0.00    +0.000 A 
ATOM     25  C   UNL     1       5.628  12.226  25.981  0.00  0.00    +0.000 A 
ATOM     26  N   UNL     1       4.973  12.001  27.188  0.00  0.00    +0.000 N 
ATOM     27  N   UNL     1       5.252  13.303  25.273  0.00  0.00    +0.000 NA
ATOM     28  C   UNL     1       5.905  13.543  24.105  0.00  0.00    +0.000 A 
ATOM     29  H   UNL     1       4.615  11.056  27.254  0.00  0.00    +0.000 HD
ATOM     30  H   UNL     1       4.234  12.695  27.263  0.00  0.00    +0.000 HD
ENDBRANCH  21  22
ENDBRANCH  19  20
TORSDOF 2
ENDMDL
MODEL 4
REMARK VINA RESULT:      -6.2      6.725     12.087
REMARK  Name = 
REMARK  4 active torsions:
REMARK  status: ('A' for Active; 'I' for Inactive)
REMARK    1  A    between atoms: C_1  and  C_2
REMARK    2  A    between atoms: N_13  and  C_14
REMARK    3  A    between atoms: C_19  and  C_20
REMARK    4  A    between atoms: C_21  and  C_22
REMARK                            x       y       z     vdW  Elec       q    Type
REMARK                         _______ _______ _______ _____ _____    ______ ____
ROOT
ATOM      1  C   UNL     1      -7.255  11.912  21.428  0.00  0.00    +0.000 C 
ATOM      2  C   UNL     1      -6.187  12.721  22.104  0.00  0.00    +0.000 A 
ATOM      3  N   UNL     1      -6.492  13.173  23.342  0.00  0.00    +0.000 NA
ATOM      4  C   UNL     1      -5.530  13.853  23.973  0.00  0.00    +0.000 A 
ATOM      5  N   UNL     1      -4.314  14.127  23.491  0.00  0.00    +0.000 NA
ATOM      6  C   UNL     1      -4.024  13.686  22.247  0.00  0.00    +0.000 A 
ATOM      7  N   UNL     1      -2.733  13.892  21.795  0.00  0.00    +0.000 N 
ATOM      8  C   UNL     1      -1.669  13.985  22.786  0.00  0.00    +0.000 C 
ATOM      9  C   UNL     1      -0.438  13.315  22.168  0.00  0.00    +0.000 C 
ATOM     10  C   UNL     1      -0.039  13.932  20.795  0.00  0.00    +0.000 C 
ATOM     11  C   UNL     1       0.530  15.360  20.947  0.00  0.00    +0.000 C 
ATOM     12  C   UNL     1       1.888  15.370  21.649  0.00  0.00    +0.000 C 
ATOM     13  N   UNL     1       2.888  14.510  21.007  0.00  0.00    +0.000 NA
ATOM     14  C   UNL     1       3.370  15.078  19.751  0.00  0.00    +0.000 C 
ATOM     15  C   UNL     1       2.394  13.137  20.836  0.00  0.00    +0.000 C 
ATOM     16  C   UNL     1       1.038  13.046  20.125  0.00  0.00    +0.000 C 
ATOM     17  C   UNL     1      -1.295  13.970  19.889  0.00  0.00    +0.000 C 
ATOM     18  C   UNL     1      -2.496  14.634  20.564  0.00  0.00    +0.000 C 
ATOM     19  C   UNL     1      -4.955  12.953  21.497  0.00  0.00    +0.000 A 
ENDROOT
BRANCH  19  20
ATOM     20  C   UNL     1      -4.647  12.402  20.198  0.00  0.00    +0.000 C 
ATOM     21  C   UNL     1      -4.336  11.932  19.136  0.00  0.00    +0.000 C 
BRANCH  21  22
ATOM     22  C   UNL     1      -3.883  11.365  17.896  0.00  0.00    +0.000 A 
ATOM     23  C   UNL     1      -2.720  10.600  17.820  0.00  0.00    +0.000 A 
ATOM     24  C   UNL     1      -2.288  10.108  16.587  0.00  0.00    +0.000 A 
ATOM     25  C   UNL     1      -3.033  10.397  15.456  0.00  0.00    +0.000 A 
ATOM     26  N   UNL     1      -2.644   9.900  14.216  0.00  0.00    +0.000 N 
ATOM     27  N   UNL     1      -4.166  11.115  15.500  0.00  0.00    +0.000 NA
ATOM     28  C   UNL     1      -4.565  11.582  16.714  0.00  0.00    +0.000 A 
ATOM     29  H   UNL     1      -1.683  10.135  13.998  0.00  0.00    +0.000 HD
ATOM     30  H   UNL     1      -3.293  10.271  13.527  0.00  0.00    +0.000 HD
ENDBRANCH  21  22
ENDBRANCH  19  20
TORSDOF 2
ENDMDL
MODEL 5
REMARK VINA RESULT:      -6.2      7.582     13.258
REMARK  Name = 
REMARK  4 active torsions:
REMARK  status: ('A' for Active; 'I' for Inactive)
REMARK    1  A    between atoms: C_1  and  C_2
REMARK    2  A    between atoms: N_13  and  C_14
REMARK    3  A    between atoms: C_19  and  C_20
REMARK    4  A    between atoms: C_21  and  C_22
REMARK                            x       y       z     vdW  Elec       q    Type
REMARK                         _______ _______ _______ _____ _____    ______ ____
ROOT
ATOM      1  C   UNL     1      -7.909  12.928  23.026  0.00  0.00    +0.000 C 
ATOM      2  C   UNL     1      -6.464  12.765  23.400  0.00  0.00    +0.000 A 
ATOM      3  N   UNL     1      -6.233  12.292  24.646  0.00  0.00    +0.000 NA
ATOM      4  C   UNL     1      -4.951  12.098  24.973  0.00  0.00    +0.000 A 
ATOM      5  N   UNL     1      -3.895  12.333  24.189  0.00  0.00    +0.000 NA
ATOM      6  C   UNL     1      -4.135  12.822  22.951  0.00  0.00    +0.000 A 
ATOM      7  N   UNL     1      -3.043  12.973  22.116  0.00  0.00    +0.000 N 
ATOM      8  C   UNL     1      -1.894  12.104  22.330  0.00  0.00    +0.000 C 
ATOM      9  C   UNL     1      -1.325  11.784  20.944  0.00  0.00    +0.000 C 
ATOM     10  C   UNL     1      -0.972  13.061  20.126  0.00  0.00    +0.000 C 
ATOM     11  C   UNL     1       0.252  13.801  20.709  0.00  0.00    +0.000 C 
ATOM     12  C   UNL     1       1.546  13.006  20.534  0.00  0.00    +0.000 C 
ATOM     13  N   UNL     1       1.820  12.625  19.145  0.00  0.00    +0.000 NA
ATOM     14  C   UNL     1       2.243  13.769  18.340  0.00  0.00    +0.000 C 
ATOM     15  C   UNL     1       0.682  11.919  18.540  0.00  0.00    +0.000 C 
ATOM     16  C   UNL     1      -0.652  12.664  18.664  0.00  0.00    +0.000 C 
ATOM     17  C   UNL     1      -2.200  14.006  20.133  0.00  0.00    +0.000 C 
ATOM     18  C   UNL     1      -2.734  14.275  21.541  0.00  0.00    +0.000 C 
ATOM     19  C   UNL     1      -5.442  13.055  22.500  0.00  0.00    +0.000 A 
ENDROOT
BRANCH  19  20
ATOM     20  C   UNL     1      -5.733  13.502  21.157  0.00  0.00    +0.000 C 
ATOM     21  C   UNL     1      -6.017  13.909  20.062  0.00  0.00    +0.000 C 
BRANCH  21  22
ATOM     22  C   UNL     1      -6.421  14.440  18.790  0.00  0.00    +0.000 A 
ATOM     23  C   UNL     1      -6.677  13.614  17.697  0.00  0.00    +0.000 A 
ATOM     24  C   UNL     1      -7.018  14.173  16.465  0.00  0.00    +0.000 A 
ATOM     25  C   UNL     1      -7.094  15.551  16.356  0.00  0.00    +0.000 A 
ATOM     26  N   UNL     1      -7.457  16.140  15.149  0.00  0.00    +0.000 N 
ATOM     27  N   UNL     1      -6.871  16.372  17.394  0.00  0.00    +0.000 NA
ATOM     28  C   UNL     1      -6.540  15.802  18.584  0.00  0.00    +0.000 A 
ATOM     29  H   UNL     1      -6.878  15.820  14.382  0.00  0.00    +0.000 HD
ATOM     30  H   UNL     1      -7.399  17.147  15.277  0.00  0.00    +0.000 HD
ENDBRANCH  21  22
ENDBRANCH  19  20
TORSDOF 2
ENDMDL
MODEL 6
REMARK VINA RESULT:      -6.1      5.692     10.799
REMARK  Name = 
REMARK  4 active torsions:
REMARK  status: ('A' for Active; 'I' for Inactive)
REMARK    1  A    between atoms: C_1  and  C_2
REMARK    2  A    between atoms: N_13  and  C_14
REMARK    3  A    between atoms: C_19  and  C_20
REMARK    4  A    between atoms: C_21  and  C_22
REMARK                            x       y       z     vdW  Elec       q    Type
REMARK                         _______ _______ _______ _____ _____    ______ ____
ROOT
ATOM      1  C   UNL     1      -4.751  12.651  23.778  0.00  0.00    +0.000 C 
ATOM      2  C   UNL     1      -3.578  13.589  23.803  0.00  0.00    +0.000 A 
ATOM      3  N   UNL     1      -3.332  14.184  24.993  0.00  0.00    +0.000 NA
ATOM      4  C   UNL     1      -2.262  14.984  25.040  0.00  0.00    +0.000 A 
ATOM      5  N   UNL     1      -1.431  15.247  24.027  0.00  0.00    +0.000 NA
ATOM      6  C   UNL     1      -1.695  14.661  22.838  0.00  0.00    +0.000 A 
ATOM      7  N   UNL     1      -0.777  14.864  21.823  0.00  0.00    +0.000 N 
ATOM      8  C   UNL     1       0.605  15.134  22.195  0.00  0.00    +0.000 C 
ATOM      9  C   UNL     1       1.482  14.446  21.145  0.00  0.00    +0.000 C 
ATOM     10  C   UNL     1       1.150  14.896  19.692  0.00  0.00    +0.000 C 
ATOM     11  C   UNL     1       1.580  16.355  19.427  0.00  0.00    +0.000 C 
ATOM     12  C   UNL     1       3.101  16.518  19.416  0.00  0.00    +0.000 C 
ATOM     13  N   UNL     1       3.780  15.627  18.470  0.00  0.00    +0.000 NA
ATOM     14  C   UNL     1       3.580  16.048  17.086  0.00  0.00    +0.000 C 
ATOM     15  C   UNL     1       3.403  14.223  18.678  0.00  0.00    +0.000 C 
ATOM     16  C   UNL     1       1.889  13.979  18.687  0.00  0.00    +0.000 C 
ATOM     17  C   UNL     1      -0.377  14.758  19.470  0.00  0.00    +0.000 C 
ATOM     18  C   UNL     1      -1.201  15.450  20.558  0.00  0.00    +0.000 C 
ATOM     19  C   UNL     1      -2.786  13.796  22.677  0.00  0.00    +0.000 A 
ENDROOT
BRANCH  19  20
ATOM     20  C   UNL     1      -3.048  13.094  21.441  0.00  0.00    +0.000 C 
ATOM     21  C   UNL     1      -3.239  12.554  20.384  0.00  0.00    +0.000 C 
BRANCH  21  22
ATOM     22  C   UNL     1      -3.436  11.980  19.082  0.00  0.00    +0.000 A 
ATOM     23  C   UNL     1      -2.364  11.667  18.248  0.00  0.00    +0.000 A 
ATOM     24  C   UNL     1      -2.601  11.156  16.971  0.00  0.00    +0.000 A 
ATOM     25  C   UNL     1      -3.910  10.971  16.558  0.00  0.00    +0.000 A 
ATOM     26  N   UNL     1      -4.179  10.440  15.301  0.00  0.00    +0.000 N 
ATOM     27  N   UNL     1      -4.962  11.246  17.345  0.00  0.00    +0.000 NA
ATOM     28  C   UNL     1      -4.704  11.742  18.585  0.00  0.00    +0.000 A 
ATOM     29  H   UNL     1      -3.712  10.954  14.564  0.00  0.00    +0.000 HD
ATOM     30  H   UNL     1      -5.189  10.439  15.186  0.00  0.00    +0.000 HD
ENDBRANCH  21  22
ENDBRANCH  19  20
TORSDOF 2
ENDMDL
MODEL 7
REMARK VINA RESULT:      -6.1      7.297     12.671
REMARK  Name = 
REMARK  4 active torsions:
REMARK  status: ('A' for Active; 'I' for Inactive)
REMARK    1  A    between atoms: C_1  and  C_2
REMARK    2  A    between atoms: N_13  and  C_14
REMARK    3  A    between atoms: C_19  and  C_20
REMARK    4  A    between atoms: C_21  and  C_22
REMARK                            x       y       z     vdW  Elec       q    Type
REMARK                         _______ _______ _______ _____ _____    ______ ____
ROOT
ATOM      1  C   UNL     1      -7.885  11.333  21.267  0.00  0.00    +0.000 C 
ATOM      2  C   UNL     1      -7.001  12.242  22.071  0.00  0.00    +0.000 A 
ATOM      3  N   UNL     1      -7.466  12.572  23.297  0.00  0.00    +0.000 NA
ATOM      4  C   UNL     1      -6.665  13.342  24.042  0.00  0.00    +0.000 A 
ATOM      5  N   UNL     1      -5.468  13.811  23.681  0.00  0.00    +0.000 NA
ATOM      6  C   UNL     1      -5.019  13.490  22.447  0.00  0.00    +0.000 A 
ATOM      7  N   UNL     1      -3.740  13.901  22.120  0.00  0.00    +0.000 N 
ATOM      8  C   UNL     1      -2.782  14.083  23.202  0.00  0.00    +0.000 C 
ATOM      9  C   UNL     1      -1.422  13.630  22.663  0.00  0.00    +0.000 C 
ATOM     10  C   UNL     1      -1.009  14.377  21.361  0.00  0.00    +0.000 C 
ATOM     11  C   UNL     1      -0.666  15.859  21.629  0.00  0.00    +0.000 C 
ATOM     12  C   UNL     1       0.617  16.017  22.446  0.00  0.00    +0.000 C 
ATOM     13  N   UNL     1       1.778  15.345  21.853  0.00  0.00    +0.000 NA
ATOM     14  C   UNL     1       2.271  16.048  20.672  0.00  0.00    +0.000 C 
ATOM     15  C   UNL     1       1.502  13.929  21.575  0.00  0.00    +0.000 C 
ATOM     16  C   UNL     1       0.235  13.692  20.746  0.00  0.00    +0.000 C 
ATOM     17  C   UNL     1      -2.182  14.293  20.351  0.00  0.00    +0.000 C 
ATOM     18  C   UNL     1      -3.516  14.741  20.951  0.00  0.00    +0.000 C 
ATOM     19  C   UNL     1      -5.772  12.680  21.585  0.00  0.00    +0.000 A 
ENDROOT
BRANCH  19  20
ATOM     20  C   UNL     1      -5.286  12.255  20.293  0.00  0.00    +0.000 C 
ATOM     21  C   UNL     1      -4.848  11.862  19.245  0.00  0.00    +0.000 C 
BRANCH  21  22
ATOM     22  C   UNL     1      -4.273  11.338  18.037  0.00  0.00    +0.000 A 
ATOM     23  C   UNL     1      -3.125  10.547  18.052  0.00  0.00    +0.000 A 
ATOM     24  C   UNL     1      -2.570  10.100  16.853  0.00  0.00    +0.000 A 
ATOM     25  C   UNL     1      -3.180  10.457  15.662  0.00  0.00    +0.000 A 
ATOM     26  N   UNL     1      -2.667  10.006  14.450  0.00  0.00    +0.000 N 
ATOM     27  N   UNL     1      -4.296  11.201  15.615  0.00  0.00    +0.000 NA
ATOM     28  C   UNL     1      -4.816  11.624  16.798  0.00  0.00    +0.000 A 
ATOM     29  H   UNL     1      -1.683  10.225  14.349  0.00  0.00    +0.000 HD
ATOM     30  H   UNL     1      -3.229  10.424  13.712  0.00  0.00    +0.000 HD
ENDBRANCH  21  22
ENDBRANCH  19  20
TORSDOF 2
ENDMDL
MODEL 8
REMARK VINA RESULT:      -6.0      6.284     11.185
REMARK  Name = 
REMARK  4 active torsions:
REMARK  status: ('A' for Active; 'I' for Inactive)
REMARK    1  A    between atoms: C_1  and  C_2
REMARK    2  A    between atoms: N_13  and  C_14
REMARK    3  A    between atoms: C_19  and  C_20
REMARK    4  A    between atoms: C_21  and  C_22
REMARK                            x       y       z     vdW  Elec       q    Type
REMARK                         _______ _______ _______ _____ _____    ______ ____
ROOT
ATOM      1  C   UNL     1      -3.469  10.317  17.181  0.00  0.00    +0.000 C 
ATOM      2  C   UNL     1      -4.241  11.029  18.253  0.00  0.00    +0.000 A 
ATOM      3  N   UNL     1      -5.544  10.680  18.363  0.00  0.00    +0.000 NA
ATOM      4  C   UNL     1      -6.230  11.272  19.346  0.00  0.00    +0.000 A 
ATOM      5  N   UNL     1      -5.749  12.169  20.212  0.00  0.00    +0.000 NA
ATOM      6  C   UNL     1      -4.451  12.523  20.084  0.00  0.00    +0.000 A 
ATOM      7  N   UNL     1      -3.939  13.380  21.042  0.00  0.00    +0.000 N 
ATOM      8  C   UNL     1      -4.549  13.368  22.365  0.00  0.00    +0.000 C 
ATOM      9  C   UNL     1      -3.415  13.586  23.370  0.00  0.00    +0.000 C 
ATOM     10  C   UNL     1      -2.601  14.884  23.092  0.00  0.00    +0.000 C 
ATOM     11  C   UNL     1      -3.422  16.156  23.396  0.00  0.00    +0.000 C 
ATOM     12  C   UNL     1      -3.693  16.326  24.891  0.00  0.00    +0.000 C 
ATOM     13  N   UNL     1      -2.479  16.318  25.714  0.00  0.00    +0.000 NA
ATOM     14  C   UNL     1      -1.712  17.552  25.565  0.00  0.00    +0.000 C 
ATOM     15  C   UNL     1      -1.659  15.127  25.460  0.00  0.00    +0.000 C 
ATOM     16  C   UNL     1      -1.333  14.898  23.980  0.00  0.00    +0.000 C 
ATOM     17  C   UNL     1      -2.174  14.888  21.603  0.00  0.00    +0.000 C 
ATOM     18  C   UNL     1      -3.344  14.650  20.648  0.00  0.00    +0.000 C 
ATOM     19  C   UNL     1      -3.635  11.959  19.093  0.00  0.00    +0.000 A 
ENDROOT
BRANCH  19  20
ATOM     20  C   UNL     1      -2.226  12.259  18.982  0.00  0.00    +0.000 C 
ATOM     21  C   UNL     1      -1.068  12.561  18.867  0.00  0.00    +0.000 C 
BRANCH  21  22
ATOM     22  C   UNL     1       0.290  12.995  18.692  0.00  0.00    +0.000 A 
ATOM     23  C   UNL     1       0.647  14.340  18.776  0.00  0.00    +0.000 A 
ATOM     24  C   UNL     1       1.970  14.726  18.549  0.00  0.00    +0.000 A 
ATOM     25  C   UNL     1       2.905  13.752  18.243  0.00  0.00    +0.000 A 
ATOM     26  N   UNL     1       4.236  14.100  18.037  0.00  0.00    +0.000 N 
ATOM     27  N   UNL     1       2.595  12.448  18.173  0.00  0.00    +0.000 NA
ATOM     28  C   UNL     1       1.300  12.099  18.398  0.00  0.00    +0.000 A 
ATOM     29  H   UNL     1       4.335  14.826  17.339  0.00  0.00    +0.000 HD
ATOM     30  H   UNL     1       4.731  13.250  17.777  0.00  0.00    +0.000 HD
ENDBRANCH  21  22
ENDBRANCH  19  20
TORSDOF 2
ENDMDL
MODEL 9
REMARK VINA RESULT:      -6.0      4.695      9.104
REMARK  Name = 
REMARK  4 active torsions:
REMARK  status: ('A' for Active; 'I' for Inactive)
REMARK    1  A    between atoms: C_1  and  C_2
REMARK    2  A    between atoms: N_13  and  C_14
REMARK    3  A    between atoms: C_19  and  C_20
REMARK    4  A    between atoms: C_21  and  C_22
REMARK                            x       y       z     vdW  Elec       q    Type
REMARK                         _______ _______ _______ _____ _____    ______ ____
ROOT
ATOM      1  C   UNL     1      -4.389  12.864  21.861  0.00  0.00    +0.000 C 
ATOM      2  C   UNL     1      -3.620  14.035  21.321  0.00  0.00    +0.000 A 
ATOM      3  N   UNL     1      -4.260  15.226  21.370  0.00  0.00    +0.000 NA
ATOM      4  C   UNL     1      -3.567  16.285  20.937  0.00  0.00    +0.000 A 
ATOM      5  N   UNL     1      -2.319  16.266  20.461  0.00  0.00    +0.000 NA
ATOM      6  C   UNL     1      -1.693  15.069  20.400  0.00  0.00    +0.000 A 
ATOM      7  N   UNL     1      -0.371  15.074  19.995  0.00  0.00    +0.000 N 
ATOM      8  C   UNL     1       0.414  16.277  20.237  0.00  0.00    +0.000 C 
ATOM      9  C   UNL     1       1.831  15.813  20.586  0.00  0.00    +0.000 C 
ATOM     10  C   UNL     1       2.453  14.897  19.491  0.00  0.00    +0.000 C 
ATOM     11  C   UNL     1       2.781  15.680  18.201  0.00  0.00    +0.000 C 
ATOM     12  C   UNL     1       3.927  16.672  18.402  0.00  0.00    +0.000 C 
ATOM     13  N   UNL     1       5.151  16.058  18.928  0.00  0.00    +0.000 NA
ATOM     14  C   UNL     1       5.833  15.252  17.918  0.00  0.00    +0.000 C 
ATOM     15  C   UNL     1       4.892  15.296  20.157  0.00  0.00    +0.000 C 
ATOM     16  C   UNL     1       3.762  14.269  20.027  0.00  0.00    +0.000 C 
ATOM     17  C   UNL     1       1.447  13.764  19.166  0.00  0.00    +0.000 C 
ATOM     18  C   UNL     1       0.046  14.287  18.843  0.00  0.00    +0.000 C 
ATOM     19  C   UNL     1      -2.322  13.894  20.837  0.00  0.00    +0.000 A 
ENDROOT
BRANCH  19  20
ATOM     20  C   UNL     1      -1.653  12.614  20.857  0.00  0.00    +0.000 C 
ATOM     21  C   UNL     1      -1.047  11.576  20.854  0.00  0.00    +0.000 C 
BRANCH  21  22
ATOM     22  C   UNL     1      -0.257  10.377  20.814  0.00  0.00    +0.000 A 
ATOM     23  C   UNL     1      -0.210   9.492  21.890  0.00  0.00    +0.000 A 
ATOM     24  C   UNL     1       0.609   8.363  21.829  0.00  0.00    +0.000 A 
ATOM     25  C   UNL     1       1.364   8.148  20.689  0.00  0.00    +0.000 A 
ATOM     26  N   UNL     1       2.171   7.019  20.587  0.00  0.00    +0.000 N 
ATOM     27  N   UNL     1       1.327   8.972  19.630  0.00  0.00    +0.000 NA
ATOM     28  C   UNL     1       0.520  10.064  19.714  0.00  0.00    +0.000 A 
ATOM     29  H   UNL     1       2.802   6.932  21.374  0.00  0.00    +0.000 HD
ATOM     30  H   UNL     1       2.670   7.086  19.703  0.00  0.00    +0.000 HD
ENDBRANCH  21  22
ENDBRANCH  19  20
TORSDOF 2
ENDMDL
