MODEL 1
REMARK VINA RESULT:      -7.1      0.000      0.000
REMARK  Name = 
REMARK  4 active torsions:
REMARK  status: ('A' for Active; 'I' for Inactive)
REMARK    1  A    between atoms: C_1  and  C_2
REMARK    2  A    between atoms: C_2  and  C_3
REMARK    3  A    between atoms: C_4  and  C_5
REMARK    4  A    between atoms: C_5  and  N_6
REMARK                            x       y       z     vdW  Elec       q    Type
REMARK                         _______ _______ _______ _____ _____    ______ ____
ROOT
ATOM      1  N   UNL     1       2.008   6.919  20.359  0.00  0.00    +0.000 N 
ATOM      2  C   UNL     1       1.418   7.689  21.330  0.00  0.00    +0.000 A 
ATOM      3  C   UNL     1       0.975   8.890  20.773  0.00  0.00    +0.000 A 
ATOM      4  C   UNL     1       1.374   8.811  19.409  0.00  0.00    +0.000 A 
ATOM      5  C   UNL     1       1.992   7.598  19.179  0.00  0.00    +0.000 A 
ATOM      6  S   UNL     1       1.097  10.012  18.222  0.00  0.00    +0.000 S 
ATOM      7  O   UNL     1       2.052   9.718  17.172  0.00  0.00    +0.000 OA
ATOM      8  O   UNL     1      -0.331  10.000  17.989  0.00  0.00    +0.000 OA
ATOM      9  C   UNL     1       1.546  11.523  18.986  0.00  0.00    +0.000 A 
ATOM     10  C   UNL     1       2.485  12.339  18.335  0.00  0.00    +0.000 A 
ATOM     11  C   UNL     1       2.722  13.626  18.805  0.00  0.00    +0.000 A 
ATOM     12 CL   UNL     1       3.894  14.621  18.039  0.00  0.00    +0.000 Cl
ATOM     13  C   UNL     1       1.998  14.119  19.886  0.00  0.00    +0.000 A 
ATOM     14  C   UNL     1       1.072  13.297  20.530  0.00  0.00    +0.000 A 
ATOM     15  C   UNL     1       0.877  11.968  20.124  0.00  0.00    +0.000 A 
ATOM     16  N   UNL     1       0.033  11.213  20.957  0.00  0.00    +0.000 N 
ATOM     17  C   UNL     1       0.232   9.944  21.454  0.00  0.00    +0.000 C 
ATOM     18  S   UNL     1      -0.412   9.641  22.975  0.00  0.00    +0.000 S 
ATOM     19  H   UNL     1      -0.509  11.754  21.627  0.00  0.00    +0.000 HD
ENDROOT
BRANCH   1  20
ATOM     20  C   UNL     1       2.536   5.573  20.551  0.00  0.00    +0.000 C 
BRANCH  20  24
ATOM     21  C   UNL     1       0.767   2.550  18.824  0.00  0.00    +0.000 C 
ATOM     22  C   UNL     1       1.361   3.408  19.903  0.00  0.00    +0.000 C 
ATOM     23  C   UNL     1       1.335   2.870  21.308  0.00  0.00    +0.000 C 
ATOM     24  C   UNL     1       1.899   4.606  19.595  0.00  0.00    +0.000 C 
ENDBRANCH  20  24
ENDBRANCH   1  20
TORSDOF 2
ENDMDL
MODEL 2
REMARK VINA RESULT:      -7.0      3.957      5.050
REMARK  Name = 
REMARK  4 active torsions:
REMARK  status: ('A' for Active; 'I' for Inactive)
REMARK    1  A    between atoms: C_1  and  C_2
REMARK    2  A    between atoms: C_2  and  C_3
REMARK    3  A    between atoms: C_4  and  C_5
REMARK    4  A    between atoms: C_5  and  N_6
REMARK                            x       y       z     vdW  Elec       q    Type
REMARK                         _______ _______ _______ _____ _____    ______ ____
ROOT
ATOM      1  N   UNL     1       1.017   9.553  18.686  0.00  0.00    +0.000 N 
ATOM      2  C   UNL     1      -0.149   9.767  17.994  0.00  0.00    +0.000 A 
ATOM      3  C   UNL     1      -0.810  10.878  18.520  0.00  0.00    +0.000 A 
ATOM      4  C   UNL     1       0.015  11.296  19.603  0.00  0.00    +0.000 A 
ATOM      5  C   UNL     1       1.126  10.480  19.677  0.00  0.00    +0.000 A 
ATOM      6  S   UNL     1      -0.295  12.628  20.631  0.00  0.00    +0.000 S 
ATOM      7  O   UNL     1       0.513  12.379  21.809  0.00  0.00    +0.000 OA
ATOM      8  O   UNL     1      -0.110  13.803  19.805  0.00  0.00    +0.000 OA
ATOM      9  C   UNL     1      -1.986  12.488  21.066  0.00  0.00    +0.000 A 
ATOM     10  C   UNL     1      -2.319  12.477  22.430  0.00  0.00    +0.000 A 
ATOM     11  C   UNL     1      -3.653  12.563  22.814  0.00  0.00    +0.000 A 
ATOM     12 CL   UNL     1      -4.074  12.516  24.478  0.00  0.00    +0.000 Cl
ATOM     13  C   UNL     1      -4.648  12.706  21.853  0.00  0.00    +0.000 A 
ATOM     14  C   UNL     1      -4.307  12.708  20.499  0.00  0.00    +0.000 A 
ATOM     15  C   UNL     1      -2.976  12.539  20.088  0.00  0.00    +0.000 A 
ATOM     16  N   UNL     1      -2.800  12.404  18.699  0.00  0.00    +0.000 N 
ATOM     17  C   UNL     1      -2.041  11.478  18.018  0.00  0.00    +0.000 C 
ATOM     18  S   UNL     1      -2.632  11.003  16.520  0.00  0.00    +0.000 S 
ATOM     19  H   UNL     1      -3.608  12.655  18.135  0.00  0.00    +0.000 HD
ENDROOT
BRANCH   1  20
ATOM     20  C   UNL     1       2.002   8.520  18.384  0.00  0.00    +0.000 C 
BRANCH  20  24
ATOM     21  C   UNL     1       2.345   5.315  20.590  0.00  0.00    +0.000 C 
ATOM     22  C   UNL     1       2.300   6.191  19.371  0.00  0.00    +0.000 C 
ATOM     23  C   UNL     1       2.493   5.527  18.035  0.00  0.00    +0.000 C 
ATOM     24  C   UNL     1       2.084   7.516  19.499  0.00  0.00    +0.000 C 
ENDBRANCH  20  24
ENDBRANCH   1  20
TORSDOF 2
ENDMDL
MODEL 3
REMARK VINA RESULT:      -6.6      1.016      1.412
REMARK  Name = 
REMARK  4 active torsions:
REMARK  status: ('A' for Active; 'I' for Inactive)
REMARK    1  A    between atoms: C_1  and  C_2
REMARK    2  A    between atoms: C_2  and  C_3
REMARK    3  A    between atoms: C_4  and  C_5
REMARK    4  A    between atoms: C_5  and  N_6
REMARK                            x       y       z     vdW  Elec       q    Type
REMARK                         _______ _______ _______ _____ _____    ______ ____
ROOT
ATOM      1  N   UNL     1       2.003   6.981  20.217  0.00  0.00    +0.000 N 
ATOM      2  C   UNL     1       1.460   7.694  21.256  0.00  0.00    +0.000 A 
ATOM      3  C   UNL     1       1.011   8.932  20.792  0.00  0.00    +0.000 A 
ATOM      4  C   UNL     1       1.358   8.935  19.411  0.00  0.00    +0.000 A 
ATOM      5  C   UNL     1       1.952   7.732  19.083  0.00  0.00    +0.000 A 
ATOM      6  S   UNL     1       1.052  10.211  18.313  0.00  0.00    +0.000 S 
ATOM      7  O   UNL     1       1.963   9.973  17.211  0.00  0.00    +0.000 OA
ATOM      8  O   UNL     1      -0.384  10.228  18.134  0.00  0.00    +0.000 OA
ATOM      9  C   UNL     1       1.548  11.666  19.151  0.00  0.00    +0.000 A 
ATOM     10  C   UNL     1       2.473  12.512  18.517  0.00  0.00    +0.000 A 
ATOM     11  C   UNL     1       2.743  13.764  19.057  0.00  0.00    +0.000 A 
ATOM     12 CL   UNL     1       3.898  14.793  18.310  0.00  0.00    +0.000 Cl
ATOM     13  C   UNL     1       2.066  14.196  20.193  0.00  0.00    +0.000 A 
ATOM     14  C   UNL     1       1.154  13.345  20.820  0.00  0.00    +0.000 A 
ATOM     15  C   UNL     1       0.928  12.046  20.339  0.00  0.00    +0.000 A 
ATOM     16  N   UNL     1       0.105  11.249  21.156  0.00  0.00    +0.000 N 
ATOM     17  C   UNL     1       0.307   9.949  21.564  0.00  0.00    +0.000 C 
ATOM     18  S   UNL     1      -0.284   9.559  23.087  0.00  0.00    +0.000 S 
ATOM     19  H   UNL     1      -0.404  11.752  21.878  0.00  0.00    +0.000 HD
ENDROOT
BRANCH   1  20
ATOM     20  C   UNL     1       2.521   5.620  20.305  0.00  0.00    +0.000 C 
BRANCH  20  24
ATOM     21  C   UNL     1       4.240   4.449  17.000  0.00  0.00    +0.000 C 
ATOM     22  C   UNL     1       3.176   4.665  18.037  0.00  0.00    +0.000 C 
ATOM     23  C   UNL     1       1.809   4.103  17.754  0.00  0.00    +0.000 C 
ATOM     24  C   UNL     1       3.464   5.331  19.174  0.00  0.00    +0.000 C 
ENDBRANCH  20  24
ENDBRANCH   1  20
TORSDOF 2
ENDMDL
MODEL 4
REMARK VINA RESULT:      -6.6      0.702      1.022
REMARK  Name = 
REMARK  4 active torsions:
REMARK  status: ('A' for Active; 'I' for Inactive)
REMARK    1  A    between atoms: C_1  and  C_2
REMARK    2  A    between atoms: C_2  and  C_3
REMARK    3  A    between atoms: C_4  and  C_5
REMARK    4  A    between atoms: C_5  and  N_6
REMARK                            x       y       z     vdW  Elec       q    Type
REMARK                         _______ _______ _______ _____ _____    ______ ____
ROOT
ATOM      1  N   UNL     1       2.237   7.077  19.842  0.00  0.00    +0.000 N 
ATOM      2  C   UNL     1       1.589   7.590  20.938  0.00  0.00    +0.000 A 
ATOM      3  C   UNL     1       1.047   8.836  20.621  0.00  0.00    +0.000 A 
ATOM      4  C   UNL     1       1.445   9.060  19.273  0.00  0.00    +0.000 A 
ATOM      5  C   UNL     1       2.161   7.970  18.818  0.00  0.00    +0.000 A 
ATOM      6  S   UNL     1       1.066  10.444  18.342  0.00  0.00    +0.000 S 
ATOM      7  O   UNL     1       2.038  10.441  17.266  0.00  0.00    +0.000 OA
ATOM      8  O   UNL     1      -0.358  10.361  18.093  0.00  0.00    +0.000 OA
ATOM      9  C   UNL     1       1.391  11.807  19.393  0.00  0.00    +0.000 A 
ATOM     10  C   UNL     1       2.257  12.809  18.926  0.00  0.00    +0.000 A 
ATOM     11  C   UNL     1       2.388  13.994  19.643  0.00  0.00    +0.000 A 
ATOM     12 CL   UNL     1       3.471  15.212  19.101  0.00  0.00    +0.000 Cl
ATOM     13  C   UNL     1       1.631  14.204  20.790  0.00  0.00    +0.000 A 
ATOM     14  C   UNL     1       0.777  13.199  21.249  0.00  0.00    +0.000 A 
ATOM     15  C   UNL     1       0.692  11.964  20.587  0.00  0.00    +0.000 A 
ATOM     16  N   UNL     1      -0.084  10.993  21.246  0.00  0.00    +0.000 N 
ATOM     17  C   UNL     1       0.222   9.672  21.486  0.00  0.00    +0.000 C 
ATOM     18  S   UNL     1      -0.390   9.025  22.910  0.00  0.00    +0.000 S 
ATOM     19  H   UNL     1      -0.666  11.346  22.002  0.00  0.00    +0.000 HD
ENDROOT
BRANCH   1  20
ATOM     20  C   UNL     1       2.875   5.767  19.773  0.00  0.00    +0.000 C 
BRANCH  20  24
ATOM     21  C   UNL     1       1.221   2.801  21.702  0.00  0.00    +0.000 C 
ATOM     22  C   UNL     1       1.773   3.611  20.565  0.00  0.00    +0.000 C 
ATOM     23  C   UNL     1       1.704   3.009  19.188  0.00  0.00    +0.000 C 
ATOM     24  C   UNL     1       2.295   4.833  20.797  0.00  0.00    +0.000 C 
ENDBRANCH  20  24
ENDBRANCH   1  20
TORSDOF 2
ENDMDL
MODEL 5
REMARK VINA RESULT:      -6.5      5.155      7.903
REMARK  Name = 
REMARK  4 active torsions:
REMARK  status: ('A' for Active; 'I' for Inactive)
REMARK    1  A    between atoms: C_1  and  C_2
REMARK    2  A    between atoms: C_2  and  C_3
REMARK    3  A    between atoms: C_4  and  C_5
REMARK    4  A    between atoms: C_5  and  N_6
REMARK                            x       y       z     vdW  Elec       q    Type
REMARK                         _______ _______ _______ _____ _____    ______ ____
ROOT
ATOM      1  N   UNL     1       2.515   7.524  18.359  0.00  0.00    +0.000 N 
ATOM      2  C   UNL     1       2.218   6.203  18.135  0.00  0.00    +0.000 A 
ATOM      3  C   UNL     1       3.379   5.512  17.788  0.00  0.00    +0.000 A 
ATOM      4  C   UNL     1       4.392   6.513  17.777  0.00  0.00    +0.000 A 
ATOM      5  C   UNL     1       3.843   7.727  18.137  0.00  0.00    +0.000 A 
ATOM      6  S   UNL     1       6.043   6.250  17.413  0.00  0.00    +0.000 S 
ATOM      7  O   UNL     1       6.557   7.562  17.072  0.00  0.00    +0.000 OA
ATOM      8  O   UNL     1       6.564   5.485  18.526  0.00  0.00    +0.000 OA
ATOM      9  C   UNL     1       6.043   5.252  15.974  0.00  0.00    +0.000 A 
ATOM     10  C   UNL     1       6.773   5.699  14.860  0.00  0.00    +0.000 A 
ATOM     11  C   UNL     1       6.958   4.851  13.774  0.00  0.00    +0.000 A 
ATOM     12 CL   UNL     1       7.819   5.398  12.392  0.00  0.00    +0.000 Cl
ATOM     13  C   UNL     1       6.463   3.552  13.809  0.00  0.00    +0.000 A 
ATOM     14  C   UNL     1       5.733   3.120  14.918  0.00  0.00    +0.000 A 
ATOM     15  C   UNL     1       5.464   3.986  15.990  0.00  0.00    +0.000 A 
ATOM     16  N   UNL     1       4.589   3.469  16.962  0.00  0.00    +0.000 N 
ATOM     17  C   UNL     1       3.501   4.079  17.545  0.00  0.00    +0.000 C 
ATOM     18  S   UNL     1       2.226   3.067  17.958  0.00  0.00    +0.000 S 
ATOM     19  H   UNL     1       4.420   2.468  16.901  0.00  0.00    +0.000 HD
ENDROOT
BRANCH   1  20
ATOM     20  C   UNL     1       1.568   8.542  18.800  0.00  0.00    +0.000 C 
BRANCH  20  24
ATOM     21  C   UNL     1       0.612   9.204  22.528  0.00  0.00    +0.000 C 
ATOM     22  C   UNL     1       0.626   9.328  21.032  0.00  0.00    +0.000 C 
ATOM     23  C   UNL     1      -0.274  10.363  20.415  0.00  0.00    +0.000 C 
ATOM     24  C   UNL     1       1.432   8.536  20.296  0.00  0.00    +0.000 C 
ENDBRANCH  20  24
ENDBRANCH   1  20
TORSDOF 2
ENDMDL
MODEL 6
REMARK VINA RESULT:      -6.4      4.450      5.590
REMARK  Name = 
REMARK  4 active torsions:
REMARK  status: ('A' for Active; 'I' for Inactive)
REMARK    1  A    between atoms: C_1  and  C_2
REMARK    2  A    between atoms: C_2  and  C_3
REMARK    3  A    between atoms: C_4  and  C_5
REMARK    4  A    between atoms: C_5  and  N_6
REMARK                            x       y       z     vdW  Elec       q    Type
REMARK                         _______ _______ _______ _____ _____    ______ ____
ROOT
ATOM      1  N   UNL     1       0.440   9.469  20.984  0.00  0.00    +0.000 N 
ATOM      2  C   UNL     1      -0.327   9.654  19.861  0.00  0.00    +0.000 A 
ATOM      3  C   UNL     1      -1.061  10.835  19.983  0.00  0.00    +0.000 A 
ATOM      4  C   UNL     1      -0.717  11.329  21.273  0.00  0.00    +0.000 A 
ATOM      5  C   UNL     1       0.206  10.486  21.859  0.00  0.00    +0.000 A 
ATOM      6  S   UNL     1      -1.319  12.768  21.978  0.00  0.00    +0.000 S 
ATOM      7  O   UNL     1      -1.077  12.610  23.399  0.00  0.00    +0.000 OA
ATOM      8  O   UNL     1      -0.730  13.846  21.213  0.00  0.00    +0.000 OA
ATOM      9  C   UNL     1      -3.046  12.731  21.691  0.00  0.00    +0.000 A 
ATOM     10  C   UNL     1      -3.903  12.869  22.796  0.00  0.00    +0.000 A 
ATOM     11  C   UNL     1      -5.267  13.040  22.591  0.00  0.00    +0.000 A 
ATOM     12 CL   UNL     1      -6.329  13.175  23.935  0.00  0.00    +0.000 Cl
ATOM     13  C   UNL     1      -5.776  13.120  21.300  0.00  0.00    +0.000 A 
ATOM     14  C   UNL     1      -4.917  12.975  20.208  0.00  0.00    +0.000 A 
ATOM     15  C   UNL     1      -3.549  12.719  20.393  0.00  0.00    +0.000 A 
ATOM     16  N   UNL     1      -2.836  12.439  19.213  0.00  0.00    +0.000 N 
ATOM     17  C   UNL     1      -1.937  11.424  18.977  0.00  0.00    +0.000 C 
ATOM     18  S   UNL     1      -1.904  10.822  17.409  0.00  0.00    +0.000 S 
ATOM     19  H   UNL     1      -3.326  12.661  18.350  0.00  0.00    +0.000 HD
ENDROOT
BRANCH   1  20
ATOM     20  C   UNL     1       1.384   8.377  21.194  0.00  0.00    +0.000 C 
BRANCH  20  24
ATOM     21  C   UNL     1       2.791   6.304  18.198  0.00  0.00    +0.000 C 
ATOM     22  C   UNL     1       2.217   6.620  19.549  0.00  0.00    +0.000 C 
ATOM     23  C   UNL     1       1.975   5.467  20.484  0.00  0.00    +0.000 C 
ATOM     24  C   UNL     1       1.948   7.898  19.887  0.00  0.00    +0.000 C 
ENDBRANCH  20  24
ENDBRANCH   1  20
TORSDOF 2
ENDMDL
MODEL 7
REMARK VINA RESULT:      -6.3      5.230      8.042
REMARK  Name = 
REMARK  4 active torsions:
REMARK  status: ('A' for Active; 'I' for Inactive)
REMARK    1  A    between atoms: C_1  and  C_2
REMARK    2  A    between atoms: C_2  and  C_3
REMARK    3  A    between atoms: C_4  and  C_5
REMARK    4  A    between atoms: C_5  and  N_6
REMARK                            x       y       z     vdW  Elec       q    Type
REMARK                         _______ _______ _______ _____ _____    ______ ____
ROOT
ATOM      1  N   UNL     1       2.789   6.570  19.369  0.00  0.00    +0.000 N 
ATOM      2  C   UNL     1       2.416   5.369  18.820  0.00  0.00    +0.000 A 
ATOM      3  C   UNL     1       3.533   4.733  18.277  0.00  0.00    +0.000 A 
ATOM      4  C   UNL     1       4.600   5.649  18.499  0.00  0.00    +0.000 A 
ATOM      5  C   UNL     1       4.124   6.756  19.175  0.00  0.00    +0.000 A 
ATOM      6  S   UNL     1       6.230   5.406  18.040  0.00  0.00    +0.000 S 
ATOM      7  O   UNL     1       6.813   6.734  18.036  0.00  0.00    +0.000 OA
ATOM      8  O   UNL     1       6.720   4.353  18.903  0.00  0.00    +0.000 OA
ATOM      9  C   UNL     1       6.159   4.817  16.392  0.00  0.00    +0.000 A 
ATOM     10  C   UNL     1       6.901   5.498  15.413  0.00  0.00    +0.000 A 
ATOM     11  C   UNL     1       7.027   4.953  14.141  0.00  0.00    +0.000 A 
ATOM     12 CL   UNL     1       7.902   5.795  12.926  0.00  0.00    +0.000 Cl
ATOM     13  C   UNL     1       6.461   3.716  13.852  0.00  0.00    +0.000 A 
ATOM     14  C   UNL     1       5.719   3.050  14.829  0.00  0.00    +0.000 A 
ATOM     15  C   UNL     1       5.511   3.621  16.094  0.00  0.00    +0.000 A 
ATOM     16  N   UNL     1       4.618   2.915  16.921  0.00  0.00    +0.000 N 
ATOM     17  C   UNL     1       3.572   3.408  17.669  0.00  0.00    +0.000 C 
ATOM     18  S   UNL     1       2.247   2.390  17.838  0.00  0.00    +0.000 S 
ATOM     19  H   UNL     1       4.393   1.974  16.608  0.00  0.00    +0.000 HD
ENDROOT
BRANCH   1  20
ATOM     20  C   UNL     1       1.905   7.486  20.082  0.00  0.00    +0.000 C 
BRANCH  20  24
ATOM     21  C   UNL     1       0.620  10.875  18.629  0.00  0.00    +0.000 C 
ATOM     22  C   UNL     1       0.759   9.696  19.549  0.00  0.00    +0.000 C 
ATOM     23  C   UNL     1      -0.136   9.652  20.758  0.00  0.00    +0.000 C 
ATOM     24  C   UNL     1       1.652   8.725  19.272  0.00  0.00    +0.000 C 
ENDBRANCH  20  24
ENDBRANCH   1  20
TORSDOF 2
ENDMDL
MODEL 8
REMARK VINA RESULT:      -6.2      5.161      7.890
REMARK  Name = 
REMARK  4 active torsions:
REMARK  status: ('A' for Active; 'I' for Inactive)
REMARK    1  A    between atoms: C_1  and  C_2
REMARK    2  A    between atoms: C_2  and  C_3
REMARK    3  A    between atoms: C_4  and  C_5
REMARK    4  A    between atoms: C_5  and  N_6
REMARK                            x       y       z     vdW  Elec       q    Type
REMARK                         _______ _______ _______ _____ _____    ______ ____
ROOT
ATOM      1  N   UNL     1       2.589   8.014  18.278  0.00  0.00    +0.000 N 
ATOM      2  C   UNL     1       2.172   6.724  18.069  0.00  0.00    +0.000 A 
ATOM      3  C   UNL     1       3.270   5.917  17.768  0.00  0.00    +0.000 A 
ATOM      4  C   UNL     1       4.375   6.815  17.769  0.00  0.00    +0.000 A 
ATOM      5  C   UNL     1       3.936   8.084  18.091  0.00  0.00    +0.000 A 
ATOM      6  S   UNL     1       6.002   6.387  17.458  0.00  0.00    +0.000 S 
ATOM      7  O   UNL     1       6.650   7.637  17.110  0.00  0.00    +0.000 OA
ATOM      8  O   UNL     1       6.416   5.598  18.599  0.00  0.00    +0.000 OA
ATOM      9  C   UNL     1       5.945   5.365  16.038  0.00  0.00    +0.000 A 
ATOM     10  C   UNL     1       6.745   5.716  14.938  0.00  0.00    +0.000 A 
ATOM     11  C   UNL     1       6.877   4.832  13.873  0.00  0.00    +0.000 A 
ATOM     12 CL   UNL     1       7.824   5.266  12.507  0.00  0.00    +0.000 Cl
ATOM     13  C   UNL     1       6.258   3.588  13.917  0.00  0.00    +0.000 A 
ATOM     14  C   UNL     1       5.459   3.251  15.011  0.00  0.00    +0.000 A 
ATOM     15  C   UNL     1       5.246   4.161  16.059  0.00  0.00    +0.000 A 
ATOM     16  N   UNL     1       4.298   3.750  17.014  0.00  0.00    +0.000 N 
ATOM     17  C   UNL     1       3.259   4.474  17.554  0.00  0.00    +0.000 C 
ATOM     18  S   UNL     1       1.881   3.599  17.947  0.00  0.00    +0.000 S 
ATOM     19  H   UNL     1       4.035   2.769  16.966  0.00  0.00    +0.000 HD
ENDROOT
BRANCH   1  20
ATOM     20  C   UNL     1       1.734   9.127  18.673  0.00  0.00    +0.000 C 
BRANCH  20  24
ATOM     21  C   UNL     1      -1.745   9.878  17.064  0.00  0.00    +0.000 C 
ATOM     22  C   UNL     1      -0.606   9.911  18.042  0.00  0.00    +0.000 C 
ATOM     23  C   UNL     1      -0.784  10.742  19.283  0.00  0.00    +0.000 C 
ATOM     24  C   UNL     1       0.517   9.206  17.796  0.00  0.00    +0.000 C 
ENDBRANCH  20  24
ENDBRANCH   1  20
TORSDOF 2
ENDMDL
MODEL 9
REMARK VINA RESULT:      -6.2      6.599      9.274
REMARK  Name = 
REMARK  4 active torsions:
REMARK  status: ('A' for Active; 'I' for Inactive)
REMARK    1  A    between atoms: C_1  and  C_2
REMARK    2  A    between atoms: C_2  and  C_3
REMARK    3  A    between atoms: C_4  and  C_5
REMARK    4  A    between atoms: C_5  and  N_6
REMARK                            x       y       z     vdW  Elec       q    Type
REMARK                         _______ _______ _______ _____ _____    ______ ____
ROOT
ATOM      1  N   UNL     1       8.094   8.623  17.774  0.00  0.00    +0.000 N 
ATOM      2  C   UNL     1       8.256   7.729  18.803  0.00  0.00    +0.000 A 
ATOM      3  C   UNL     1       7.643   6.519  18.474  0.00  0.00    +0.000 A 
ATOM      4  C   UNL     1       7.065   6.756  17.195  0.00  0.00    +0.000 A 
ATOM      5  C   UNL     1       7.361   8.041  16.786  0.00  0.00    +0.000 A 
ATOM      6  S   UNL     1       6.174   5.615  16.282  0.00  0.00    +0.000 S 
ATOM      7  O   UNL     1       5.420   6.412  15.334  0.00  0.00    +0.000 OA
ATOM      8  O   UNL     1       7.139   4.624  15.858  0.00  0.00    +0.000 OA
ATOM      9  C   UNL     1       5.059   4.888  17.419  0.00  0.00    +0.000 A 
ATOM     10  C   UNL     1       3.690   4.901  17.104  0.00  0.00    +0.000 A 
ATOM     11  C   UNL     1       2.798   4.168  17.879  0.00  0.00    +0.000 A 
ATOM     12 CL   UNL     1       1.118   4.204  17.524  0.00  0.00    +0.000 Cl
ATOM     13  C   UNL     1       3.264   3.389  18.932  0.00  0.00    +0.000 A 
ATOM     14  C   UNL     1       4.626   3.388  19.242  0.00  0.00    +0.000 A 
ATOM     15  C   UNL     1       5.532   4.185  18.525  0.00  0.00    +0.000 A 
ATOM     16  N   UNL     1       6.839   4.206  19.044  0.00  0.00    +0.000 N 
ATOM     17  C   UNL     1       7.654   5.294  19.265  0.00  0.00    +0.000 C 
ATOM     18  S   UNL     1       8.697   5.174  20.576  0.00  0.00    +0.000 S 
ATOM     19  H   UNL     1       7.040   3.489  19.736  0.00  0.00    +0.000 HD
ENDROOT
BRANCH   1  20
ATOM     20  C   UNL     1       8.649   9.972  17.730  0.00  0.00    +0.000 C 
BRANCH  20  24
ATOM     21  C   UNL     1      10.520  11.594  20.750  0.00  0.00    +0.000 C 
ATOM     22  C   UNL     1      10.121  11.293  19.334  0.00  0.00    +0.000 C 
ATOM     23  C   UNL     1      10.848  12.027  18.239  0.00  0.00    +0.000 C 
ATOM     24  C   UNL     1       9.153  10.389  19.082  0.00  0.00    +0.000 C 
ENDBRANCH  20  24
ENDBRANCH   1  20
TORSDOF 2
ENDMDL
