MODEL 1
REMARK VINA RESULT:      -8.7      0.000      0.000
REMARK  Name = 
REMARK  8 active torsions:
REMARK  status: ('A' for Active; 'I' for Inactive)
REMARK    1  A    between atoms: C_1  and  O_2
REMARK    2  A    between atoms: O_2  and  C_3
REMARK    3  A    between atoms: C_5  and  C_6
REMARK    4  A    between atoms: C_7  and  C_8
REMARK    5  A    between atoms: C_22  and  O_23
REMARK    6  A    between atoms: O_23  and  C_24
REMARK    7  A    between atoms: C_25  and  O_26
REMARK    8  A    between atoms: O_26  and  C_27
REMARK                            x       y       z     vdW  Elec       q    Type
REMARK                         _______ _______ _______ _____ _____    ______ ____
ROOT
ATOM      1  C   UNL     1       8.074   9.183  17.804  0.00  0.00    +0.000 C 
ATOM      2  C   UNL     1       7.920   7.858  17.985  0.00  0.00    +0.000 C 
ENDROOT
BRANCH   2   3
ATOM      3  C   UNL     1       7.046   6.771  17.422  0.00  0.00    +0.000 A 
ATOM      4  N   UNL     1       7.576   6.342  16.229  0.00  0.00    +0.000 NA
ATOM      5  C   UNL     1       7.222   5.164  15.691  0.00  0.00    +0.000 A 
ATOM      6  C   UNL     1       6.318   4.308  16.249  0.00  0.00    +0.000 A 
ATOM      7  C   UNL     1       5.468   4.900  17.178  0.00  0.00    +0.000 A 
ATOM      8  C   UNL     1       5.846   6.102  17.827  0.00  0.00    +0.000 A 
ATOM      9  N   UNL     1       4.837   6.271  18.783  0.00  0.00    +0.000 N 
ATOM     10  C   UNL     1       3.783   5.358  18.611  0.00  0.00    +0.000 A 
ATOM     11  C   UNL     1       2.537   5.178  19.243  0.00  0.00    +0.000 A 
ATOM     12  C   UNL     1       1.668   4.164  18.773  0.00  0.00    +0.000 A 
ATOM     13  C   UNL     1       2.002   3.362  17.685  0.00  0.00    +0.000 A 
ATOM     14  C   UNL     1       3.249   3.538  17.080  0.00  0.00    +0.000 A 
ATOM     15  C   UNL     1       4.157   4.515  17.568  0.00  0.00    +0.000 A 
ATOM     16  H   UNL     1       4.806   7.025  19.448  0.00  0.00    +0.000 HD
ENDBRANCH   2   3
BRANCH   1  19
ATOM     17  C   UNL     1       9.995  11.520  20.414  0.00  0.00    +0.000 A 
ATOM     18  C   UNL     1       9.011  10.578  19.901  0.00  0.00    +0.000 A 
ATOM     19  C   UNL     1       8.963  10.197  18.533  0.00  0.00    +0.000 A 
ATOM     20  C   UNL     1       9.893  10.847  17.713  0.00  0.00    +0.000 A 
ATOM     21  C   UNL     1      10.877  11.741  18.192  0.00  0.00    +0.000 A 
ATOM     22  C   UNL     1      10.961  12.091  19.552  0.00  0.00    +0.000 A 
BRANCH  17  24
ATOM     23  C   UNL     1       9.117  12.982  22.116  0.00  0.00    +0.000 C 
ATOM     24  O   UNL     1      10.019  11.954  21.708  0.00  0.00    +0.000 OA
ENDBRANCH  17  24
BRANCH  21  25
ATOM     25  O   UNL     1      11.658  12.228  17.165  0.00  0.00    +0.000 OA
ATOM     26  C   UNL     1      11.263  13.445  16.544  0.00  0.00    +0.000 C 
ENDBRANCH  21  25
BRANCH  22  27
ATOM     27  O   UNL     1      11.987  12.947  19.836  0.00  0.00    +0.000 OA
ATOM     28  C   UNL     1      11.931  14.358  19.940  0.00  0.00    +0.000 C 
ENDBRANCH  22  27
ENDBRANCH   1  19
TORSDOF 5
ENDMDL
MODEL 2
REMARK VINA RESULT:      -8.6      0.813      2.444
REMARK  Name = 
REMARK  8 active torsions:
REMARK  status: ('A' for Active; 'I' for Inactive)
REMARK    1  A    between atoms: C_1  and  O_2
REMARK    2  A    between atoms: O_2  and  C_3
REMARK    3  A    between atoms: C_5  and  C_6
REMARK    4  A    between atoms: C_7  and  C_8
REMARK    5  A    between atoms: C_22  and  O_23
REMARK    6  A    between atoms: O_23  and  C_24
REMARK    7  A    between atoms: C_25  and  O_26
REMARK    8  A    between atoms: O_26  and  C_27
REMARK                            x       y       z     vdW  Elec       q    Type
REMARK                         _______ _______ _______ _____ _____    ______ ____
ROOT
ATOM      1  C   UNL     1       8.388   8.721  18.436  0.00  0.00    +0.000 C 
ATOM      2  C   UNL     1       7.512   8.302  17.505  0.00  0.00    +0.000 C 
ENDROOT
BRANCH   2   3
ATOM      3  C   UNL     1       6.838   7.006  17.141  0.00  0.00    +0.000 A 
ATOM      4  N   UNL     1       7.614   6.341  16.221  0.00  0.00    +0.000 NA
ATOM      5  C   UNL     1       7.452   5.029  15.990  0.00  0.00    +0.000 A 
ATOM      6  C   UNL     1       6.521   4.250  16.615  0.00  0.00    +0.000 A 
ATOM      7  C   UNL     1       5.471   4.963  17.186  0.00  0.00    +0.000 A 
ATOM      8  C   UNL     1       5.634   6.330  17.518  0.00  0.00    +0.000 A 
ATOM      9  N   UNL     1       4.452   6.627  18.210  0.00  0.00    +0.000 N 
ATOM     10  C   UNL     1       3.517   5.582  18.136  0.00  0.00    +0.000 A 
ATOM     11  C   UNL     1       2.190   5.429  18.582  0.00  0.00    +0.000 A 
ATOM     12  C   UNL     1       1.498   4.229  18.285  0.00  0.00    +0.000 A 
ATOM     13  C   UNL     1       2.088   3.212  17.540  0.00  0.00    +0.000 A 
ATOM     14  C   UNL     1       3.411   3.368  17.121  0.00  0.00    +0.000 A 
ATOM     15  C   UNL     1       4.140   4.541  17.450  0.00  0.00    +0.000 A 
ATOM     16  H   UNL     1       4.244   7.521  18.618  0.00  0.00    +0.000 HD
ENDBRANCH   2   3
BRANCH   1  19
ATOM     17  C   UNL     1      10.127  12.301  18.075  0.00  0.00    +0.000 A 
ATOM     18  C   UNL     1       9.576  11.011  17.683  0.00  0.00    +0.000 A 
ATOM     19  C   UNL     1       9.069  10.082  18.630  0.00  0.00    +0.000 A 
ATOM     20  C   UNL     1       9.200  10.478  19.966  0.00  0.00    +0.000 A 
ATOM     21  C   UNL     1       9.702  11.736  20.370  0.00  0.00    +0.000 A 
ATOM     22  C   UNL     1      10.167  12.682  19.437  0.00  0.00    +0.000 A 
BRANCH  17  24
ATOM     23  C   UNL     1      12.100  13.219  17.043  0.00  0.00    +0.000 C 
ATOM     24  O   UNL     1      10.681  13.182  17.193  0.00  0.00    +0.000 OA
ENDBRANCH  17  24
BRANCH  21  25
ATOM     25  O   UNL     1       9.716  11.856  21.743  0.00  0.00    +0.000 OA
ATOM     26  C   UNL     1       8.491  12.164  22.399  0.00  0.00    +0.000 C 
ENDBRANCH  21  25
BRANCH  22  27
ATOM     27  O   UNL     1      10.592  13.848  20.005  0.00  0.00    +0.000 OA
ATOM     28  C   UNL     1       9.886  15.073  20.092  0.00  0.00    +0.000 C 
ENDBRANCH  22  27
ENDBRANCH   1  19
TORSDOF 5
ENDMDL
MODEL 3
REMARK VINA RESULT:      -8.0      1.623      2.124
REMARK  Name = 
REMARK  8 active torsions:
REMARK  status: ('A' for Active; 'I' for Inactive)
REMARK    1  A    between atoms: C_1  and  O_2
REMARK    2  A    between atoms: O_2  and  C_3
REMARK    3  A    between atoms: C_5  and  C_6
REMARK    4  A    between atoms: C_7  and  C_8
REMARK    5  A    between atoms: C_22  and  O_23
REMARK    6  A    between atoms: O_23  and  C_24
REMARK    7  A    between atoms: C_25  and  O_26
REMARK    8  A    between atoms: O_26  and  C_27
REMARK                            x       y       z     vdW  Elec       q    Type
REMARK                         _______ _______ _______ _____ _____    ______ ____
ROOT
ATOM      1  C   UNL     1       8.039   8.765  18.093  0.00  0.00    +0.000 C 
ATOM      2  C   UNL     1       6.997   8.212  17.445  0.00  0.00    +0.000 C 
ENDROOT
BRANCH   2   3
ATOM      3  C   UNL     1       6.502   6.820  17.157  0.00  0.00    +0.000 A 
ATOM      4  N   UNL     1       7.368   6.208  16.284  0.00  0.00    +0.000 NA
ATOM      5  C   UNL     1       7.380   4.874  16.132  0.00  0.00    +0.000 A 
ATOM      6  C   UNL     1       6.550   4.020  16.799  0.00  0.00    +0.000 A 
ATOM      7  C   UNL     1       5.410   4.624  17.321  0.00  0.00    +0.000 A 
ATOM      8  C   UNL     1       5.391   6.018  17.571  0.00  0.00    +0.000 A 
ATOM      9  N   UNL     1       4.172   6.199  18.238  0.00  0.00    +0.000 N 
ATOM     10  C   UNL     1       3.381   5.038  18.224  0.00  0.00    +0.000 A 
ATOM     11  C   UNL     1       2.079   4.741  18.672  0.00  0.00    +0.000 A 
ATOM     12  C   UNL     1       1.552   3.447  18.447  0.00  0.00    +0.000 A 
ATOM     13  C   UNL     1       2.278   2.472  17.767  0.00  0.00    +0.000 A 
ATOM     14  C   UNL     1       3.575   2.773  17.344  0.00  0.00    +0.000 A 
ATOM     15  C   UNL     1       4.141   4.048  17.605  0.00  0.00    +0.000 A 
ATOM     16  H   UNL     1       3.845   7.081  18.590  0.00  0.00    +0.000 HD
ENDBRANCH   2   3
BRANCH   1  19
ATOM     17  C   UNL     1       8.495  12.731  17.909  0.00  0.00    +0.000 A 
ATOM     18  C   UNL     1       7.993  11.404  17.583  0.00  0.00    +0.000 A 
ATOM     19  C   UNL     1       8.471  10.231  18.226  0.00  0.00    +0.000 A 
ATOM     20  C   UNL     1       9.502  10.448  19.147  0.00  0.00    +0.000 A 
ATOM     21  C   UNL     1       9.984  11.728  19.503  0.00  0.00    +0.000 A 
ATOM     22  C   UNL     1       9.487  12.900  18.903  0.00  0.00    +0.000 A 
BRANCH  17  24
ATOM     23  C   UNL     1       6.983  14.599  17.752  0.00  0.00    +0.000 C 
ATOM     24  O   UNL     1       8.102  13.865  17.259  0.00  0.00    +0.000 OA
ENDBRANCH  17  24
BRANCH  21  25
ATOM     25  O   UNL     1      10.998  11.645  20.434  0.00  0.00    +0.000 OA
ATOM     26  C   UNL     1      12.326  11.917  20.003  0.00  0.00    +0.000 C 
ENDBRANCH  21  25
BRANCH  22  27
ATOM     27  O   UNL     1      10.051  14.046  19.387  0.00  0.00    +0.000 OA
ATOM     28  C   UNL     1      10.762  15.032  18.660  0.00  0.00    +0.000 C 
ENDBRANCH  22  27
ENDBRANCH   1  19
TORSDOF 5
ENDMDL
MODEL 4
REMARK VINA RESULT:      -8.0      6.569     10.222
REMARK  Name = 
REMARK  8 active torsions:
REMARK  status: ('A' for Active; 'I' for Inactive)
REMARK    1  A    between atoms: C_1  and  O_2
REMARK    2  A    between atoms: O_2  and  C_3
REMARK    3  A    between atoms: C_5  and  C_6
REMARK    4  A    between atoms: C_7  and  C_8
REMARK    5  A    between atoms: C_22  and  O_23
REMARK    6  A    between atoms: O_23  and  C_24
REMARK    7  A    between atoms: C_25  and  O_26
REMARK    8  A    between atoms: O_26  and  C_27
REMARK                            x       y       z     vdW  Elec       q    Type
REMARK                         _______ _______ _______ _____ _____    ______ ____
ROOT
ATOM      1  C   UNL     1       2.714   8.461  17.888  0.00  0.00    +0.000 C 
ATOM      2  C   UNL     1       1.567   9.004  18.337  0.00  0.00    +0.000 C 
ENDROOT
BRANCH   2   3
ATOM      3  C   UNL     1       1.030  10.391  18.569  0.00  0.00    +0.000 A 
ATOM      4  N   UNL     1      -0.287  10.303  18.950  0.00  0.00    +0.000 NA
ATOM      5  C   UNL     1      -0.908  11.327  19.559  0.00  0.00    +0.000 A 
ATOM      6  C   UNL     1      -0.316  12.524  19.838  0.00  0.00    +0.000 A 
ATOM      7  C   UNL     1       0.826  12.786  19.086  0.00  0.00    +0.000 A 
ATOM      8  C   UNL     1       1.552  11.722  18.497  0.00  0.00    +0.000 A 
ATOM      9  N   UNL     1       2.691  12.363  17.993  0.00  0.00    +0.000 N 
ATOM     10  C   UNL     1       2.592  13.762  18.071  0.00  0.00    +0.000 A 
ATOM     11  C   UNL     1       3.410  14.822  17.635  0.00  0.00    +0.000 A 
ATOM     12  C   UNL     1       2.974  16.155  17.833  0.00  0.00    +0.000 A 
ATOM     13  C   UNL     1       1.744  16.440  18.420  0.00  0.00    +0.000 A 
ATOM     14  C   UNL     1       0.950  15.380  18.864  0.00  0.00    +0.000 A 
ATOM     15  C   UNL     1       1.392  14.038  18.722  0.00  0.00    +0.000 A 
ATOM     16  H   UNL     1       3.447  11.892  17.527  0.00  0.00    +0.000 HD
ENDBRANCH   2   3
BRANCH   1  19
ATOM     17  C   UNL     1       4.630   4.989  17.401  0.00  0.00    +0.000 A 
ATOM     18  C   UNL     1       4.376   6.421  17.341  0.00  0.00    +0.000 A 
ATOM     19  C   UNL     1       3.157   6.996  17.792  0.00  0.00    +0.000 A 
ATOM     20  C   UNL     1       2.204   6.073  18.234  0.00  0.00    +0.000 A 
ATOM     21  C   UNL     1       2.438   4.682  18.331  0.00  0.00    +0.000 A 
ATOM     22  C   UNL     1       3.658   4.107  17.928  0.00  0.00    +0.000 A 
BRANCH  17  24
ATOM     23  C   UNL     1       7.019   4.703  17.520  0.00  0.00    +0.000 C 
ATOM     24  O   UNL     1       5.763   4.405  16.913  0.00  0.00    +0.000 OA
ENDBRANCH  17  24
BRANCH  21  25
ATOM     25  O   UNL     1       1.327   4.015  18.800  0.00  0.00    +0.000 OA
ATOM     26  C   UNL     1       1.050   4.075  20.194  0.00  0.00    +0.000 C 
ENDBRANCH  21  25
BRANCH  22  27
ATOM     27  O   UNL     1       3.715   2.756  18.115  0.00  0.00    +0.000 OA
ATOM     28  C   UNL     1       4.106   2.062  19.287  0.00  0.00    +0.000 C 
ENDBRANCH  22  27
ENDBRANCH   1  19
TORSDOF 5
ENDMDL
MODEL 5
REMARK VINA RESULT:      -8.0      6.389      9.618
REMARK  Name = 
REMARK  8 active torsions:
REMARK  status: ('A' for Active; 'I' for Inactive)
REMARK    1  A    between atoms: C_1  and  O_2
REMARK    2  A    between atoms: O_2  and  C_3
REMARK    3  A    between atoms: C_5  and  C_6
REMARK    4  A    between atoms: C_7  and  C_8
REMARK    5  A    between atoms: C_22  and  O_23
REMARK    6  A    between atoms: O_23  and  C_24
REMARK    7  A    between atoms: C_25  and  O_26
REMARK    8  A    between atoms: O_26  and  C_27
REMARK                            x       y       z     vdW  Elec       q    Type
REMARK                         _______ _______ _______ _____ _____    ______ ____
ROOT
ATOM      1  C   UNL     1       2.504   7.875  18.452  0.00  0.00    +0.000 C 
ATOM      2  C   UNL     1       2.070   8.977  17.813  0.00  0.00    +0.000 C 
ENDROOT
BRANCH   2   3
ATOM      3  C   UNL     1       1.284  10.210  18.169  0.00  0.00    +0.000 A 
ATOM      4  N   UNL     1      -0.015   9.852  18.437  0.00  0.00    +0.000 NA
ATOM      5  C   UNL     1      -0.838  10.668  19.115  0.00  0.00    +0.000 A 
ATOM      6  C   UNL     1      -0.483  11.901  19.579  0.00  0.00    +0.000 A 
ATOM      7  C   UNL     1       0.632  12.448  18.951  0.00  0.00    +0.000 A 
ATOM      8  C   UNL     1       1.566  11.608  18.296  0.00  0.00    +0.000 A 
ATOM      9  N   UNL     1       2.598  12.493  17.959  0.00  0.00    +0.000 N 
ATOM     10  C   UNL     1       2.249  13.832  18.196  0.00  0.00    +0.000 A 
ATOM     11  C   UNL     1       2.889  15.064  17.953  0.00  0.00    +0.000 A 
ATOM     12  C   UNL     1       2.214  16.266  18.276  0.00  0.00    +0.000 A 
ATOM     13  C   UNL     1       0.923  16.260  18.798  0.00  0.00    +0.000 A 
ATOM     14  C   UNL     1       0.307  15.032  19.052  0.00  0.00    +0.000 A 
ATOM     15  C   UNL     1       0.986  13.815  18.784  0.00  0.00    +0.000 A 
ATOM     16  H   UNL     1       3.449  12.221  17.498  0.00  0.00    +0.000 HD
ENDBRANCH   2   3
BRANCH   1  19
ATOM     17  C   UNL     1       3.640   4.242  17.237  0.00  0.00    +0.000 A 
ATOM     18  C   UNL     1       2.818   5.274  17.852  0.00  0.00    +0.000 A 
ATOM     19  C   UNL     1       3.231   6.632  17.924  0.00  0.00    +0.000 A 
ATOM     20  C   UNL     1       4.510   6.882  17.416  0.00  0.00    +0.000 A 
ATOM     21  C   UNL     1       5.314   5.904  16.787  0.00  0.00    +0.000 A 
ATOM     22  C   UNL     1       4.896   4.565  16.671  0.00  0.00    +0.000 A 
BRANCH  17  24
ATOM     23  C   UNL     1       3.562   2.114  18.362  0.00  0.00    +0.000 C 
ATOM     24  O   UNL     1       3.299   2.921  17.215  0.00  0.00    +0.000 OA
ENDBRANCH  17  24
BRANCH  21  25
ATOM     25  O   UNL     1       6.522   6.429  16.380  0.00  0.00    +0.000 OA
ATOM     26  C   UNL     1       7.476   6.763  17.381  0.00  0.00    +0.000 C 
ENDBRANCH  21  25
BRANCH  22  27
ATOM     27  O   UNL     1       5.789   3.767  16.013  0.00  0.00    +0.000 OA
ATOM     28  C   UNL     1       6.039   3.719  14.620  0.00  0.00    +0.000 C 
ENDBRANCH  22  27
ENDBRANCH   1  19
TORSDOF 5
ENDMDL
MODEL 6
REMARK VINA RESULT:      -7.8      6.525      9.502
REMARK  Name = 
REMARK  8 active torsions:
REMARK  status: ('A' for Active; 'I' for Inactive)
REMARK    1  A    between atoms: C_1  and  O_2
REMARK    2  A    between atoms: O_2  and  C_3
REMARK    3  A    between atoms: C_5  and  C_6
REMARK    4  A    between atoms: C_7  and  C_8
REMARK    5  A    between atoms: C_22  and  O_23
REMARK    6  A    between atoms: O_23  and  C_24
REMARK    7  A    between atoms: C_25  and  O_26
REMARK    8  A    between atoms: O_26  and  C_27
REMARK                            x       y       z     vdW  Elec       q    Type
REMARK                         _______ _______ _______ _____ _____    ______ ____
ROOT
ATOM      1  C   UNL     1       1.996   7.701  18.664  0.00  0.00    +0.000 C 
ATOM      2  C   UNL     1       1.641   8.998  18.611  0.00  0.00    +0.000 C 
ENDROOT
BRANCH   2   3
ATOM      3  C   UNL     1       0.516   9.847  19.137  0.00  0.00    +0.000 A 
ATOM      4  N   UNL     1       0.830  10.272  20.405  0.00  0.00    +0.000 NA
ATOM      5  C   UNL     1       0.197  11.312  20.971  0.00  0.00    +0.000 A 
ATOM      6  C   UNL     1      -0.801  12.021  20.367  0.00  0.00    +0.000 A 
ATOM      7  C   UNL     1      -1.420  11.352  19.315  0.00  0.00    +0.000 A 
ATOM      8  C   UNL     1      -0.748  10.303  18.642  0.00  0.00    +0.000 A 
ATOM      9  N   UNL     1      -1.604  10.020  17.570  0.00  0.00    +0.000 N 
ATOM     10  C   UNL     1      -2.831  10.696  17.677  0.00  0.00    +0.000 A 
ATOM     11  C   UNL     1      -4.020  10.683  16.922  0.00  0.00    +0.000 A 
ATOM     12  C   UNL     1      -5.116  11.469  17.351  0.00  0.00    +0.000 A 
ATOM     13  C   UNL     1      -5.057  12.229  18.516  0.00  0.00    +0.000 A 
ATOM     14  C   UNL     1      -3.867  12.249  19.245  0.00  0.00    +0.000 A 
ATOM     15  C   UNL     1      -2.738  11.508  18.805  0.00  0.00    +0.000 A 
ATOM     16  H   UNL     1      -1.418   9.331  16.862  0.00  0.00    +0.000 HD
ENDBRANCH   2   3
BRANCH   1  19
ATOM     17  C   UNL     1       5.418   6.495  16.991  0.00  0.00    +0.000 A 
ATOM     18  C   UNL     1       4.424   7.398  17.553  0.00  0.00    +0.000 A 
ATOM     19  C   UNL     1       3.148   6.949  17.986  0.00  0.00    +0.000 A 
ATOM     20  C   UNL     1       2.903   5.588  17.771  0.00  0.00    +0.000 A 
ATOM     21  C   UNL     1       3.862   4.686  17.256  0.00  0.00    +0.000 A 
ATOM     22  C   UNL     1       5.145   5.113  16.864  0.00  0.00    +0.000 A 
BRANCH  17  24
ATOM     23  C   UNL     1       7.619   7.378  17.414  0.00  0.00    +0.000 C 
ATOM     24  O   UNL     1       6.624   6.911  16.505  0.00  0.00    +0.000 OA
ENDBRANCH  17  24
BRANCH  21  25
ATOM     25  O   UNL     1       3.350   3.410  17.153  0.00  0.00    +0.000 OA
ATOM     26  C   UNL     1       2.226   3.074  17.957  0.00  0.00    +0.000 C 
ENDBRANCH  21  25
BRANCH  22  27
ATOM     27  O   UNL     1       5.945   4.102  16.414  0.00  0.00    +0.000 OA
ATOM     28  C   UNL     1       6.252   3.777  15.070  0.00  0.00    +0.000 C 
ENDBRANCH  22  27
ENDBRANCH   1  19
TORSDOF 5
ENDMDL
MODEL 7
REMARK VINA RESULT:      -7.7      6.321      9.160
REMARK  Name = 
REMARK  8 active torsions:
REMARK  status: ('A' for Active; 'I' for Inactive)
REMARK    1  A    between atoms: C_1  and  O_2
REMARK    2  A    between atoms: O_2  and  C_3
REMARK    3  A    between atoms: C_5  and  C_6
REMARK    4  A    between atoms: C_7  and  C_8
REMARK    5  A    between atoms: C_22  and  O_23
REMARK    6  A    between atoms: O_23  and  C_24
REMARK    7  A    between atoms: C_25  and  O_26
REMARK    8  A    between atoms: O_26  and  C_27
REMARK                            x       y       z     vdW  Elec       q    Type
REMARK                         _______ _______ _______ _____ _____    ______ ____
ROOT
ATOM      1  C   UNL     1       2.353   7.505  18.777  0.00  0.00    +0.000 C 
ATOM      2  C   UNL     1       1.740   8.608  18.309  0.00  0.00    +0.000 C 
ENDROOT
BRANCH   2   3
ATOM      3  C   UNL     1       0.715   9.588  18.812  0.00  0.00    +0.000 A 
ATOM      4  N   UNL     1       1.170  10.152  19.980  0.00  0.00    +0.000 NA
ATOM      5  C   UNL     1       0.647  11.294  20.453  0.00  0.00    +0.000 A 
ATOM      6  C   UNL     1      -0.367  11.980  19.850  0.00  0.00    +0.000 A 
ATOM      7  C   UNL     1      -1.116  11.222  18.955  0.00  0.00    +0.000 A 
ATOM      8  C   UNL     1      -0.565  10.054  18.373  0.00  0.00    +0.000 A 
ATOM      9  N   UNL     1      -1.533   9.690  17.428  0.00  0.00    +0.000 N 
ATOM     10  C   UNL     1      -2.708  10.450  17.551  0.00  0.00    +0.000 A 
ATOM     11  C   UNL     1      -3.963  10.414  16.912  0.00  0.00    +0.000 A 
ATOM     12  C   UNL     1      -4.972  11.316  17.326  0.00  0.00    +0.000 A 
ATOM     13  C   UNL     1      -4.764  12.216  18.369  0.00  0.00    +0.000 A 
ATOM     14  C   UNL     1      -3.510  12.255  18.981  0.00  0.00    +0.000 A 
ATOM     15  C   UNL     1      -2.467  11.394  18.547  0.00  0.00    +0.000 A 
ATOM     16  H   UNL     1      -1.450   8.905  16.806  0.00  0.00    +0.000 HD
ENDBRANCH   2   3
BRANCH   1  19
ATOM     17  C   UNL     1       4.256   4.412  17.110  0.00  0.00    +0.000 A 
ATOM     18  C   UNL     1       3.235   5.142  17.848  0.00  0.00    +0.000 A 
ATOM     19  C   UNL     1       3.330   6.538  18.097  0.00  0.00    +0.000 A 
ATOM     20  C   UNL     1       4.508   7.135  17.635  0.00  0.00    +0.000 A 
ATOM     21  C   UNL     1       5.497   6.454  16.890  0.00  0.00    +0.000 A 
ATOM     22  C   UNL     1       5.392   5.081  16.600  0.00  0.00    +0.000 A 
BRANCH  17  24
ATOM     23  C   UNL     1       3.707   2.220  17.947  0.00  0.00    +0.000 C 
ATOM     24  O   UNL     1       4.222   3.061  16.916  0.00  0.00    +0.000 OA
ENDBRANCH  17  24
BRANCH  21  25
ATOM     25  O   UNL     1       6.546   7.289  16.563  0.00  0.00    +0.000 OA
ATOM     26  C   UNL     1       7.506   7.581  17.570  0.00  0.00    +0.000 C 
ENDBRANCH  21  25
BRANCH  22  27
ATOM     27  O   UNL     1       6.427   4.599  15.851  0.00  0.00    +0.000 OA
ATOM     28  C   UNL     1       6.492   4.485  14.440  0.00  0.00    +0.000 C 
ENDBRANCH  22  27
ENDBRANCH   1  19
TORSDOF 5
ENDMDL
MODEL 8
REMARK VINA RESULT:      -7.6      6.310      9.454
REMARK  Name = 
REMARK  8 active torsions:
REMARK  status: ('A' for Active; 'I' for Inactive)
REMARK    1  A    between atoms: C_1  and  O_2
REMARK    2  A    between atoms: O_2  and  C_3
REMARK    3  A    between atoms: C_5  and  C_6
REMARK    4  A    between atoms: C_7  and  C_8
REMARK    5  A    between atoms: C_22  and  O_23
REMARK    6  A    between atoms: O_23  and  C_24
REMARK    7  A    between atoms: C_25  and  O_26
REMARK    8  A    between atoms: O_26  and  C_27
REMARK                            x       y       z     vdW  Elec       q    Type
REMARK                         _______ _______ _______ _____ _____    ______ ____
ROOT
ATOM      1  C   UNL     1       2.241   7.700  18.536  0.00  0.00    +0.000 C 
ATOM      2  C   UNL     1       1.750   7.962  19.761  0.00  0.00    +0.000 C 
ENDROOT
BRANCH   2   3
ATOM      3  C   UNL     1       0.929   9.049  20.401  0.00  0.00    +0.000 A 
ATOM      4  N   UNL     1       0.222   8.515  21.452  0.00  0.00    +0.000 NA
ATOM      5  C   UNL     1      -0.304   9.297  22.409  0.00  0.00    +0.000 A 
ATOM      6  C   UNL     1      -0.205  10.658  22.426  0.00  0.00    +0.000 A 
ATOM      7  C   UNL     1       0.097  11.224  21.190  0.00  0.00    +0.000 A 
ATOM      8  C   UNL     1       0.727  10.449  20.186  0.00  0.00    +0.000 A 
ATOM      9  N   UNL     1       1.013  11.397  19.194  0.00  0.00    +0.000 N 
ATOM     10  C   UNL     1       0.417  12.641  19.461  0.00  0.00    +0.000 A 
ATOM     11  C   UNL     1       0.338  13.855  18.752  0.00  0.00    +0.000 A 
ATOM     12  C   UNL     1      -0.408  14.926  19.301  0.00  0.00    +0.000 A 
ATOM     13  C   UNL     1      -1.089  14.796  20.509  0.00  0.00    +0.000 A 
ATOM     14  C   UNL     1      -0.987  13.594  21.211  0.00  0.00    +0.000 A 
ATOM     15  C   UNL     1      -0.202  12.525  20.703  0.00  0.00    +0.000 A 
ATOM     16  H   UNL     1       1.492  11.191  18.335  0.00  0.00    +0.000 HD
ENDBRANCH   2   3
BRANCH   1  19
ATOM     17  C   UNL     1       3.957   4.259  17.449  0.00  0.00    +0.000 A 
ATOM     18  C   UNL     1       2.981   5.164  18.037  0.00  0.00    +0.000 A 
ATOM     19  C   UNL     1       3.160   6.574  18.045  0.00  0.00    +0.000 A 
ATOM     20  C   UNL     1       4.373   7.012  17.503  0.00  0.00    +0.000 A 
ATOM     21  C   UNL     1       5.321   6.156  16.899  0.00  0.00    +0.000 A 
ATOM     22  C   UNL     1       5.133   4.762  16.847  0.00  0.00    +0.000 A 
BRANCH  17  24
ATOM     23  C   UNL     1       2.555   2.313  17.679  0.00  0.00    +0.000 C 
ATOM     24  O   UNL     1       3.842   2.899  17.489  0.00  0.00    +0.000 OA
ENDBRANCH  17  24
BRANCH  21  25
ATOM     25  O   UNL     1       6.419   6.857  16.448  0.00  0.00    +0.000 OA
ATOM     26  C   UNL     1       7.391   7.266  17.403  0.00  0.00    +0.000 C 
ENDBRANCH  21  25
BRANCH  22  27
ATOM     27  O   UNL     1       6.139   4.097  16.205  0.00  0.00    +0.000 OA
ATOM     28  C   UNL     1       6.259   3.845  14.817  0.00  0.00    +0.000 C 
ENDBRANCH  22  27
ENDBRANCH   1  19
TORSDOF 5
ENDMDL
MODEL 9
REMARK VINA RESULT:      -7.5      1.561      1.576
REMARK  Name = 
REMARK  8 active torsions:
REMARK  status: ('A' for Active; 'I' for Inactive)
REMARK    1  A    between atoms: C_1  and  O_2
REMARK    2  A    between atoms: O_2  and  C_3
REMARK    3  A    between atoms: C_5  and  C_6
REMARK    4  A    between atoms: C_7  and  C_8
REMARK    5  A    between atoms: C_22  and  O_23
REMARK    6  A    between atoms: O_23  and  C_24
REMARK    7  A    between atoms: C_25  and  O_26
REMARK    8  A    between atoms: O_26  and  C_27
REMARK                            x       y       z     vdW  Elec       q    Type
REMARK                         _______ _______ _______ _____ _____    ______ ____
ROOT
ATOM      1  C   UNL     1       7.884   8.955  17.509  0.00  0.00    +0.000 C 
ATOM      2  C   UNL     1       7.416   7.801  18.018  0.00  0.00    +0.000 C 
ENDROOT
BRANCH   2   3
ATOM      3  C   UNL     1       6.756   6.558  17.485  0.00  0.00    +0.000 A 
ATOM      4  N   UNL     1       7.285   6.264  16.251  0.00  0.00    +0.000 NA
ATOM      5  C   UNL     1       7.153   5.043  15.708  0.00  0.00    +0.000 A 
ATOM      6  C   UNL     1       6.489   4.009  16.301  0.00  0.00    +0.000 A 
ATOM      7  C   UNL     1       5.596   4.398  17.295  0.00  0.00    +0.000 A 
ATOM      8  C   UNL     1       5.754   5.646  17.947  0.00  0.00    +0.000 A 
ATOM      9  N   UNL     1       4.797   5.587  18.968  0.00  0.00    +0.000 N 
ATOM     10  C   UNL     1       3.951   4.474  18.840  0.00  0.00    +0.000 A 
ATOM     11  C   UNL     1       2.815   4.027  19.544  0.00  0.00    +0.000 A 
ATOM     12  C   UNL     1       2.150   2.857  19.106  0.00  0.00    +0.000 A 
ATOM     13  C   UNL     1       2.574   2.155  17.980  0.00  0.00    +0.000 A 
ATOM     14  C   UNL     1       3.713   2.597  17.303  0.00  0.00    +0.000 A 
ATOM     15  C   UNL     1       4.424   3.739  17.756  0.00  0.00    +0.000 A 
ATOM     16  H   UNL     1       4.652   6.311  19.651  0.00  0.00    +0.000 HD
ENDBRANCH   2   3
BRANCH   1  19
ATOM     17  C   UNL     1       9.781  11.601  19.826  0.00  0.00    +0.000 A 
ATOM     18  C   UNL     1       9.269  10.319  19.366  0.00  0.00    +0.000 A 
ATOM     19  C   UNL     1       8.461  10.195  18.204  0.00  0.00    +0.000 A 
ATOM     20  C   UNL     1       8.145  11.407  17.580  0.00  0.00    +0.000 A 
ATOM     21  C   UNL     1       8.654  12.661  17.989  0.00  0.00    +0.000 A 
ATOM     22  C   UNL     1       9.492  12.789  19.113  0.00  0.00    +0.000 A 
BRANCH  17  24
ATOM     23  C   UNL     1       9.898  12.400  22.096  0.00  0.00    +0.000 C 
ATOM     24  O   UNL     1      10.501  11.756  20.975  0.00  0.00    +0.000 OA
ENDBRANCH  17  24
BRANCH  21  25
ATOM     25  O   UNL     1       8.181  13.682  17.193  0.00  0.00    +0.000 OA
ATOM     26  C   UNL     1       6.964  14.314  17.569  0.00  0.00    +0.000 C 
ENDBRANCH  21  25
BRANCH  22  27
ATOM     27  O   UNL     1       9.907  14.069  19.344  0.00  0.00    +0.000 OA
ATOM     28  C   UNL     1      11.117  14.673  18.925  0.00  0.00    +0.000 C 
ENDBRANCH  22  27
ENDBRANCH   1  19
TORSDOF 5
ENDMDL
