MODEL 1
REMARK VINA RESULT:      -9.6      0.000      0.000
REMARK  Name = 
REMARK  8 active torsions:
REMARK  status: ('A' for Active; 'I' for Inactive)
REMARK    1  A    between atoms: C_1  and  O_2
REMARK    2  A    between atoms: O_2  and  C_3
REMARK    3  A    between atoms: C_9  and  N_10
REMARK    4  A    between atoms: N_10  and  C_11
REMARK    5  A    between atoms: N_18  and  C_19
REMARK    6  A    between atoms: C_19  and  C_20
REMARK    7  A    between atoms: C_30  and  O_31
REMARK    8  A    between atoms: O_31  and  C_32
REMARK                            x       y       z     vdW  Elec       q    Type
REMARK                         _______ _______ _______ _____ _____    ______ ____
ROOT
ATOM      1  C   UNL     1       2.160   7.447  19.867  0.00  0.00    +0.000 A 
ATOM      2  C   UNL     1       2.045   8.177  18.655  0.00  0.00    +0.000 A 
ATOM      3  C   UNL     1       1.221   9.318  18.565  0.00  0.00    +0.000 A 
ATOM      4  C   UNL     1       0.546   9.726  19.717  0.00  0.00    +0.000 A 
ATOM      5  C   UNL     1       0.659   9.036  20.885  0.00  0.00    +0.000 A 
ATOM      6  C   UNL     1      -0.121   9.708  21.803  0.00  0.00    +0.000 A 
ATOM      7  N   UNL     1      -0.677  10.772  21.180  0.00  0.00    +0.000 NA
ATOM      8  N   UNL     1      -0.276  10.780  19.910  0.00  0.00    +0.000 N 
ATOM      9  C   UNL     1       1.448   7.894  21.013  0.00  0.00    +0.000 A 
ENDROOT
BRANCH   1  10
ATOM     10  N   UNL     1       3.016   6.300  19.913  0.00  0.00    +0.000 N 
ATOM     11  H   UNL     1       3.523   6.143  20.799  0.00  0.00    +0.000 HD
BRANCH  10  18
ATOM     12  C   UNL     1       5.993   5.270  15.754  0.00  0.00    +0.000 A 
ATOM     13  C   UNL     1       5.049   4.228  15.891  0.00  0.00    +0.000 A 
ATOM     14  C   UNL     1       4.114   4.239  16.931  0.00  0.00    +0.000 A 
ATOM     15  N   UNL     1       3.212   3.225  17.027  0.00  0.00    +0.000 NA
ATOM     16  C   UNL     1       2.291   3.178  18.020  0.00  0.00    +0.000 A 
ATOM     17  C   UNL     1       2.237   4.192  18.976  0.00  0.00    +0.000 A 
ATOM     18  C   UNL     1       3.123   5.279  18.910  0.00  0.00    +0.000 A 
ATOM     19  C   UNL     1       4.103   5.290  17.875  0.00  0.00    +0.000 A 
ATOM     20  C   UNL     1       5.089   6.283  17.767  0.00  0.00    +0.000 A 
ATOM     21  C   UNL     1       6.011   6.303  16.725  0.00  0.00    +0.000 A 
BRANCH  12  23
ATOM     22  C   UNL     1       6.864   4.456  13.620  0.00  0.00    +0.000 C 
ATOM     23  O   UNL     1       6.852   5.316  14.701  0.00  0.00    +0.000 OA
ENDBRANCH  12  23
BRANCH  21  24
ATOM     24  O   UNL     1       6.855   7.370  16.713  0.00  0.00    +0.000 OA
ATOM     25  C   UNL     1       7.727   7.792  17.686  0.00  0.00    +0.000 C 
ENDBRANCH  21  24
ENDBRANCH  10  18
ENDBRANCH   1  10
BRANCH   8  26
ATOM     26  C   UNL     1      -0.681  11.815  18.954  0.00  0.00    +0.000 C 
BRANCH  26  27
ATOM     27  C   UNL     1      -1.984  11.459  18.289  0.00  0.00    +0.000 A 
ATOM     28  C   UNL     1      -3.194  11.970  18.788  0.00  0.00    +0.000 A 
ATOM     29  C   UNL     1      -4.405  11.634  18.179  0.00  0.00    +0.000 A 
ATOM     30  C   UNL     1      -4.419  10.788  17.066  0.00  0.00    +0.000 A 
ATOM     31  C   UNL     1      -3.219  10.286  16.555  0.00  0.00    +0.000 A 
ATOM     32  F   UNL     1      -3.233   9.469  15.472  0.00  0.00    +0.000 F 
ATOM     33  C   UNL     1      -2.005  10.621  17.162  0.00  0.00    +0.000 A 
ENDBRANCH  26  27
ENDBRANCH   8  26
TORSDOF 6
ENDMDL
MODEL 2
REMARK VINA RESULT:      -9.5      0.911      1.245
REMARK  Name = 
REMARK  8 active torsions:
REMARK  status: ('A' for Active; 'I' for Inactive)
REMARK    1  A    between atoms: C_1  and  O_2
REMARK    2  A    between atoms: O_2  and  C_3
REMARK    3  A    between atoms: C_9  and  N_10
REMARK    4  A    between atoms: N_10  and  C_11
REMARK    5  A    between atoms: N_18  and  C_19
REMARK    6  A    between atoms: C_19  and  C_20
REMARK    7  A    between atoms: C_30  and  O_31
REMARK    8  A    between atoms: O_31  and  C_32
REMARK                            x       y       z     vdW  Elec       q    Type
REMARK                         _______ _______ _______ _____ _____    ______ ____
ROOT
ATOM      1  C   UNL     1       1.985   7.731  19.816  0.00  0.00    +0.000 A 
ATOM      2  C   UNL     1       1.852   8.393  18.568  0.00  0.00    +0.000 A 
ATOM      3  C   UNL     1       1.032   9.531  18.427  0.00  0.00    +0.000 A 
ATOM      4  C   UNL     1       0.378  10.007  19.565  0.00  0.00    +0.000 A 
ATOM      5  C   UNL     1       0.508   9.383  20.768  0.00  0.00    +0.000 A 
ATOM      6  C   UNL     1      -0.254  10.109  21.660  0.00  0.00    +0.000 A 
ATOM      7  N   UNL     1      -0.815  11.139  20.988  0.00  0.00    +0.000 NA
ATOM      8  N   UNL     1      -0.437  11.075  19.713  0.00  0.00    +0.000 N 
ATOM      9  C   UNL     1       1.294   8.246  20.947  0.00  0.00    +0.000 A 
ENDROOT
BRANCH   1  10
ATOM     10  N   UNL     1       2.837   6.585  19.913  0.00  0.00    +0.000 N 
ATOM     11  H   UNL     1       3.421   6.519  20.762  0.00  0.00    +0.000 HD
BRANCH  10  18
ATOM     12  C   UNL     1       5.732   4.829  15.944  0.00  0.00    +0.000 A 
ATOM     13  C   UNL     1       4.686   3.907  16.169  0.00  0.00    +0.000 A 
ATOM     14  C   UNL     1       3.746   4.122  17.183  0.00  0.00    +0.000 A 
ATOM     15  N   UNL     1       2.745   3.219  17.366  0.00  0.00    +0.000 NA
ATOM     16  C   UNL     1       1.815   3.369  18.340  0.00  0.00    +0.000 A 
ATOM     17  C   UNL     1       1.855   4.479  19.184  0.00  0.00    +0.000 A 
ATOM     18  C   UNL     1       2.849   5.458  19.023  0.00  0.00    +0.000 A 
ATOM     19  C   UNL     1       3.835   5.262  18.013  0.00  0.00    +0.000 A 
ATOM     20  C   UNL     1       4.917   6.134  17.822  0.00  0.00    +0.000 A 
ATOM     21  C   UNL     1       5.847   5.952  16.802  0.00  0.00    +0.000 A 
BRANCH  12  23
ATOM     22  C   UNL     1       6.354   4.006  13.728  0.00  0.00    +0.000 C 
ATOM     23  O   UNL     1       6.602   4.677  14.910  0.00  0.00    +0.000 OA
ENDBRANCH  12  23
BRANCH  21  24
ATOM     24  O   UNL     1       6.795   6.921  16.697  0.00  0.00    +0.000 OA
ATOM     25  C   UNL     1       7.640   7.412  17.662  0.00  0.00    +0.000 C 
ENDBRANCH  21  24
ENDBRANCH  10  18
ENDBRANCH   1  10
BRANCH   8  26
ATOM     26  C   UNL     1      -0.854  12.056  18.707  0.00  0.00    +0.000 C 
BRANCH  26  27
ATOM     27  C   UNL     1      -2.114  11.618  18.011  0.00  0.00    +0.000 A 
ATOM     28  C   UNL     1      -2.042  10.933  16.786  0.00  0.00    +0.000 A 
ATOM     29  C   UNL     1      -3.210  10.534  16.131  0.00  0.00    +0.000 A 
ATOM     30  C   UNL     1      -4.459  10.811  16.695  0.00  0.00    +0.000 A 
ATOM     31  C   UNL     1      -4.540  11.480  17.920  0.00  0.00    +0.000 A 
ATOM     32  F   UNL     1      -5.751  11.745  18.468  0.00  0.00    +0.000 F 
ATOM     33  C   UNL     1      -3.372  11.881  18.578  0.00  0.00    +0.000 A 
ENDBRANCH  26  27
ENDBRANCH   8  26
TORSDOF 6
ENDMDL
MODEL 3
REMARK VINA RESULT:      -9.1      2.285      3.100
REMARK  Name = 
REMARK  8 active torsions:
REMARK  status: ('A' for Active; 'I' for Inactive)
REMARK    1  A    between atoms: C_1  and  O_2
REMARK    2  A    between atoms: O_2  and  C_3
REMARK    3  A    between atoms: C_9  and  N_10
REMARK    4  A    between atoms: N_10  and  C_11
REMARK    5  A    between atoms: N_18  and  C_19
REMARK    6  A    between atoms: C_19  and  C_20
REMARK    7  A    between atoms: C_30  and  O_31
REMARK    8  A    between atoms: O_31  and  C_32
REMARK                            x       y       z     vdW  Elec       q    Type
REMARK                         _______ _______ _______ _____ _____    ______ ____
ROOT
ATOM      1  C   UNL     1       2.135   7.619  19.672  0.00  0.00    +0.000 A 
ATOM      2  C   UNL     1       2.084   8.290  18.422  0.00  0.00    +0.000 A 
ATOM      3  C   UNL     1       1.341   9.477  18.258  0.00  0.00    +0.000 A 
ATOM      4  C   UNL     1       0.679   9.990  19.375  0.00  0.00    +0.000 A 
ATOM      5  C   UNL     1       0.731   9.357  20.580  0.00  0.00    +0.000 A 
ATOM      6  C   UNL     1      -0.014  10.128  21.448  0.00  0.00    +0.000 A 
ATOM      7  N   UNL     1      -0.489  11.192  20.761  0.00  0.00    +0.000 NA
ATOM      8  N   UNL     1      -0.072  11.105  19.499  0.00  0.00    +0.000 N 
ATOM      9  C   UNL     1       1.439   8.174  20.781  0.00  0.00    +0.000 A 
ENDROOT
BRANCH   1  10
ATOM     10  N   UNL     1       2.911   6.422  19.793  0.00  0.00    +0.000 N 
ATOM     11  H   UNL     1       3.355   6.256  20.710  0.00  0.00    +0.000 HD
BRANCH  10  18
ATOM     12  C   UNL     1       6.353   4.755  16.245  0.00  0.00    +0.000 A 
ATOM     13  C   UNL     1       5.225   3.906  16.199  0.00  0.00    +0.000 A 
ATOM     14  C   UNL     1       4.134   4.115  17.050  0.00  0.00    +0.000 A 
ATOM     15  N   UNL     1       3.059   3.285  16.972  0.00  0.00    +0.000 NA
ATOM     16  C   UNL     1       1.981   3.433  17.779  0.00  0.00    +0.000 A 
ATOM     17  C   UNL     1       1.941   4.466  18.715  0.00  0.00    +0.000 A 
ATOM     18  C   UNL     1       3.009   5.372  18.820  0.00  0.00    +0.000 A 
ATOM     19  C   UNL     1       4.146   5.177  17.983  0.00  0.00    +0.000 A 
ATOM     20  C   UNL     1       5.300   5.970  18.064  0.00  0.00    +0.000 A 
ATOM     21  C   UNL     1       6.384   5.794  17.209  0.00  0.00    +0.000 A 
BRANCH  12  23
ATOM     22  C   UNL     1       7.332   4.839  14.006  0.00  0.00    +0.000 C 
ATOM     23  O   UNL     1       7.383   4.615  15.369  0.00  0.00    +0.000 OA
ENDBRANCH  12  23
BRANCH  21  24
ATOM     24  O   UNL     1       7.397   6.689  17.360  0.00  0.00    +0.000 OA
ATOM     25  C   UNL     1       7.329   8.050  17.531  0.00  0.00    +0.000 C 
ENDBRANCH  21  24
ENDBRANCH  10  18
ENDBRANCH   1  10
BRANCH   8  26
ATOM     26  C   UNL     1      -0.394  12.112  18.483  0.00  0.00    +0.000 C 
BRANCH  26  27
ATOM     27  C   UNL     1       0.528  13.297  18.582  0.00  0.00    +0.000 A 
ATOM     28  C   UNL     1       0.042  14.533  19.043  0.00  0.00    +0.000 A 
ATOM     29  C   UNL     1       0.892  15.638  19.126  0.00  0.00    +0.000 A 
ATOM     30  C   UNL     1       2.235  15.519  18.754  0.00  0.00    +0.000 A 
ATOM     31  C   UNL     1       2.730  14.291  18.306  0.00  0.00    +0.000 A 
ATOM     32  F   UNL     1       4.033  14.175  17.950  0.00  0.00    +0.000 F 
ATOM     33  C   UNL     1       1.881  13.182  18.222  0.00  0.00    +0.000 A 
ENDBRANCH  26  27
ENDBRANCH   8  26
TORSDOF 6
ENDMDL
MODEL 4
REMARK VINA RESULT:      -9.0      2.212      3.107
REMARK  Name = 
REMARK  8 active torsions:
REMARK  status: ('A' for Active; 'I' for Inactive)
REMARK    1  A    between atoms: C_1  and  O_2
REMARK    2  A    between atoms: O_2  and  C_3
REMARK    3  A    between atoms: C_9  and  N_10
REMARK    4  A    between atoms: N_10  and  C_11
REMARK    5  A    between atoms: N_18  and  C_19
REMARK    6  A    between atoms: C_19  and  C_20
REMARK    7  A    between atoms: C_30  and  O_31
REMARK    8  A    between atoms: O_31  and  C_32
REMARK                            x       y       z     vdW  Elec       q    Type
REMARK                         _______ _______ _______ _____ _____    ______ ____
ROOT
ATOM      1  C   UNL     1       2.152   7.648  19.648  0.00  0.00    +0.000 A 
ATOM      2  C   UNL     1       2.077   8.318  18.399  0.00  0.00    +0.000 A 
ATOM      3  C   UNL     1       1.278   9.468  18.233  0.00  0.00    +0.000 A 
ATOM      4  C   UNL     1       0.585   9.945  19.347  0.00  0.00    +0.000 A 
ATOM      5  C   UNL     1       0.660   9.313  20.551  0.00  0.00    +0.000 A 
ATOM      6  C   UNL     1      -0.127  10.045  21.416  0.00  0.00    +0.000 A 
ATOM      7  N   UNL     1      -0.649  11.086  20.728  0.00  0.00    +0.000 NA
ATOM      8  N   UNL     1      -0.221  11.023  19.469  0.00  0.00    +0.000 N 
ATOM      9  C   UNL     1       1.424   8.166  20.754  0.00  0.00    +0.000 A 
ENDROOT
BRANCH   1  10
ATOM     10  N   UNL     1       2.985   6.490  19.771  0.00  0.00    +0.000 N 
ATOM     11  H   UNL     1       3.550   6.422  20.632  0.00  0.00    +0.000 HD
BRANCH  10  18
ATOM     12  C   UNL     1       5.971   4.631  15.918  0.00  0.00    +0.000 A 
ATOM     13  C   UNL     1       4.895   3.737  16.113  0.00  0.00    +0.000 A 
ATOM     14  C   UNL     1       3.926   3.983  17.092  0.00  0.00    +0.000 A 
ATOM     15  N   UNL     1       2.897   3.107  17.246  0.00  0.00    +0.000 NA
ATOM     16  C   UNL     1       1.937   3.289  18.186  0.00  0.00    +0.000 A 
ATOM     17  C   UNL     1       1.976   4.404  19.023  0.00  0.00    +0.000 A 
ATOM     18  C   UNL     1       2.999   5.357  18.890  0.00  0.00    +0.000 A 
ATOM     19  C   UNL     1       4.015   5.128  17.917  0.00  0.00    +0.000 A 
ATOM     20  C   UNL     1       5.125   5.970  17.758  0.00  0.00    +0.000 A 
ATOM     21  C   UNL     1       6.085   5.757  16.772  0.00  0.00    +0.000 A 
BRANCH  12  23
ATOM     22  C   UNL     1       6.580   4.135  13.603  0.00  0.00    +0.000 C 
ATOM     23  O   UNL     1       6.872   4.449  14.917  0.00  0.00    +0.000 OA
ENDBRANCH  12  23
BRANCH  21  24
ATOM     24  O   UNL     1       7.060   6.701  16.693  0.00  0.00    +0.000 OA
ATOM     25  C   UNL     1       7.355   7.713  17.573  0.00  0.00    +0.000 C 
ENDBRANCH  21  24
ENDBRANCH  10  18
ENDBRANCH   1  10
BRANCH   8  26
ATOM     26  C   UNL     1      -0.585  12.015  18.453  0.00  0.00    +0.000 C 
BRANCH  26  27
ATOM     27  C   UNL     1       0.289  13.236  18.549  0.00  0.00    +0.000 A 
ATOM     28  C   UNL     1       1.653  13.155  18.220  0.00  0.00    +0.000 A 
ATOM     29  C   UNL     1       2.470  14.284  18.318  0.00  0.00    +0.000 A 
ATOM     30  C   UNL     1       1.932  15.504  18.741  0.00  0.00    +0.000 A 
ATOM     31  C   UNL     1       0.574  15.597  19.058  0.00  0.00    +0.000 A 
ATOM     32  F   UNL     1       0.053  16.781  19.464  0.00  0.00    +0.000 F 
ATOM     33  C   UNL     1      -0.247  14.468  18.961  0.00  0.00    +0.000 A 
ENDBRANCH  26  27
ENDBRANCH   8  26
TORSDOF 6
ENDMDL
MODEL 5
REMARK VINA RESULT:      -8.9      1.329      1.625
REMARK  Name = 
REMARK  8 active torsions:
REMARK  status: ('A' for Active; 'I' for Inactive)
REMARK    1  A    between atoms: C_1  and  O_2
REMARK    2  A    between atoms: O_2  and  C_3
REMARK    3  A    between atoms: C_9  and  N_10
REMARK    4  A    between atoms: N_10  and  C_11
REMARK    5  A    between atoms: N_18  and  C_19
REMARK    6  A    between atoms: C_19  and  C_20
REMARK    7  A    between atoms: C_30  and  O_31
REMARK    8  A    between atoms: O_31  and  C_32
REMARK                            x       y       z     vdW  Elec       q    Type
REMARK                         _______ _______ _______ _____ _____    ______ ____
ROOT
ATOM      1  C   UNL     1       2.177   7.443  19.953  0.00  0.00    +0.000 A 
ATOM      2  C   UNL     1       2.095   8.290  18.816  0.00  0.00    +0.000 A 
ATOM      3  C   UNL     1       1.269   9.434  18.815  0.00  0.00    +0.000 A 
ATOM      4  C   UNL     1       0.558   9.724  19.980  0.00  0.00    +0.000 A 
ATOM      5  C   UNL     1       0.639   8.921  21.078  0.00  0.00    +0.000 A 
ATOM      6  C   UNL     1      -0.171   9.498  22.034  0.00  0.00    +0.000 A 
ATOM      7  N   UNL     1      -0.712  10.618  21.503  0.00  0.00    +0.000 NA
ATOM      8  N   UNL     1      -0.274  10.753  20.253  0.00  0.00    +0.000 N 
ATOM      9  C   UNL     1       1.429   7.774  21.115  0.00  0.00    +0.000 A 
ENDROOT
BRANCH   1  10
ATOM     10  N   UNL     1       3.037   6.299  19.911  0.00  0.00    +0.000 N 
ATOM     11  H   UNL     1       3.585   6.107  20.764  0.00  0.00    +0.000 HD
BRANCH  10  18
ATOM     12  C   UNL     1       6.415   4.786  16.234  0.00  0.00    +0.000 A 
ATOM     13  C   UNL     1       5.260   3.981  16.131  0.00  0.00    +0.000 A 
ATOM     14  C   UNL     1       4.177   4.162  16.999  0.00  0.00    +0.000 A 
ATOM     15  N   UNL     1       3.075   3.376  16.864  0.00  0.00    +0.000 NA
ATOM     16  C   UNL     1       2.003   3.500  17.684  0.00  0.00    +0.000 A 
ATOM     17  C   UNL     1       2.000   4.462  18.694  0.00  0.00    +0.000 A 
ATOM     18  C   UNL     1       3.098   5.321  18.862  0.00  0.00    +0.000 A 
ATOM     19  C   UNL     1       4.226   5.150  18.008  0.00  0.00    +0.000 A 
ATOM     20  C   UNL     1       5.407   5.897  18.143  0.00  0.00    +0.000 A 
ATOM     21  C   UNL     1       6.483   5.748  17.273  0.00  0.00    +0.000 A 
BRANCH  12  23
ATOM     22  C   UNL     1       7.368   4.915  13.987  0.00  0.00    +0.000 C 
ATOM     23  O   UNL     1       7.438   4.677  15.346  0.00  0.00    +0.000 OA
ENDBRANCH  12  23
BRANCH  21  24
ATOM     24  O   UNL     1       7.526   6.596  17.485  0.00  0.00    +0.000 OA
ATOM     25  C   UNL     1       7.550   7.968  17.427  0.00  0.00    +0.000 C 
ENDBRANCH  21  24
ENDBRANCH  10  18
ENDBRANCH   1  10
BRANCH   8  26
ATOM     26  C   UNL     1      -0.655  11.877  19.392  0.00  0.00    +0.000 C 
BRANCH  26  27
ATOM     27  C   UNL     1      -2.130  11.857  19.095  0.00  0.00    +0.000 A 
ATOM     28  C   UNL     1      -2.614  11.165  17.971  0.00  0.00    +0.000 A 
ATOM     29  C   UNL     1      -3.982  11.154  17.686  0.00  0.00    +0.000 A 
ATOM     30  C   UNL     1      -4.878  11.828  18.521  0.00  0.00    +0.000 A 
ATOM     31  C   UNL     1      -4.407  12.508  19.648  0.00  0.00    +0.000 A 
ATOM     32  F   UNL     1      -5.277  13.158  20.459  0.00  0.00    +0.000 F 
ATOM     33  C   UNL     1      -3.038  12.522  19.936  0.00  0.00    +0.000 A 
ENDBRANCH  26  27
ENDBRANCH   8  26
TORSDOF 6
ENDMDL
MODEL 6
REMARK VINA RESULT:      -8.8      3.815      9.273
REMARK  Name = 
REMARK  8 active torsions:
REMARK  status: ('A' for Active; 'I' for Inactive)
REMARK    1  A    between atoms: C_1  and  O_2
REMARK    2  A    between atoms: O_2  and  C_3
REMARK    3  A    between atoms: C_9  and  N_10
REMARK    4  A    between atoms: N_10  and  C_11
REMARK    5  A    between atoms: N_18  and  C_19
REMARK    6  A    between atoms: C_19  and  C_20
REMARK    7  A    between atoms: C_30  and  O_31
REMARK    8  A    between atoms: O_31  and  C_32
REMARK                            x       y       z     vdW  Elec       q    Type
REMARK                         _______ _______ _______ _____ _____    ______ ____
ROOT
ATOM      1  C   UNL     1       1.764   9.164  18.623  0.00  0.00    +0.000 A 
ATOM      2  C   UNL     1       2.479   8.485  17.602  0.00  0.00    +0.000 A 
ATOM      3  C   UNL     1       2.904   7.151  17.771  0.00  0.00    +0.000 A 
ATOM      4  C   UNL     1       2.571   6.508  18.964  0.00  0.00    +0.000 A 
ATOM      5  C   UNL     1       1.878   7.151  19.944  0.00  0.00    +0.000 A 
ATOM      6  C   UNL     1       1.717   6.234  20.963  0.00  0.00    +0.000 A 
ATOM      7  N   UNL     1       2.306   5.078  20.581  0.00  0.00    +0.000 NA
ATOM      8  N   UNL     1       2.830   5.245  19.368  0.00  0.00    +0.000 N 
ATOM      9  C   UNL     1       1.453   8.473  19.825  0.00  0.00    +0.000 A 
ENDROOT
BRANCH   1  10
ATOM     10  N   UNL     1       1.344  10.516  18.402  0.00  0.00    +0.000 N 
ATOM     11  H   UNL     1       1.796  11.013  17.619  0.00  0.00    +0.000 HD
BRANCH  10  18
ATOM     12  C   UNL     1      -3.794  11.142  17.750  0.00  0.00    +0.000 A 
ATOM     13  C   UNL     1      -3.409  11.842  18.914  0.00  0.00    +0.000 A 
ATOM     14  C   UNL     1      -2.075  11.850  19.338  0.00  0.00    +0.000 A 
ATOM     15  N   UNL     1      -1.736  12.544  20.458  0.00  0.00    +0.000 NA
ATOM     16  C   UNL     1      -0.463  12.575  20.922  0.00  0.00    +0.000 A 
ATOM     17  C   UNL     1       0.549  11.897  20.244  0.00  0.00    +0.000 A 
ATOM     18  C   UNL     1       0.263  11.188  19.066  0.00  0.00    +0.000 A 
ATOM     19  C   UNL     1      -1.089  11.142  18.615  0.00  0.00    +0.000 A 
ATOM     20  C   UNL     1      -1.497  10.395  17.500  0.00  0.00    +0.000 A 
ATOM     21  C   UNL     1      -2.814  10.397  17.047  0.00  0.00    +0.000 A 
BRANCH  12  23
ATOM     22  C   UNL     1      -5.854  12.327  17.175  0.00  0.00    +0.000 C 
ATOM     23  O   UNL     1      -5.069  11.195  17.279  0.00  0.00    +0.000 OA
ENDBRANCH  12  23
BRANCH  21  24
ATOM     24  O   UNL     1      -3.040   9.686  15.910  0.00  0.00    +0.000 OA
ATOM     25  C   UNL     1      -3.132  10.133  14.615  0.00  0.00    +0.000 C 
ENDBRANCH  21  24
ENDBRANCH  10  18
ENDBRANCH   1  10
BRANCH   8  26
ATOM     26  C   UNL     1       3.529   4.177  18.648  0.00  0.00    +0.000 C 
BRANCH  26  27
ATOM     27  C   UNL     1       4.956   4.560  18.361  0.00  0.00    +0.000 A 
ATOM     28  C   UNL     1       5.736   5.173  19.356  0.00  0.00    +0.000 A 
ATOM     29  C   UNL     1       7.058   5.539  19.090  0.00  0.00    +0.000 A 
ATOM     30  C   UNL     1       7.613   5.294  17.830  0.00  0.00    +0.000 A 
ATOM     31  C   UNL     1       6.848   4.673  16.838  0.00  0.00    +0.000 A 
ATOM     32  F   UNL     1       7.389   4.431  15.618  0.00  0.00    +0.000 F 
ATOM     33  C   UNL     1       5.525   4.305  17.101  0.00  0.00    +0.000 A 
ENDBRANCH  26  27
ENDBRANCH   8  26
TORSDOF 6
ENDMDL
MODEL 7
REMARK VINA RESULT:      -8.6      3.957      9.461
REMARK  Name = 
REMARK  8 active torsions:
REMARK  status: ('A' for Active; 'I' for Inactive)
REMARK    1  A    between atoms: C_1  and  O_2
REMARK    2  A    between atoms: O_2  and  C_3
REMARK    3  A    between atoms: C_9  and  N_10
REMARK    4  A    between atoms: N_10  and  C_11
REMARK    5  A    between atoms: N_18  and  C_19
REMARK    6  A    between atoms: C_19  and  C_20
REMARK    7  A    between atoms: C_30  and  O_31
REMARK    8  A    between atoms: O_31  and  C_32
REMARK                            x       y       z     vdW  Elec       q    Type
REMARK                         _______ _______ _______ _____ _____    ______ ____
ROOT
ATOM      1  C   UNL     1       1.270  10.263  18.980  0.00  0.00    +0.000 A 
ATOM      2  C   UNL     1       1.925   9.765  17.823  0.00  0.00    +0.000 A 
ATOM      3  C   UNL     1       2.416   8.444  17.773  0.00  0.00    +0.000 A 
ATOM      4  C   UNL     1       2.211   7.631  18.888  0.00  0.00    +0.000 A 
ATOM      5  C   UNL     1       1.576   8.099  19.998  0.00  0.00    +0.000 A 
ATOM      6  C   UNL     1       1.539   7.047  20.890  0.00  0.00    +0.000 A 
ATOM      7  N   UNL     1       2.140   5.984  20.308  0.00  0.00    +0.000 NA
ATOM      8  N   UNL     1       2.554   6.340  19.094  0.00  0.00    +0.000 N 
ATOM      9  C   UNL     1       1.090   9.401  20.096  0.00  0.00    +0.000 A 
ENDROOT
BRANCH   1  10
ATOM     10  N   UNL     1       0.779  11.608  18.981  0.00  0.00    +0.000 N 
ATOM     11  H   UNL     1       1.285  12.280  18.383  0.00  0.00    +0.000 HD
BRANCH  10  18
ATOM     12  C   UNL     1      -4.365  11.358  18.144  0.00  0.00    +0.000 A 
ATOM     13  C   UNL     1      -4.145  12.092  19.331  0.00  0.00    +0.000 A 
ATOM     14  C   UNL     1      -2.849  12.319  19.805  0.00  0.00    +0.000 A 
ATOM     15  N   UNL     1      -2.673  13.038  20.946  0.00  0.00    +0.000 NA
ATOM     16  C   UNL     1      -1.441  13.278  21.458  0.00  0.00    +0.000 A 
ATOM     17  C   UNL     1      -0.305  12.796  20.809  0.00  0.00    +0.000 A 
ATOM     18  C   UNL     1      -0.424  12.072  19.612  0.00  0.00    +0.000 A 
ATOM     19  C   UNL     1      -1.731  11.805  19.110  0.00  0.00    +0.000 A 
ATOM     20  C   UNL     1      -1.966  11.021  17.970  0.00  0.00    +0.000 A 
ATOM     21  C   UNL     1      -3.247  10.807  17.468  0.00  0.00    +0.000 A 
BRANCH  12  23
ATOM     22  C   UNL     1      -6.757  10.896  18.336  0.00  0.00    +0.000 C 
ATOM     23  O   UNL     1      -5.612  11.202  17.626  0.00  0.00    +0.000 OA
ENDBRANCH  12  23
BRANCH  21  24
ATOM     24  O   UNL     1      -3.308  10.089  16.314  0.00  0.00    +0.000 OA
ATOM     25  C   UNL     1      -3.161  10.523  15.019  0.00  0.00    +0.000 C 
ENDBRANCH  21  24
ENDBRANCH  10  18
ENDBRANCH   1  10
BRANCH   8  26
ATOM     26  C   UNL     1       3.234   5.416  18.181  0.00  0.00    +0.000 C 
BRANCH  26  27
ATOM     27  C   UNL     1       4.712   5.696  18.126  0.00  0.00    +0.000 A 
ATOM     28  C   UNL     1       5.284   6.240  16.963  0.00  0.00    +0.000 A 
ATOM     29  C   UNL     1       6.657   6.491  16.905  0.00  0.00    +0.000 A 
ATOM     30  C   UNL     1       7.469   6.205  18.006  0.00  0.00    +0.000 A 
ATOM     31  C   UNL     1       6.907   5.676  19.171  0.00  0.00    +0.000 A 
ATOM     32  F   UNL     1       7.695   5.403  20.240  0.00  0.00    +0.000 F 
ATOM     33  C   UNL     1       5.532   5.423  19.233  0.00  0.00    +0.000 A 
ENDBRANCH  26  27
ENDBRANCH   8  26
TORSDOF 6
ENDMDL
MODEL 8
REMARK VINA RESULT:      -8.6      1.297      1.952
REMARK  Name = 
REMARK  8 active torsions:
REMARK  status: ('A' for Active; 'I' for Inactive)
REMARK    1  A    between atoms: C_1  and  O_2
REMARK    2  A    between atoms: O_2  and  C_3
REMARK    3  A    between atoms: C_9  and  N_10
REMARK    4  A    between atoms: N_10  and  C_11
REMARK    5  A    between atoms: N_18  and  C_19
REMARK    6  A    between atoms: C_19  and  C_20
REMARK    7  A    between atoms: C_30  and  O_31
REMARK    8  A    between atoms: O_31  and  C_32
REMARK                            x       y       z     vdW  Elec       q    Type
REMARK                         _______ _______ _______ _____ _____    ______ ____
ROOT
ATOM      1  C   UNL     1       1.572   7.519  20.652  0.00  0.00    +0.000 A 
ATOM      2  C   UNL     1       0.598   8.060  21.532  0.00  0.00    +0.000 A 
ATOM      3  C   UNL     1       0.014   9.321  21.290  0.00  0.00    +0.000 A 
ATOM      4  C   UNL     1       0.403  10.008  20.139  0.00  0.00    +0.000 A 
ATOM      5  C   UNL     1       1.330   9.491  19.286  0.00  0.00    +0.000 A 
ATOM      6  C   UNL     1       1.468  10.412  18.268  0.00  0.00    +0.000 A 
ATOM      7  N   UNL     1       0.634  11.446  18.523  0.00  0.00    +0.000 NA
ATOM      8  N   UNL     1      -0.010  11.204  19.663  0.00  0.00    +0.000 N 
ATOM      9  C   UNL     1       1.943   8.258  19.496  0.00  0.00    +0.000 A 
ENDROOT
BRANCH   1  10
ATOM     10  N   UNL     1       2.130   6.231  20.934  0.00  0.00    +0.000 N 
ATOM     11  H   UNL     1       2.525   6.100  21.878  0.00  0.00    +0.000 HD
BRANCH  10  18
ATOM     12  C   UNL     1       4.950   4.062  17.118  0.00  0.00    +0.000 A 
ATOM     13  C   UNL     1       3.819   3.248  17.348  0.00  0.00    +0.000 A 
ATOM     14  C   UNL     1       2.878   3.587  18.327  0.00  0.00    +0.000 A 
ATOM     15  N   UNL     1       1.795   2.786  18.516  0.00  0.00    +0.000 NA
ATOM     16  C   UNL     1       0.858   3.060  19.457  0.00  0.00    +0.000 A 
ATOM     17  C   UNL     1       0.979   4.194  20.258  0.00  0.00    +0.000 A 
ATOM     18  C   UNL     1       2.061   5.073  20.088  0.00  0.00    +0.000 A 
ATOM     19  C   UNL     1       3.050   4.748  19.115  0.00  0.00    +0.000 A 
ATOM     20  C   UNL     1       4.212   5.510  18.922  0.00  0.00    +0.000 A 
ATOM     21  C   UNL     1       5.145   5.204  17.936  0.00  0.00    +0.000 A 
BRANCH  12  23
ATOM     22  C   UNL     1       5.777   4.293  14.829  0.00  0.00    +0.000 C 
ATOM     23  O   UNL     1       5.828   3.791  16.115  0.00  0.00    +0.000 OA
ENDBRANCH  12  23
BRANCH  21  24
ATOM     24  O   UNL     1       6.180   6.079  17.820  0.00  0.00    +0.000 OA
ATOM     25  C   UNL     1       7.433   6.013  18.378  0.00  0.00    +0.000 C 
ENDBRANCH  21  24
ENDBRANCH  10  18
ENDBRANCH   1  10
BRANCH   8  26
ATOM     26  C   UNL     1      -1.008  12.119  20.225  0.00  0.00    +0.000 C 
BRANCH  26  27
ATOM     27  C   UNL     1      -2.342  11.947  19.550  0.00  0.00    +0.000 A 
ATOM     28  C   UNL     1      -3.487  12.565  20.083  0.00  0.00    +0.000 A 
ATOM     29  C   UNL     1      -4.729  12.399  19.465  0.00  0.00    +0.000 A 
ATOM     30  C   UNL     1      -4.839  11.620  18.309  0.00  0.00    +0.000 A 
ATOM     31  C   UNL     1      -3.703  11.012  17.766  0.00  0.00    +0.000 A 
ATOM     32  F   UNL     1      -3.810  10.260  16.643  0.00  0.00    +0.000 F 
ATOM     33  C   UNL     1      -2.458  11.176  18.382  0.00  0.00    +0.000 A 
ENDBRANCH  26  27
ENDBRANCH   8  26
TORSDOF 6
ENDMDL
MODEL 9
REMARK VINA RESULT:      -8.6      2.508      3.492
REMARK  Name = 
REMARK  8 active torsions:
REMARK  status: ('A' for Active; 'I' for Inactive)
REMARK    1  A    between atoms: C_1  and  O_2
REMARK    2  A    between atoms: O_2  and  C_3
REMARK    3  A    between atoms: C_9  and  N_10
REMARK    4  A    between atoms: N_10  and  C_11
REMARK    5  A    between atoms: N_18  and  C_19
REMARK    6  A    between atoms: C_19  and  C_20
REMARK    7  A    between atoms: C_30  and  O_31
REMARK    8  A    between atoms: O_31  and  C_32
REMARK                            x       y       z     vdW  Elec       q    Type
REMARK                         _______ _______ _______ _____ _____    ______ ____
ROOT
ATOM      1  C   UNL     1       1.853   7.392  20.233  0.00  0.00    +0.000 A 
ATOM      2  C   UNL     1       2.055   8.172  19.065  0.00  0.00    +0.000 A 
ATOM      3  C   UNL     1       1.501   9.463  18.943  0.00  0.00    +0.000 A 
ATOM      4  C   UNL     1       0.770   9.962  20.023  0.00  0.00    +0.000 A 
ATOM      5  C   UNL     1       0.580   9.223  21.151  0.00  0.00    +0.000 A 
ATOM      6  C   UNL     1      -0.166  10.010  22.003  0.00  0.00    +0.000 A 
ATOM      7  N   UNL     1      -0.403  11.188  21.383  0.00  0.00    +0.000 NA
ATOM      8  N   UNL     1       0.161  11.158  20.177  0.00  0.00    +0.000 N 
ATOM      9  C   UNL     1       1.096   7.937  21.306  0.00  0.00    +0.000 A 
ENDROOT
BRANCH   1  10
ATOM     10  N   UNL     1       2.444   6.090  20.316  0.00  0.00    +0.000 N 
ATOM     11  H   UNL     1       2.748   5.784  21.253  0.00  0.00    +0.000 HD
BRANCH  10  18
ATOM     12  C   UNL     1       5.935   4.503  16.778  0.00  0.00    +0.000 A 
ATOM     13  C   UNL     1       4.759   3.741  16.610  0.00  0.00    +0.000 A 
ATOM     14  C   UNL     1       3.644   3.950  17.430  0.00  0.00    +0.000 A 
ATOM     15  N   UNL     1       2.523   3.206  17.233  0.00  0.00    +0.000 NA
ATOM     16  C   UNL     1       1.419   3.358  18.005  0.00  0.00    +0.000 A 
ATOM     17  C   UNL     1       1.401   4.306  19.027  0.00  0.00    +0.000 A 
ATOM     18  C   UNL     1       2.520   5.123  19.257  0.00  0.00    +0.000 A 
ATOM     19  C   UNL     1       3.680   4.923  18.454  0.00  0.00    +0.000 A 
ATOM     20  C   UNL     1       4.878   5.626  18.654  0.00  0.00    +0.000 A 
ATOM     21  C   UNL     1       5.988   5.450  17.832  0.00  0.00    +0.000 A 
BRANCH  12  23
ATOM     22  C   UNL     1       7.050   4.788  14.621  0.00  0.00    +0.000 C 
ATOM     23  O   UNL     1       6.995   4.369  15.937  0.00  0.00    +0.000 OA
ENDBRANCH  12  23
BRANCH  21  24
ATOM     24  O   UNL     1       7.049   6.257  18.104  0.00  0.00    +0.000 OA
ATOM     25  C   UNL     1       7.440   7.412  17.472  0.00  0.00    +0.000 C 
ENDBRANCH  21  24
ENDBRANCH  10  18
ENDBRANCH   1  10
BRANCH   8  26
ATOM     26  C   UNL     1       0.109  12.288  19.245  0.00  0.00    +0.000 C 
BRANCH  26  27
ATOM     27  C   UNL     1       1.358  13.122  19.333  0.00  0.00    +0.000 A 
ATOM     28  C   UNL     1       2.018  13.277  20.564  0.00  0.00    +0.000 A 
ATOM     29  C   UNL     1       3.172  14.059  20.651  0.00  0.00    +0.000 A 
ATOM     30  C   UNL     1       3.680  14.690  19.511  0.00  0.00    +0.000 A 
ATOM     31  C   UNL     1       3.037  14.530  18.280  0.00  0.00    +0.000 A 
ATOM     32  F   UNL     1       3.533  15.138  17.174  0.00  0.00    +0.000 F 
ATOM     33  C   UNL     1       1.882  13.748  18.189  0.00  0.00    +0.000 A 
ENDBRANCH  26  27
ENDBRANCH   8  26
TORSDOF 6
ENDMDL
