MODEL 1
REMARK VINA RESULT:      -8.7      0.000      0.000
REMARK  Name = 
REMARK  5 active torsions:
REMARK  status: ('A' for Active; 'I' for Inactive)
REMARK    1  A    between atoms: C_5  and  N_6
REMARK    2  A    between atoms: C_8  and  C_9
REMARK    3  A    between atoms: C_9  and  N_10
REMARK    4  A    between atoms: C_12  and  C_13
REMARK    5  A    between atoms: C_21  and  C_22
REMARK                            x       y       z     vdW  Elec       q    Type
REMARK                         _______ _______ _______ _____ _____    ______ ____
ROOT
ATOM      1  N   UNL     1       4.528   4.760  17.865  0.00  0.00    +0.000 N 
ATOM      2  C   UNL     1       5.024   6.041  17.849  0.00  0.00    +0.000 A 
ATOM      3  C   UNL     1       5.747   6.196  16.690  0.00  0.00    +0.000 A 
ATOM      4  C   UNL     1       5.584   4.958  15.990  0.00  0.00    +0.000 A 
ATOM      5  N   UNL     1       4.885   4.089  16.738  0.00  0.00    +0.000 NA
ENDROOT
BRANCH   1  10
ATOM      6 CL   UNL     1       1.206   2.357  22.168  0.00  0.00    +0.000 Cl
ATOM      7  C   UNL     1       2.157   3.041  20.911  0.00  0.00    +0.000 A 
ATOM      8  C   UNL     1       3.434   2.546  20.668  0.00  0.00    +0.000 A 
ATOM      9  C   UNL     1       4.216   3.103  19.654  0.00  0.00    +0.000 A 
ATOM     10  C   UNL     1       3.724   4.171  18.882  0.00  0.00    +0.000 A 
ATOM     11  C   UNL     1       2.430   4.659  19.131  0.00  0.00    +0.000 A 
ATOM     12  C   UNL     1       1.652   4.088  20.144  0.00  0.00    +0.000 A 
ENDBRANCH   1  10
BRANCH   4  13
ATOM     13  C   UNL     1       6.080   4.610  14.645  0.00  0.00    +0.000 A 
ATOM     14  C   UNL     1       7.274   5.135  14.150  0.00  0.00    +0.000 A 
ATOM     15  C   UNL     1       7.679   4.855  12.834  0.00  0.00    +0.000 A 
ATOM     16  C   UNL     1       6.903   4.047  12.007  0.00  0.00    +0.000 A 
ATOM     17  C   UNL     1       5.735   3.483  12.496  0.00  0.00    +0.000 A 
ATOM     18  C   UNL     1       5.351   3.752  13.806  0.00  0.00    +0.000 A 
ENDBRANCH   4  13
BRANCH   3  19
ATOM     19  C   UNL     1       6.485   7.427  16.280  0.00  0.00    +0.000 C 
BRANCH  19  20
ATOM     20  N   UNL     1       7.309   7.972  17.350  0.00  0.00    +0.000 N 
ATOM     21  C   UNL     1       7.726   9.258  17.558  0.00  0.00    +0.000 A 
ATOM     22  C   UNL     1       8.617   9.160  18.598  0.00  0.00    +0.000 A 
ATOM     23  N   UNL     1       8.696   7.854  19.001  0.00  0.00    +0.000 NA
ATOM     24  N   UNL     1       7.905   7.130  18.217  0.00  0.00    +0.000 NA
BRANCH  22  25
ATOM     25  C   UNL     1       9.333  10.263  19.199  0.00  0.00    +0.000 A 
ATOM     26  C   UNL     1      10.241  10.994  18.426  0.00  0.00    +0.000 A 
ATOM     27  C   UNL     1      10.992  12.019  19.002  0.00  0.00    +0.000 A 
ATOM     28  C   UNL     1      10.830  12.330  20.351  0.00  0.00    +0.000 A 
ATOM     29  C   UNL     1       9.913  11.624  21.124  0.00  0.00    +0.000 A 
ATOM     30  C   UNL     1       9.165  10.595  20.553  0.00  0.00    +0.000 A 
ENDBRANCH  22  25
ENDBRANCH  19  20
ENDBRANCH   3  19
TORSDOF 5
ENDMDL
MODEL 2
REMARK VINA RESULT:      -8.6      0.328      1.243
REMARK  Name = 
REMARK  5 active torsions:
REMARK  status: ('A' for Active; 'I' for Inactive)
REMARK    1  A    between atoms: C_5  and  N_6
REMARK    2  A    between atoms: C_8  and  C_9
REMARK    3  A    between atoms: C_9  and  N_10
REMARK    4  A    between atoms: C_12  and  C_13
REMARK    5  A    between atoms: C_21  and  C_22
REMARK                            x       y       z     vdW  Elec       q    Type
REMARK                         _______ _______ _______ _____ _____    ______ ____
ROOT
ATOM      1  N   UNL     1       4.436   4.844  18.055  0.00  0.00    +0.000 N 
ATOM      2  C   UNL     1       4.871   6.146  17.991  0.00  0.00    +0.000 A 
ATOM      3  C   UNL     1       5.591   6.291  16.829  0.00  0.00    +0.000 A 
ATOM      4  C   UNL     1       5.492   5.021  16.177  0.00  0.00    +0.000 A 
ATOM      5  N   UNL     1       4.831   4.148  16.956  0.00  0.00    +0.000 NA
ENDROOT
BRANCH   1  10
ATOM      6 CL   UNL     1       1.120   2.375  22.325  0.00  0.00    +0.000 Cl
ATOM      7  C   UNL     1       2.094   3.090  21.103  0.00  0.00    +0.000 A 
ATOM      8  C   UNL     1       1.953   4.444  20.816  0.00  0.00    +0.000 A 
ATOM      9  C   UNL     1       2.733   5.030  19.818  0.00  0.00    +0.000 A 
ATOM     10  C   UNL     1       3.657   4.256  19.091  0.00  0.00    +0.000 A 
ATOM     11  C   UNL     1       3.797   2.891  19.394  0.00  0.00    +0.000 A 
ATOM     12  C   UNL     1       3.015   2.316  20.401  0.00  0.00    +0.000 A 
ENDBRANCH   1  10
BRANCH   4  13
ATOM     13  C   UNL     1       6.010   4.645  14.848  0.00  0.00    +0.000 A 
ATOM     14  C   UNL     1       7.235   5.125  14.381  0.00  0.00    +0.000 A 
ATOM     15  C   UNL     1       7.664   4.821  13.079  0.00  0.00    +0.000 A 
ATOM     16  C   UNL     1       6.883   4.034  12.236  0.00  0.00    +0.000 A 
ATOM     17  C   UNL     1       5.684   3.515  12.698  0.00  0.00    +0.000 A 
ATOM     18  C   UNL     1       5.275   3.807  13.996  0.00  0.00    +0.000 A 
ENDBRANCH   4  13
BRANCH   3  19
ATOM     19  C   UNL     1       6.272   7.539  16.375  0.00  0.00    +0.000 C 
BRANCH  19  20
ATOM     20  N   UNL     1       7.192   8.074  17.370  0.00  0.00    +0.000 N 
ATOM     21  C   UNL     1       7.638   9.354  17.542  0.00  0.00    +0.000 A 
ATOM     22  C   UNL     1       8.615   9.246  18.500  0.00  0.00    +0.000 A 
ATOM     23  N   UNL     1       8.715   7.938  18.893  0.00  0.00    +0.000 NA
ATOM     24  N   UNL     1       7.851   7.224  18.180  0.00  0.00    +0.000 NA
BRANCH  22  25
ATOM     25  C   UNL     1       9.392  10.340  19.039  0.00  0.00    +0.000 A 
ATOM     26  C   UNL     1       9.312  10.629  20.405  0.00  0.00    +0.000 A 
ATOM     27  C   UNL     1      10.001  11.720  20.936  0.00  0.00    +0.000 A 
ATOM     28  C   UNL     1      10.786  12.521  20.108  0.00  0.00    +0.000 A 
ATOM     29  C   UNL     1      10.891  12.227  18.751  0.00  0.00    +0.000 A 
ATOM     30  C   UNL     1      10.199  11.141  18.216  0.00  0.00    +0.000 A 
ENDBRANCH  22  25
ENDBRANCH  19  20
ENDBRANCH   3  19
TORSDOF 5
ENDMDL
MODEL 3
REMARK VINA RESULT:      -8.6      3.462      4.948
REMARK  Name = 
REMARK  5 active torsions:
REMARK  status: ('A' for Active; 'I' for Inactive)
REMARK    1  A    between atoms: C_5  and  N_6
REMARK    2  A    between atoms: C_8  and  C_9
REMARK    3  A    between atoms: C_9  and  N_10
REMARK    4  A    between atoms: C_12  and  C_13
REMARK    5  A    between atoms: C_21  and  C_22
REMARK                            x       y       z     vdW  Elec       q    Type
REMARK                         _______ _______ _______ _____ _____    ______ ____
ROOT
ATOM      1  N   UNL     1       2.252   7.706  18.804  0.00  0.00    +0.000 N 
ATOM      2  C   UNL     1       3.217   7.857  17.837  0.00  0.00    +0.000 A 
ATOM      3  C   UNL     1       3.788   6.625  17.622  0.00  0.00    +0.000 A 
ATOM      4  C   UNL     1       3.053   5.729  18.461  0.00  0.00    +0.000 A 
ATOM      5  N   UNL     1       2.163   6.409  19.202  0.00  0.00    +0.000 NA
ENDROOT
BRANCH   1  10
ATOM      6 CL   UNL     1      -1.314  11.922  21.004  0.00  0.00    +0.000 Cl
ATOM      7  C   UNL     1      -0.268  10.713  20.375  0.00  0.00    +0.000 A 
ATOM      8  C   UNL     1       0.078  10.736  19.028  0.00  0.00    +0.000 A 
ATOM      9  C   UNL     1       0.920   9.752  18.507  0.00  0.00    +0.000 A 
ATOM     10  C   UNL     1       1.414   8.728  19.336  0.00  0.00    +0.000 A 
ATOM     11  C   UNL     1       1.065   8.717  20.697  0.00  0.00    +0.000 A 
ATOM     12  C   UNL     1       0.226   9.713  21.210  0.00  0.00    +0.000 A 
ENDBRANCH   1  10
BRANCH   4  13
ATOM     13  C   UNL     1       3.192   4.263  18.557  0.00  0.00    +0.000 A 
ATOM     14  C   UNL     1       4.041   3.672  19.493  0.00  0.00    +0.000 A 
ATOM     15  C   UNL     1       4.219   2.278  19.506  0.00  0.00    +0.000 A 
ATOM     16  C   UNL     1       3.550   1.466  18.594  0.00  0.00    +0.000 A 
ATOM     17  C   UNL     1       2.671   2.033  17.686  0.00  0.00    +0.000 A 
ATOM     18  C   UNL     1       2.487   3.412  17.692  0.00  0.00    +0.000 A 
ENDBRANCH   4  13
BRANCH   3  19
ATOM     19  C   UNL     1       4.903   6.334  16.672  0.00  0.00    +0.000 C 
BRANCH  19  20
ATOM     20  N   UNL     1       6.138   7.022  17.025  0.00  0.00    +0.000 N 
ATOM     21  C   UNL     1       6.315   8.209  17.678  0.00  0.00    +0.000 A 
ATOM     22  C   UNL     1       7.661   8.456  17.571  0.00  0.00    +0.000 A 
ATOM     23  N   UNL     1       8.255   7.424  16.895  0.00  0.00    +0.000 NA
ATOM     24  N   UNL     1       7.309   6.558  16.547  0.00  0.00    +0.000 NA
BRANCH  22  25
ATOM     25  C   UNL     1       8.354   9.603  18.115  0.00  0.00    +0.000 A 
ATOM     26  C   UNL     1       8.259  10.835  17.459  0.00  0.00    +0.000 A 
ATOM     27  C   UNL     1       8.971  11.940  17.928  0.00  0.00    +0.000 A 
ATOM     28  C   UNL     1       9.771  11.824  19.064  0.00  0.00    +0.000 A 
ATOM     29  C   UNL     1       9.854  10.608  19.737  0.00  0.00    +0.000 A 
ATOM     30  C   UNL     1       9.148   9.501  19.268  0.00  0.00    +0.000 A 
ENDBRANCH  22  25
ENDBRANCH  19  20
ENDBRANCH   3  19
TORSDOF 5
ENDMDL
MODEL 4
REMARK VINA RESULT:      -8.5      3.447      4.906
REMARK  Name = 
REMARK  5 active torsions:
REMARK  status: ('A' for Active; 'I' for Inactive)
REMARK    1  A    between atoms: C_5  and  N_6
REMARK    2  A    between atoms: C_8  and  C_9
REMARK    3  A    between atoms: C_9  and  N_10
REMARK    4  A    between atoms: C_12  and  C_13
REMARK    5  A    between atoms: C_21  and  C_22
REMARK                            x       y       z     vdW  Elec       q    Type
REMARK                         _______ _______ _______ _____ _____    ______ ____
ROOT
ATOM      1  N   UNL     1       2.308   7.825  18.539  0.00  0.00    +0.000 N 
ATOM      2  C   UNL     1       3.443   8.059  17.799  0.00  0.00    +0.000 A 
ATOM      3  C   UNL     1       4.086   6.856  17.629  0.00  0.00    +0.000 A 
ATOM      4  C   UNL     1       3.227   5.892  18.245  0.00  0.00    +0.000 A 
ATOM      5  N   UNL     1       2.184   6.503  18.829  0.00  0.00    +0.000 NA
ENDROOT
BRANCH   1  10
ATOM      6 CL   UNL     1      -1.642  11.916  20.267  0.00  0.00    +0.000 Cl
ATOM      7  C   UNL     1      -0.515  10.721  19.762  0.00  0.00    +0.000 A 
ATOM      8  C   UNL     1       0.108   9.919  20.713  0.00  0.00    +0.000 A 
ATOM      9  C   UNL     1       1.031   8.952  20.312  0.00  0.00    +0.000 A 
ATOM     10  C   UNL     1       1.346   8.792  18.950  0.00  0.00    +0.000 A 
ATOM     11  C   UNL     1       0.707   9.602  17.997  0.00  0.00    +0.000 A 
ATOM     12  C   UNL     1      -0.223  10.563  18.410  0.00  0.00    +0.000 A 
ENDBRANCH   1  10
BRANCH   4  13
ATOM     13  C   UNL     1       3.393   4.426  18.277  0.00  0.00    +0.000 A 
ATOM     14  C   UNL     1       2.693   3.594  17.402  0.00  0.00    +0.000 A 
ATOM     15  C   UNL     1       2.804   2.198  17.512  0.00  0.00    +0.000 A 
ATOM     16  C   UNL     1       3.615   1.622  18.486  0.00  0.00    +0.000 A 
ATOM     17  C   UNL     1       4.349   2.434  19.337  0.00  0.00    +0.000 A 
ATOM     18  C   UNL     1       4.246   3.815  19.209  0.00  0.00    +0.000 A 
ENDBRANCH   4  13
BRANCH   3  19
ATOM     19  C   UNL     1       5.379   6.653  16.910  0.00  0.00    +0.000 C 
BRANCH  19  20
ATOM     20  N   UNL     1       6.505   7.283  17.585  0.00  0.00    +0.000 N 
ATOM     21  C   UNL     1       6.883   8.596  17.605  0.00  0.00    +0.000 A 
ATOM     22  C   UNL     1       8.102   8.588  18.235  0.00  0.00    +0.000 A 
ATOM     23  N   UNL     1       8.412   7.304  18.596  0.00  0.00    +0.000 NA
ATOM     24  N   UNL     1       7.436   6.508  18.176  0.00  0.00    +0.000 NA
BRANCH  22  25
ATOM     25  C   UNL     1       8.917   9.750  18.510  0.00  0.00    +0.000 A 
ATOM     26  C   UNL     1       9.262  10.048  19.833  0.00  0.00    +0.000 A 
ATOM     27  C   UNL     1       9.991  11.200  20.129  0.00  0.00    +0.000 A 
ATOM     28  C   UNL     1      10.393  12.055  19.104  0.00  0.00    +0.000 A 
ATOM     29  C   UNL     1      10.074  11.756  17.782  0.00  0.00    +0.000 A 
ATOM     30  C   UNL     1       9.340  10.608  17.483  0.00  0.00    +0.000 A 
ENDBRANCH  22  25
ENDBRANCH  19  20
ENDBRANCH   3  19
TORSDOF 5
ENDMDL
MODEL 5
REMARK VINA RESULT:      -8.5      0.240      1.265
REMARK  Name = 
REMARK  5 active torsions:
REMARK  status: ('A' for Active; 'I' for Inactive)
REMARK    1  A    between atoms: C_5  and  N_6
REMARK    2  A    between atoms: C_8  and  C_9
REMARK    3  A    between atoms: C_9  and  N_10
REMARK    4  A    between atoms: C_12  and  C_13
REMARK    5  A    between atoms: C_21  and  C_22
REMARK                            x       y       z     vdW  Elec       q    Type
REMARK                         _______ _______ _______ _____ _____    ______ ____
ROOT
ATOM      1  N   UNL     1       4.285   4.787  17.958  0.00  0.00    +0.000 N 
ATOM      2  C   UNL     1       4.741   6.083  17.923  0.00  0.00    +0.000 A 
ATOM      3  C   UNL     1       5.456   6.244  16.759  0.00  0.00    +0.000 A 
ATOM      4  C   UNL     1       5.331   4.992  16.077  0.00  0.00    +0.000 A 
ATOM      5  N   UNL     1       4.661   4.111  16.840  0.00  0.00    +0.000 NA
ENDROOT
BRANCH   1  10
ATOM      6 CL   UNL     1       1.060   2.335  22.306  0.00  0.00    +0.000 Cl
ATOM      7  C   UNL     1       1.982   3.035  21.036  0.00  0.00    +0.000 A 
ATOM      8  C   UNL     1       3.217   2.490  20.702  0.00  0.00    +0.000 A 
ATOM      9  C   UNL     1       3.976   3.058  19.678  0.00  0.00    +0.000 A 
ATOM     10  C   UNL     1       3.503   4.187  18.986  0.00  0.00    +0.000 A 
ATOM     11  C   UNL     1       2.251   4.726  19.325  0.00  0.00    +0.000 A 
ATOM     12  C   UNL     1       1.495   4.144  20.348  0.00  0.00    +0.000 A 
ENDBRANCH   1  10
BRANCH   4  13
ATOM     13  C   UNL     1       5.834   4.640  14.736  0.00  0.00    +0.000 A 
ATOM     14  C   UNL     1       5.098   3.829  13.871  0.00  0.00    +0.000 A 
ATOM     15  C   UNL     1       5.638   3.440  12.634  0.00  0.00    +0.000 A 
ATOM     16  C   UNL     1       6.908   3.860  12.247  0.00  0.00    +0.000 A 
ATOM     17  C   UNL     1       7.635   4.700  13.076  0.00  0.00    +0.000 A 
ATOM     18  C   UNL     1       7.085   5.095  14.291  0.00  0.00    +0.000 A 
ENDBRANCH   4  13
BRANCH   3  19
ATOM     19  C   UNL     1       6.154   7.492  16.329  0.00  0.00    +0.000 C 
BRANCH  19  20
ATOM     20  N   UNL     1       7.091   7.986  17.330  0.00  0.00    +0.000 N 
ATOM     21  C   UNL     1       7.556   9.255  17.532  0.00  0.00    +0.000 A 
ATOM     22  C   UNL     1       8.541   9.107  18.477  0.00  0.00    +0.000 A 
ATOM     23  N   UNL     1       8.626   7.787  18.834  0.00  0.00    +0.000 NA
ATOM     24  N   UNL     1       7.746   7.105  18.110  0.00  0.00    +0.000 NA
BRANCH  22  25
ATOM     25  C   UNL     1       9.339  10.174  19.038  0.00  0.00    +0.000 A 
ATOM     26  C   UNL     1       9.210  10.485  20.396  0.00  0.00    +0.000 A 
ATOM     27  C   UNL     1       9.920  11.554  20.945  0.00  0.00    +0.000 A 
ATOM     28  C   UNL     1      10.775  12.309  20.144  0.00  0.00    +0.000 A 
ATOM     29  C   UNL     1      10.927  11.994  18.797  0.00  0.00    +0.000 A 
ATOM     30  C   UNL     1      10.214  10.930  18.243  0.00  0.00    +0.000 A 
ENDBRANCH  22  25
ENDBRANCH  19  20
ENDBRANCH   3  19
TORSDOF 5
ENDMDL
MODEL 6
REMARK VINA RESULT:      -8.5      3.465      4.960
REMARK  Name = 
REMARK  5 active torsions:
REMARK  status: ('A' for Active; 'I' for Inactive)
REMARK    1  A    between atoms: C_5  and  N_6
REMARK    2  A    between atoms: C_8  and  C_9
REMARK    3  A    between atoms: C_9  and  N_10
REMARK    4  A    between atoms: C_12  and  C_13
REMARK    5  A    between atoms: C_21  and  C_22
REMARK                            x       y       z     vdW  Elec       q    Type
REMARK                         _______ _______ _______ _____ _____    ______ ____
ROOT
ATOM      1  N   UNL     1       2.294   7.737  18.685  0.00  0.00    +0.000 N 
ATOM      2  C   UNL     1       3.274   7.897  17.735  0.00  0.00    +0.000 A 
ATOM      3  C   UNL     1       3.860   6.671  17.527  0.00  0.00    +0.000 A 
ATOM      4  C   UNL     1       3.118   5.767  18.352  0.00  0.00    +0.000 A 
ATOM      5  N   UNL     1       2.209   6.439  19.079  0.00  0.00    +0.000 NA
ENDROOT
BRANCH   1  10
ATOM      6 CL   UNL     1      -1.208  12.016  20.865  0.00  0.00    +0.000 Cl
ATOM      7  C   UNL     1      -0.211  10.769  20.229  0.00  0.00    +0.000 A 
ATOM      8  C   UNL     1       0.323   9.812  21.085  0.00  0.00    +0.000 A 
ATOM      9  C   UNL     1       1.141   8.801  20.577  0.00  0.00    +0.000 A 
ATOM     10  C   UNL     1       1.439   8.751  19.203  0.00  0.00    +0.000 A 
ATOM     11  C   UNL     1       0.889   9.718  18.345  0.00  0.00    +0.000 A 
ATOM     12  C   UNL     1       0.063  10.722  18.864  0.00  0.00    +0.000 A 
ENDBRANCH   1  10
BRANCH   4  13
ATOM     13  C   UNL     1       3.268   4.302  18.449  0.00  0.00    +0.000 A 
ATOM     14  C   UNL     1       2.538   3.440  17.630  0.00  0.00    +0.000 A 
ATOM     15  C   UNL     1       2.636   2.049  17.802  0.00  0.00    +0.000 A 
ATOM     16  C   UNL     1       3.463   1.508  18.783  0.00  0.00    +0.000 A 
ATOM     17  C   UNL     1       4.227   2.350  19.577  0.00  0.00    +0.000 A 
ATOM     18  C   UNL     1       4.137   3.725  19.388  0.00  0.00    +0.000 A 
ENDBRANCH   4  13
BRANCH   3  19
ATOM     19  C   UNL     1       4.993   6.391  16.596  0.00  0.00    +0.000 C 
BRANCH  19  20
ATOM     20  N   UNL     1       6.218   7.082  16.975  0.00  0.00    +0.000 N 
ATOM     21  C   UNL     1       6.378   8.255  17.657  0.00  0.00    +0.000 A 
ATOM     22  C   UNL     1       7.723   8.517  17.568  0.00  0.00    +0.000 A 
ATOM     23  N   UNL     1       8.332   7.506  16.874  0.00  0.00    +0.000 NA
ATOM     24  N   UNL     1       7.398   6.640  16.498  0.00  0.00    +0.000 NA
BRANCH  22  25
ATOM     25  C   UNL     1       8.400   9.657  18.144  0.00  0.00    +0.000 A 
ATOM     26  C   UNL     1       8.331  10.895  17.496  0.00  0.00    +0.000 A 
ATOM     27  C   UNL     1       9.030  11.993  17.997  0.00  0.00    +0.000 A 
ATOM     28  C   UNL     1       9.790  11.866  19.159  0.00  0.00    +0.000 A 
ATOM     29  C   UNL     1       9.847  10.645  19.824  0.00  0.00    +0.000 A 
ATOM     30  C   UNL     1       9.154   9.543  19.323  0.00  0.00    +0.000 A 
ENDBRANCH  22  25
ENDBRANCH  19  20
ENDBRANCH   3  19
TORSDOF 5
ENDMDL
MODEL 7
REMARK VINA RESULT:      -8.5      4.090      7.381
REMARK  Name = 
REMARK  5 active torsions:
REMARK  status: ('A' for Active; 'I' for Inactive)
REMARK    1  A    between atoms: C_5  and  N_6
REMARK    2  A    between atoms: C_8  and  C_9
REMARK    3  A    between atoms: C_9  and  N_10
REMARK    4  A    between atoms: C_12  and  C_13
REMARK    5  A    between atoms: C_21  and  C_22
REMARK                            x       y       z     vdW  Elec       q    Type
REMARK                         _______ _______ _______ _____ _____    ______ ____
ROOT
ATOM      1  N   UNL     1       2.795   7.304  18.690  0.00  0.00    +0.000 N 
ATOM      2  C   UNL     1       4.106   7.445  18.301  0.00  0.00    +0.000 A 
ATOM      3  C   UNL     1       4.682   6.197  18.310  0.00  0.00    +0.000 A 
ATOM      4  C   UNL     1       3.617   5.305  18.652  0.00  0.00    +0.000 A 
ATOM      5  N   UNL     1       2.498   5.998  18.924  0.00  0.00    +0.000 NA
ENDROOT
BRANCH   1  10
ATOM      6 CL   UNL     1      -1.170  11.695  19.256  0.00  0.00    +0.000 Cl
ATOM      7  C   UNL     1      -0.037  10.413  19.087  0.00  0.00    +0.000 A 
ATOM      8  C   UNL     1       0.359   9.693  20.209  0.00  0.00    +0.000 A 
ATOM      9  C   UNL     1       1.286   8.657  20.080  0.00  0.00    +0.000 A 
ATOM     10  C   UNL     1       1.830   8.342  18.822  0.00  0.00    +0.000 A 
ATOM     11  C   UNL     1       1.418   9.071  17.693  0.00  0.00    +0.000 A 
ATOM     12  C   UNL     1       0.483  10.102  17.833  0.00  0.00    +0.000 A 
ENDBRANCH   1  10
BRANCH   4  13
ATOM     13  C   UNL     1       3.659   3.832  18.718  0.00  0.00    +0.000 A 
ATOM     14  C   UNL     1       4.363   3.167  19.723  0.00  0.00    +0.000 A 
ATOM     15  C   UNL     1       4.457   1.766  19.713  0.00  0.00    +0.000 A 
ATOM     16  C   UNL     1       3.848   1.017  18.709  0.00  0.00    +0.000 A 
ATOM     17  C   UNL     1       3.110   1.659  17.727  0.00  0.00    +0.000 A 
ATOM     18  C   UNL     1       3.007   3.046  17.755  0.00  0.00    +0.000 A 
ENDBRANCH   4  13
BRANCH   3  19
ATOM     19  C   UNL     1       6.106   5.891  17.982  0.00  0.00    +0.000 C 
BRANCH  19  20
ATOM     20  N   UNL     1       6.307   5.588  16.571  0.00  0.00    +0.000 N 
ATOM     21  C   UNL     1       5.613   4.737  15.757  0.00  0.00    +0.000 A 
ATOM     22  C   UNL     1       6.344   4.709  14.595  0.00  0.00    +0.000 A 
ATOM     23  N   UNL     1       7.421   5.545  14.723  0.00  0.00    +0.000 NA
ATOM     24  N   UNL     1       7.401   6.064  15.945  0.00  0.00    +0.000 NA
BRANCH  22  25
ATOM     25  C   UNL     1       6.013   3.950  13.410  0.00  0.00    +0.000 A 
ATOM     26  C   UNL     1       7.042   3.376  12.656  0.00  0.00    +0.000 A 
ATOM     27  C   UNL     1       6.752   2.695  11.472  0.00  0.00    +0.000 A 
ATOM     28  C   UNL     1       5.432   2.571  11.043  0.00  0.00    +0.000 A 
ATOM     29  C   UNL     1       4.399   3.120  11.798  0.00  0.00    +0.000 A 
ATOM     30  C   UNL     1       4.686   3.805  12.979  0.00  0.00    +0.000 A 
ENDBRANCH  22  25
ENDBRANCH  19  20
ENDBRANCH   3  19
TORSDOF 5
ENDMDL
MODEL 8
REMARK VINA RESULT:      -8.4      7.422     10.839
REMARK  Name = 
REMARK  5 active torsions:
REMARK  status: ('A' for Active; 'I' for Inactive)
REMARK    1  A    between atoms: C_5  and  N_6
REMARK    2  A    between atoms: C_8  and  C_9
REMARK    3  A    between atoms: C_9  and  N_10
REMARK    4  A    between atoms: C_12  and  C_13
REMARK    5  A    between atoms: C_21  and  C_22
REMARK                            x       y       z     vdW  Elec       q    Type
REMARK                         _______ _______ _______ _____ _____    ______ ____
ROOT
ATOM      1  N   UNL     1       2.146   8.132  18.385  0.00  0.00    +0.000 N 
ATOM      2  C   UNL     1       1.744   9.238  17.674  0.00  0.00    +0.000 A 
ATOM      3  C   UNL     1       0.967  10.010  18.506  0.00  0.00    +0.000 A 
ATOM      4  C   UNL     1       0.997   9.334  19.767  0.00  0.00    +0.000 A 
ATOM      5  N   UNL     1       1.674   8.178  19.659  0.00  0.00    +0.000 NA
ENDROOT
BRANCH   1  10
ATOM      6 CL   UNL     1       5.514   3.687  16.332  0.00  0.00    +0.000 Cl
ATOM      7  C   UNL     1       4.552   4.974  16.940  0.00  0.00    +0.000 A 
ATOM      8  C   UNL     1       3.376   4.688  17.626  0.00  0.00    +0.000 A 
ATOM      9  C   UNL     1       2.584   5.728  18.116  0.00  0.00    +0.000 A 
ATOM     10  C   UNL     1       2.963   7.068  17.910  0.00  0.00    +0.000 A 
ATOM     11  C   UNL     1       4.157   7.346  17.223  0.00  0.00    +0.000 A 
ATOM     12  C   UNL     1       4.947   6.295  16.743  0.00  0.00    +0.000 A 
ENDBRANCH   1  10
BRANCH   4  13
ATOM     13  C   UNL     1       0.399   9.773  21.042  0.00  0.00    +0.000 A 
ATOM     14  C   UNL     1       0.302   8.913  22.136  0.00  0.00    +0.000 A 
ATOM     15  C   UNL     1      -0.348   9.330  23.309  0.00  0.00    +0.000 A 
ATOM     16  C   UNL     1      -0.901  10.605  23.403  0.00  0.00    +0.000 A 
ATOM     17  C   UNL     1      -0.777  11.486  22.340  0.00  0.00    +0.000 A 
ATOM     18  C   UNL     1      -0.115  11.071  21.189  0.00  0.00    +0.000 A 
ENDBRANCH   4  13
BRANCH   3  19
ATOM     19  C   UNL     1       0.296  11.291  18.133  0.00  0.00    +0.000 C 
BRANCH  19  20
ATOM     20  N   UNL     1      -1.148  11.155  18.004  0.00  0.00    +0.000 N 
ATOM     21  C   UNL     1      -2.144  11.963  18.477  0.00  0.00    +0.000 A 
ATOM     22  C   UNL     1      -3.297  11.262  18.226  0.00  0.00    +0.000 A 
ATOM     23  N   UNL     1      -2.980  10.087  17.598  0.00  0.00    +0.000 NA
ATOM     24  N   UNL     1      -1.658  10.021  17.484  0.00  0.00    +0.000 NA
BRANCH  22  25
ATOM     25  C   UNL     1      -4.637  11.705  18.538  0.00  0.00    +0.000 A 
ATOM     26  C   UNL     1      -5.675  11.433  17.641  0.00  0.00    +0.000 A 
ATOM     27  C   UNL     1      -6.964  11.907  17.889  0.00  0.00    +0.000 A 
ATOM     28  C   UNL     1      -7.227  12.644  19.043  0.00  0.00    +0.000 A 
ATOM     29  C   UNL     1      -6.206  12.901  19.953  0.00  0.00    +0.000 A 
ATOM     30  C   UNL     1      -4.916  12.433  19.706  0.00  0.00    +0.000 A 
ENDBRANCH  22  25
ENDBRANCH  19  20
ENDBRANCH   3  19
TORSDOF 5
ENDMDL
MODEL 9
REMARK VINA RESULT:      -8.4      3.526      4.975
REMARK  Name = 
REMARK  5 active torsions:
REMARK  status: ('A' for Active; 'I' for Inactive)
REMARK    1  A    between atoms: C_5  and  N_6
REMARK    2  A    between atoms: C_8  and  C_9
REMARK    3  A    between atoms: C_9  and  N_10
REMARK    4  A    between atoms: C_12  and  C_13
REMARK    5  A    between atoms: C_21  and  C_22
REMARK                            x       y       z     vdW  Elec       q    Type
REMARK                         _______ _______ _______ _____ _____    ______ ____
ROOT
ATOM      1  N   UNL     1       2.219   7.872  18.606  0.00  0.00    +0.000 N 
ATOM      2  C   UNL     1       3.346   8.056  17.841  0.00  0.00    +0.000 A 
ATOM      3  C   UNL     1       3.960   6.833  17.699  0.00  0.00    +0.000 A 
ATOM      4  C   UNL     1       3.090   5.909  18.360  0.00  0.00    +0.000 A 
ATOM      5  N   UNL     1       2.070   6.563  18.941  0.00  0.00    +0.000 NA
ENDROOT
BRANCH   1  10
ATOM      6 CL   UNL     1      -1.735  11.993  20.250  0.00  0.00    +0.000 Cl
ATOM      7  C   UNL     1      -0.577  10.813  19.779  0.00  0.00    +0.000 A 
ATOM      8  C   UNL     1      -0.277  10.645  18.431  0.00  0.00    +0.000 A 
ATOM      9  C   UNL     1       0.655   9.682  18.040  0.00  0.00    +0.000 A 
ATOM     10  C   UNL     1       1.287   8.873  19.002  0.00  0.00    +0.000 A 
ATOM     11  C   UNL     1       0.983   9.056  20.361  0.00  0.00    +0.000 A 
ATOM     12  C   UNL     1       0.052  10.029  20.742  0.00  0.00    +0.000 A 
ENDBRANCH   1  10
BRANCH   4  13
ATOM     13  C   UNL     1       3.222   4.442  18.437  0.00  0.00    +0.000 A 
ATOM     14  C   UNL     1       4.049   3.833  19.383  0.00  0.00    +0.000 A 
ATOM     15  C   UNL     1       4.223   2.440  19.379  0.00  0.00    +0.000 A 
ATOM     16  C   UNL     1       3.573   1.643  18.440  0.00  0.00    +0.000 A 
ATOM     17  C   UNL     1       2.715   2.226  17.520  0.00  0.00    +0.000 A 
ATOM     18  C   UNL     1       2.535   3.605  17.543  0.00  0.00    +0.000 A 
ENDBRANCH   4  13
BRANCH   3  19
ATOM     19  C   UNL     1       5.235   6.577  16.966  0.00  0.00    +0.000 C 
BRANCH  19  20
ATOM     20  N   UNL     1       6.371   7.279  17.548  0.00  0.00    +0.000 N 
ATOM     21  C   UNL     1       6.649   8.617  17.567  0.00  0.00    +0.000 A 
ATOM     22  C   UNL     1       7.921   8.690  18.078  0.00  0.00    +0.000 A 
ATOM     23  N   UNL     1       8.360   7.427  18.374  0.00  0.00    +0.000 NA
ATOM     24  N   UNL     1       7.409   6.566  18.027  0.00  0.00    +0.000 NA
BRANCH  22  25
ATOM     25  C   UNL     1       8.669   9.907  18.305  0.00  0.00    +0.000 A 
ATOM     26  C   UNL     1       9.558   9.973  19.383  0.00  0.00    +0.000 A 
ATOM     27  C   UNL     1      10.242  11.157  19.661  0.00  0.00    +0.000 A 
ATOM     28  C   UNL     1      10.052  12.279  18.855  0.00  0.00    +0.000 A 
ATOM     29  C   UNL     1       9.186  12.217  17.767  0.00  0.00    +0.000 A 
ATOM     30  C   UNL     1       8.497  11.036  17.489  0.00  0.00    +0.000 A 
ENDBRANCH  22  25
ENDBRANCH  19  20
ENDBRANCH   3  19
TORSDOF 5
ENDMDL
