MODEL 1
REMARK VINA RESULT:      -7.8      0.000      0.000
REMARK  Name = 
REMARK  10 active torsions:
REMARK  status: ('A' for Active; 'I' for Inactive)
REMARK    1  A    between atoms: C_1  and  C_2
REMARK    2  A    between atoms: C_2  and  N_3
REMARK    3  A    between atoms: N_3  and  C_4
REMARK    4  A    between atoms: C_4  and  C_5
REMARK    5  A    between atoms: C_6  and  C_8
REMARK    6  A    between atoms: C_8  and  O_9
REMARK    7  A    between atoms: O_9  and  C_10
REMARK    8  A    between atoms: C_14  and  C_15
REMARK    9  A    between atoms: C_18  and  O_19
REMARK   10  A    between atoms: O_19  and  C_20
REMARK                            x       y       z     vdW  Elec       q    Type
REMARK                         _______ _______ _______ _____ _____    ______ ____
ROOT
ATOM      1  C   UNL     1       5.340   4.608  17.422  0.00  0.00    +0.000 A 
ATOM      2  C   UNL     1       4.918   5.930  17.252  0.00  0.00    +0.000 A 
ATOM      3  C   UNL     1       3.927   6.478  18.075  0.00  0.00    +0.000 A 
ATOM      4  C   UNL     1       3.350   5.715  19.092  0.00  0.00    +0.000 A 
ATOM      5  C   UNL     1       2.314   6.234  19.990  0.00  0.00    +0.000 A 
ATOM      6  C   UNL     1       1.823   5.408  20.928  0.00  0.00    +0.000 A 
ATOM      7  C   UNL     1       2.271   4.018  21.101  0.00  0.00    +0.000 A 
ATOM      8  O   UNL     1       1.770   3.305  21.962  0.00  0.00    +0.000 OA
ATOM      9  O   UNL     1       3.269   3.572  20.256  0.00  0.00    +0.000 OA
ATOM     10  C   UNL     1       3.799   4.399  19.255  0.00  0.00    +0.000 A 
ATOM     11  C   UNL     1       4.788   3.843  18.449  0.00  0.00    +0.000 A 
ENDROOT
BRANCH   5  12
ATOM     12  C   UNL     1       1.763   7.604  19.991  0.00  0.00    +0.000 A 
ATOM     13  C   UNL     1       1.741   8.347  18.806  0.00  0.00    +0.000 A 
ATOM     14  C   UNL     1       1.293   9.669  18.817  0.00  0.00    +0.000 A 
ATOM     15  C   UNL     1       0.837  10.255  19.999  0.00  0.00    +0.000 A 
ATOM     16  C   UNL     1       0.842   9.513  21.181  0.00  0.00    +0.000 A 
ATOM     17  C   UNL     1       1.306   8.191  21.177  0.00  0.00    +0.000 A 
BRANCH  15  18
ATOM     18  O   UNL     1       0.467  11.567  19.888  0.00  0.00    +0.000 OA
ATOM     19  C   UNL     1       1.244  12.359  18.998  0.00  0.00    +0.000 C 
ENDBRANCH  15  18
ENDBRANCH   5  12
BRANCH   1  20
ATOM     20  O   UNL     1       6.330   4.200  16.575  0.00  0.00    +0.000 OA
BRANCH  20  21
ATOM     21  C   UNL     1       5.914   3.821  15.266  0.00  0.00    +0.000 C 
BRANCH  21  23
ATOM     22  N   UNL     1       6.637   4.025  12.869  0.00  0.00    +0.000 N 
ATOM     23  C   UNL     1       6.833   4.446  14.199  0.00  0.00    +0.000 C 
ATOM     24  O   UNL     1       7.718   5.248  14.500  0.00  0.00    +0.000 OA
BRANCH  22  26
ATOM     25  C   UNL     1       7.586   5.962  11.573  0.00  0.00    +0.000 C 
ATOM     26  C   UNL     1       7.631   4.471  11.883  0.00  0.00    +0.000 C 
ENDBRANCH  22  26
BRANCH  22  27
ATOM     27  C   UNL     1       5.575   3.069  12.527  0.00  0.00    +0.000 C 
ATOM     28  C   UNL     1       4.505   3.458  11.522  0.00  0.00    +0.000 C 
ENDBRANCH  22  27
ENDBRANCH  21  23
ENDBRANCH  20  21
ENDBRANCH   1  20
TORSDOF 7
ENDMDL
MODEL 2
REMARK VINA RESULT:      -7.8      0.805      1.348
REMARK  Name = 
REMARK  10 active torsions:
REMARK  status: ('A' for Active; 'I' for Inactive)
REMARK    1  A    between atoms: C_1  and  C_2
REMARK    2  A    between atoms: C_2  and  N_3
REMARK    3  A    between atoms: N_3  and  C_4
REMARK    4  A    between atoms: C_4  and  C_5
REMARK    5  A    between atoms: C_6  and  C_8
REMARK    6  A    between atoms: C_8  and  O_9
REMARK    7  A    between atoms: O_9  and  C_10
REMARK    8  A    between atoms: C_14  and  C_15
REMARK    9  A    between atoms: C_18  and  O_19
REMARK   10  A    between atoms: O_19  and  C_20
REMARK                            x       y       z     vdW  Elec       q    Type
REMARK                         _______ _______ _______ _____ _____    ______ ____
ROOT
ATOM      1  C   UNL     1       4.859   4.655  16.890  0.00  0.00    +0.000 A 
ATOM      2  C   UNL     1       4.440   5.986  16.811  0.00  0.00    +0.000 A 
ATOM      3  C   UNL     1       3.607   6.535  17.794  0.00  0.00    +0.000 A 
ATOM      4  C   UNL     1       3.190   5.762  18.880  0.00  0.00    +0.000 A 
ATOM      5  C   UNL     1       2.324   6.282  19.943  0.00  0.00    +0.000 A 
ATOM      6  C   UNL     1       1.978   5.447  20.936  0.00  0.00    +0.000 A 
ATOM      7  C   UNL     1       2.422   4.047  21.012  0.00  0.00    +0.000 A 
ATOM      8  O   UNL     1       2.056   3.326  21.932  0.00  0.00    +0.000 OA
ATOM      9  O   UNL     1       3.260   3.600  20.009  0.00  0.00    +0.000 OA
ATOM     10  C   UNL     1       3.635   4.437  18.947  0.00  0.00    +0.000 A 
ATOM     11  C   UNL     1       4.468   3.880  17.982  0.00  0.00    +0.000 A 
ENDROOT
BRANCH   5  12
ATOM     12  C   UNL     1       1.806   7.660  20.055  0.00  0.00    +0.000 A 
ATOM     13  C   UNL     1       1.336   8.129  21.286  0.00  0.00    +0.000 A 
ATOM     14  C   UNL     1       0.774   9.404  21.382  0.00  0.00    +0.000 A 
ATOM     15  C   UNL     1       0.701  10.234  20.262  0.00  0.00    +0.000 A 
ATOM     16  C   UNL     1       1.183   9.776  19.035  0.00  0.00    +0.000 A 
ATOM     17  C   UNL     1       1.734   8.492  18.932  0.00  0.00    +0.000 A 
BRANCH  15  18
ATOM     18  O   UNL     1       0.091  11.439  20.474  0.00  0.00    +0.000 OA
ATOM     19  C   UNL     1       0.951  12.570  20.528  0.00  0.00    +0.000 C 
ENDBRANCH  15  18
ENDBRANCH   5  12
BRANCH   1  20
ATOM     20  O   UNL     1       5.689   4.246  15.886  0.00  0.00    +0.000 OA
BRANCH  20  21
ATOM     21  C   UNL     1       5.449   4.821  14.605  0.00  0.00    +0.000 C 
BRANCH  21  23
ATOM     22  N   UNL     1       6.372   3.638  12.591  0.00  0.00    +0.000 N 
ATOM     23  C   UNL     1       6.621   4.534  13.648  0.00  0.00    +0.000 C 
ATOM     24  O   UNL     1       7.732   5.039  13.820  0.00  0.00    +0.000 OA
BRANCH  22  26
ATOM     25  C   UNL     1       7.340   1.907  11.042  0.00  0.00    +0.000 C 
ATOM     26  C   UNL     1       7.534   3.217  11.795  0.00  0.00    +0.000 C 
ENDBRANCH  22  26
BRANCH  22  27
ATOM     27  C   UNL     1       5.041   3.048  12.398  0.00  0.00    +0.000 C 
ATOM     28  C   UNL     1       4.154   3.538  11.267  0.00  0.00    +0.000 C 
ENDBRANCH  22  27
ENDBRANCH  21  23
ENDBRANCH  20  21
ENDBRANCH   1  20
TORSDOF 7
ENDMDL
MODEL 3
REMARK VINA RESULT:      -7.7      3.640      8.828
REMARK  Name = 
REMARK  10 active torsions:
REMARK  status: ('A' for Active; 'I' for Inactive)
REMARK    1  A    between atoms: C_1  and  C_2
REMARK    2  A    between atoms: C_2  and  N_3
REMARK    3  A    between atoms: N_3  and  C_4
REMARK    4  A    between atoms: C_4  and  C_5
REMARK    5  A    between atoms: C_6  and  C_8
REMARK    6  A    between atoms: C_8  and  O_9
REMARK    7  A    between atoms: O_9  and  C_10
REMARK    8  A    between atoms: C_14  and  C_15
REMARK    9  A    between atoms: C_18  and  O_19
REMARK   10  A    between atoms: O_19  and  C_20
REMARK                            x       y       z     vdW  Elec       q    Type
REMARK                         _______ _______ _______ _____ _____    ______ ____
ROOT
ATOM      1  C   UNL     1       1.093   9.544  19.127  0.00  0.00    +0.000 A 
ATOM      2  C   UNL     1       1.951   9.403  18.032  0.00  0.00    +0.000 A 
ATOM      3  C   UNL     1       2.728   8.248  17.874  0.00  0.00    +0.000 A 
ATOM      4  C   UNL     1       2.648   7.209  18.804  0.00  0.00    +0.000 A 
ATOM      5  C   UNL     1       3.430   5.974  18.690  0.00  0.00    +0.000 A 
ATOM      6  C   UNL     1       3.280   5.044  19.647  0.00  0.00    +0.000 A 
ATOM      7  C   UNL     1       2.376   5.200  20.796  0.00  0.00    +0.000 A 
ATOM      8  O   UNL     1       2.297   4.325  21.649  0.00  0.00    +0.000 OA
ATOM      9  O   UNL     1       1.633   6.364  20.855  0.00  0.00    +0.000 OA
ATOM     10  C   UNL     1       1.770   7.365  19.883  0.00  0.00    +0.000 A 
ATOM     11  C   UNL     1       0.987   8.503  20.049  0.00  0.00    +0.000 A 
ENDROOT
BRANCH   5  12
ATOM     12  C   UNL     1       4.360   5.625  17.598  0.00  0.00    +0.000 A 
ATOM     13  C   UNL     1       4.207   4.416  16.912  0.00  0.00    +0.000 A 
ATOM     14  C   UNL     1       5.129   4.045  15.931  0.00  0.00    +0.000 A 
ATOM     15  C   UNL     1       6.194   4.885  15.603  0.00  0.00    +0.000 A 
ATOM     16  C   UNL     1       6.343   6.100  16.274  0.00  0.00    +0.000 A 
ATOM     17  C   UNL     1       5.428   6.469  17.269  0.00  0.00    +0.000 A 
BRANCH  15  18
ATOM     18  O   UNL     1       7.052   4.391  14.660  0.00  0.00    +0.000 OA
ATOM     19  C   UNL     1       6.456   3.968  13.440  0.00  0.00    +0.000 C 
ENDBRANCH  15  18
ENDBRANCH   5  12
BRANCH   1  20
ATOM     20  O   UNL     1       0.370  10.702  19.154  0.00  0.00    +0.000 OA
BRANCH  20  21
ATOM     21  C   UNL     1      -0.796  10.728  18.335  0.00  0.00    +0.000 C 
BRANCH  21  23
ATOM     22  N   UNL     1      -3.224  11.356  18.487  0.00  0.00    +0.000 N 
ATOM     23  C   UNL     1      -1.932  11.505  19.028  0.00  0.00    +0.000 C 
ATOM     24  O   UNL     1      -1.713  12.247  19.987  0.00  0.00    +0.000 OA
BRANCH  22  26
ATOM     25  C   UNL     1      -5.626  11.571  19.202  0.00  0.00    +0.000 C 
ATOM     26  C   UNL     1      -4.269  12.239  19.022  0.00  0.00    +0.000 C 
ENDBRANCH  22  26
BRANCH  22  27
ATOM     27  C   UNL     1      -3.467  10.464  17.345  0.00  0.00    +0.000 C 
ATOM     28  C   UNL     1      -3.781  11.053  15.981  0.00  0.00    +0.000 C 
ENDBRANCH  22  27
ENDBRANCH  21  23
ENDBRANCH  20  21
ENDBRANCH   1  20
TORSDOF 7
ENDMDL
MODEL 4
REMARK VINA RESULT:      -7.7      2.966      8.446
REMARK  Name = 
REMARK  10 active torsions:
REMARK  status: ('A' for Active; 'I' for Inactive)
REMARK    1  A    between atoms: C_1  and  C_2
REMARK    2  A    between atoms: C_2  and  N_3
REMARK    3  A    between atoms: N_3  and  C_4
REMARK    4  A    between atoms: C_4  and  C_5
REMARK    5  A    between atoms: C_6  and  C_8
REMARK    6  A    between atoms: C_8  and  O_9
REMARK    7  A    between atoms: O_9  and  C_10
REMARK    8  A    between atoms: C_14  and  C_15
REMARK    9  A    between atoms: C_18  and  O_19
REMARK   10  A    between atoms: O_19  and  C_20
REMARK                            x       y       z     vdW  Elec       q    Type
REMARK                         _______ _______ _______ _____ _____    ______ ____
ROOT
ATOM      1  C   UNL     1       2.122   8.053  19.153  0.00  0.00    +0.000 A 
ATOM      2  C   UNL     1       2.838   8.171  17.958  0.00  0.00    +0.000 A 
ATOM      3  C   UNL     1       3.641   7.120  17.497  0.00  0.00    +0.000 A 
ATOM      4  C   UNL     1       3.731   5.929  18.219  0.00  0.00    +0.000 A 
ATOM      5  C   UNL     1       4.550   4.792  17.786  0.00  0.00    +0.000 A 
ATOM      6  C   UNL     1       4.569   3.698  18.564  0.00  0.00    +0.000 A 
ATOM      7  C   UNL     1       3.814   3.582  19.820  0.00  0.00    +0.000 A 
ATOM      8  O   UNL     1       3.888   2.565  20.500  0.00  0.00    +0.000 OA
ATOM      9  O   UNL     1       3.032   4.661  20.183  0.00  0.00    +0.000 OA
ATOM     10  C   UNL     1       2.994   5.827  19.404  0.00  0.00    +0.000 A 
ATOM     11  C   UNL     1       2.186   6.859  19.871  0.00  0.00    +0.000 A 
ENDROOT
BRANCH   5  12
ATOM     12  C   UNL     1       5.347   4.710  16.546  0.00  0.00    +0.000 A 
ATOM     13  C   UNL     1       6.654   5.207  16.523  0.00  0.00    +0.000 A 
ATOM     14  C   UNL     1       7.385   5.203  15.334  0.00  0.00    +0.000 A 
ATOM     15  C   UNL     1       6.834   4.679  14.163  0.00  0.00    +0.000 A 
ATOM     16  C   UNL     1       5.536   4.168  14.184  0.00  0.00    +0.000 A 
ATOM     17  C   UNL     1       4.793   4.184  15.372  0.00  0.00    +0.000 A 
BRANCH  15  18
ATOM     18  O   UNL     1       7.632   4.772  13.056  0.00  0.00    +0.000 OA
ATOM     19  C   UNL     1       7.163   4.100  11.894  0.00  0.00    +0.000 C 
ENDBRANCH  15  18
ENDBRANCH   5  12
BRANCH   1  20
ATOM     20  O   UNL     1       1.355   9.134  19.480  0.00  0.00    +0.000 OA
BRANCH  20  21
ATOM     21  C   UNL     1       0.587   9.697  18.420  0.00  0.00    +0.000 C 
BRANCH  21  23
ATOM     22  N   UNL     1      -1.494  11.103  18.352  0.00  0.00    +0.000 N 
ATOM     23  C   UNL     1      -0.216  10.915  18.915  0.00  0.00    +0.000 C 
ATOM     24  O   UNL     1       0.251  11.704  19.737  0.00  0.00    +0.000 OA
BRANCH  22  26
ATOM     25  C   UNL     1      -3.270  12.230  19.732  0.00  0.00    +0.000 C 
ATOM     26  C   UNL     1      -2.179  12.362  18.677  0.00  0.00    +0.000 C 
ENDBRANCH  22  26
BRANCH  22  27
ATOM     27  C   UNL     1      -2.037  10.151  17.374  0.00  0.00    +0.000 C 
ATOM     28  C   UNL     1      -2.565  10.654  16.043  0.00  0.00    +0.000 C 
ENDBRANCH  22  27
ENDBRANCH  21  23
ENDBRANCH  20  21
ENDBRANCH   1  20
TORSDOF 7
ENDMDL
MODEL 5
REMARK VINA RESULT:      -7.7      2.813      8.390
REMARK  Name = 
REMARK  10 active torsions:
REMARK  status: ('A' for Active; 'I' for Inactive)
REMARK    1  A    between atoms: C_1  and  C_2
REMARK    2  A    between atoms: C_2  and  N_3
REMARK    3  A    between atoms: N_3  and  C_4
REMARK    4  A    between atoms: C_4  and  C_5
REMARK    5  A    between atoms: C_6  and  C_8
REMARK    6  A    between atoms: C_8  and  O_9
REMARK    7  A    between atoms: O_9  and  C_10
REMARK    8  A    between atoms: C_14  and  C_15
REMARK    9  A    between atoms: C_18  and  O_19
REMARK   10  A    between atoms: O_19  and  C_20
REMARK                            x       y       z     vdW  Elec       q    Type
REMARK                         _______ _______ _______ _____ _____    ______ ____
ROOT
ATOM      1  C   UNL     1       1.974   7.682  19.624  0.00  0.00    +0.000 A 
ATOM      2  C   UNL     1       2.677   7.915  18.439  0.00  0.00    +0.000 A 
ATOM      3  C   UNL     1       3.527   6.938  17.906  0.00  0.00    +0.000 A 
ATOM      4  C   UNL     1       3.676   5.705  18.545  0.00  0.00    +0.000 A 
ATOM      5  C   UNL     1       4.546   4.641  18.033  0.00  0.00    +0.000 A 
ATOM      6  C   UNL     1       4.621   3.498  18.734  0.00  0.00    +0.000 A 
ATOM      7  C   UNL     1       3.878   3.260  19.981  0.00  0.00    +0.000 A 
ATOM      8  O   UNL     1       4.003   2.204  20.588  0.00  0.00    +0.000 OA
ATOM      9  O   UNL     1       3.047   4.274  20.418  0.00  0.00    +0.000 OA
ATOM     10  C   UNL     1       2.951   5.487  19.721  0.00  0.00    +0.000 A 
ATOM     11  C   UNL     1       2.097   6.446  20.259  0.00  0.00    +0.000 A 
ENDROOT
BRANCH   5  12
ATOM     12  C   UNL     1       5.340   4.682  16.789  0.00  0.00    +0.000 A 
ATOM     13  C   UNL     1       6.641   5.194  16.809  0.00  0.00    +0.000 A 
ATOM     14  C   UNL     1       7.369   5.307  15.623  0.00  0.00    +0.000 A 
ATOM     15  C   UNL     1       6.820   4.886  14.411  0.00  0.00    +0.000 A 
ATOM     16  C   UNL     1       5.527   4.360  14.387  0.00  0.00    +0.000 A 
ATOM     17  C   UNL     1       4.789   4.259  15.573  0.00  0.00    +0.000 A 
BRANCH  15  18
ATOM     18  O   UNL     1       7.613   5.090  13.316  0.00  0.00    +0.000 OA
ATOM     19  C   UNL     1       7.227   4.402  12.132  0.00  0.00    +0.000 C 
ENDBRANCH  15  18
ENDBRANCH   5  12
BRANCH   1  20
ATOM     20  O   UNL     1       1.158   8.700  20.027  0.00  0.00    +0.000 OA
BRANCH  20  21
ATOM     21  C   UNL     1       0.790   9.638  19.019  0.00  0.00    +0.000 C 
BRANCH  21  23
ATOM     22  N   UNL     1      -0.672  11.678  19.125  0.00  0.00    +0.000 N 
ATOM     23  C   UNL     1       0.451  11.006  19.643  0.00  0.00    +0.000 C 
ATOM     24  O   UNL     1       1.150  11.500  20.530  0.00  0.00    +0.000 OA
BRANCH  22  26
ATOM     25  C   UNL     1      -0.268  14.122  18.682  0.00  0.00    +0.000 C 
ATOM     26  C   UNL     1      -0.884  13.059  19.583  0.00  0.00    +0.000 C 
ENDBRANCH  22  26
BRANCH  22  27
ATOM     27  C   UNL     1      -1.496  11.072  18.070  0.00  0.00    +0.000 C 
ATOM     28  C   UNL     1      -2.946  11.494  17.909  0.00  0.00    +0.000 C 
ENDBRANCH  22  27
ENDBRANCH  21  23
ENDBRANCH  20  21
ENDBRANCH   1  20
TORSDOF 7
ENDMDL
MODEL 6
REMARK VINA RESULT:      -7.7      3.099      8.611
REMARK  Name = 
REMARK  10 active torsions:
REMARK  status: ('A' for Active; 'I' for Inactive)
REMARK    1  A    between atoms: C_1  and  C_2
REMARK    2  A    between atoms: C_2  and  N_3
REMARK    3  A    between atoms: N_3  and  C_4
REMARK    4  A    between atoms: C_4  and  C_5
REMARK    5  A    between atoms: C_6  and  C_8
REMARK    6  A    between atoms: C_8  and  O_9
REMARK    7  A    between atoms: O_9  and  C_10
REMARK    8  A    between atoms: C_14  and  C_15
REMARK    9  A    between atoms: C_18  and  O_19
REMARK   10  A    between atoms: O_19  and  C_20
REMARK                            x       y       z     vdW  Elec       q    Type
REMARK                         _______ _______ _______ _____ _____    ______ ____
ROOT
ATOM      1  C   UNL     1       1.637   6.638  20.522  0.00  0.00    +0.000 A 
ATOM      2  C   UNL     1       2.570   7.221  19.659  0.00  0.00    +0.000 A 
ATOM      3  C   UNL     1       3.372   6.428  18.829  0.00  0.00    +0.000 A 
ATOM      4  C   UNL     1       3.243   5.038  18.840  0.00  0.00    +0.000 A 
ATOM      5  C   UNL     1       4.049   4.155  17.990  0.00  0.00    +0.000 A 
ATOM      6  C   UNL     1       3.848   2.831  18.088  0.00  0.00    +0.000 A 
ATOM      7  C   UNL     1       2.864   2.225  18.999  0.00  0.00    +0.000 A 
ATOM      8  O   UNL     1       2.740   1.008  19.060  0.00  0.00    +0.000 OA
ATOM      9  O   UNL     1       2.103   3.088  19.763  0.00  0.00    +0.000 OA
ATOM     10  C   UNL     1       2.292   4.477  19.699  0.00  0.00    +0.000 A 
ATOM     11  C   UNL     1       1.483   5.252  20.524  0.00  0.00    +0.000 A 
ENDROOT
BRANCH   5  12
ATOM     12  C   UNL     1       5.057   4.577  16.997  0.00  0.00    +0.000 A 
ATOM     13  C   UNL     1       4.911   4.207  15.656  0.00  0.00    +0.000 A 
ATOM     14  C   UNL     1       5.900   4.537  14.726  0.00  0.00    +0.000 A 
ATOM     15  C   UNL     1       7.027   5.262  15.116  0.00  0.00    +0.000 A 
ATOM     16  C   UNL     1       7.170   5.647  16.450  0.00  0.00    +0.000 A 
ATOM     17  C   UNL     1       6.188   5.304  17.388  0.00  0.00    +0.000 A 
BRANCH  15  18
ATOM     18  O   UNL     1       7.943   5.484  14.124  0.00  0.00    +0.000 OA
ATOM     19  C   UNL     1       7.591   4.999  12.834  0.00  0.00    +0.000 C 
ENDBRANCH  15  18
ENDBRANCH   5  12
BRANCH   1  20
ATOM     20  O   UNL     1       0.898   7.518  21.259  0.00  0.00    +0.000 OA
BRANCH  20  21
ATOM     21  C   UNL     1       1.287   8.886  21.171  0.00  0.00    +0.000 C 
BRANCH  21  23
ATOM     22  N   UNL     1      -0.549  10.574  21.472  0.00  0.00    +0.000 N 
ATOM     23  C   UNL     1       0.419   9.762  22.094  0.00  0.00    +0.000 C 
ATOM     24  O   UNL     1       0.587   9.775  23.315  0.00  0.00    +0.000 OA
BRANCH  22  26
ATOM     25  C   UNL     1      -0.621  12.936  22.335  0.00  0.00    +0.000 C 
ATOM     26  C   UNL     1      -1.244  11.546  22.328  0.00  0.00    +0.000 C 
ENDBRANCH  22  26
BRANCH  22  27
ATOM     27  C   UNL     1      -0.739  10.542  20.015  0.00  0.00    +0.000 C 
ATOM     28  C   UNL     1      -0.052  11.578  19.142  0.00  0.00    +0.000 C 
ENDBRANCH  22  27
ENDBRANCH  21  23
ENDBRANCH  20  21
ENDBRANCH   1  20
TORSDOF 7
ENDMDL
MODEL 7
REMARK VINA RESULT:      -7.7      3.207      9.035
REMARK  Name = 
REMARK  10 active torsions:
REMARK  status: ('A' for Active; 'I' for Inactive)
REMARK    1  A    between atoms: C_1  and  C_2
REMARK    2  A    between atoms: C_2  and  N_3
REMARK    3  A    between atoms: N_3  and  C_4
REMARK    4  A    between atoms: C_4  and  C_5
REMARK    5  A    between atoms: C_6  and  C_8
REMARK    6  A    between atoms: C_8  and  O_9
REMARK    7  A    between atoms: O_9  and  C_10
REMARK    8  A    between atoms: C_14  and  C_15
REMARK    9  A    between atoms: C_18  and  O_19
REMARK   10  A    between atoms: O_19  and  C_20
REMARK                            x       y       z     vdW  Elec       q    Type
REMARK                         _______ _______ _______ _____ _____    ______ ____
ROOT
ATOM      1  C   UNL     1       1.261   9.412  18.861  0.00  0.00    +0.000 A 
ATOM      2  C   UNL     1       2.230   9.254  17.867  0.00  0.00    +0.000 A 
ATOM      3  C   UNL     1       3.023   8.101  17.815  0.00  0.00    +0.000 A 
ATOM      4  C   UNL     1       2.850   7.080  18.752  0.00  0.00    +0.000 A 
ATOM      5  C   UNL     1       3.644   5.848  18.746  0.00  0.00    +0.000 A 
ATOM      6  C   UNL     1       3.398   4.936  19.700  0.00  0.00    +0.000 A 
ATOM      7  C   UNL     1       2.376   5.109  20.744  0.00  0.00    +0.000 A 
ATOM      8  O   UNL     1       2.212   4.251  21.603  0.00  0.00    +0.000 OA
ATOM      9  O   UNL     1       1.628   6.270  20.702  0.00  0.00    +0.000 OA
ATOM     10  C   UNL     1       1.863   7.252  19.729  0.00  0.00    +0.000 A 
ATOM     11  C   UNL     1       1.062   8.389  19.788  0.00  0.00    +0.000 A 
ENDROOT
BRANCH   5  12
ATOM     12  C   UNL     1       4.686   5.483  17.765  0.00  0.00    +0.000 A 
ATOM     13  C   UNL     1       5.907   6.166  17.759  0.00  0.00    +0.000 A 
ATOM     14  C   UNL     1       6.865   5.878  16.785  0.00  0.00    +0.000 A 
ATOM     15  C   UNL     1       6.631   4.890  15.828  0.00  0.00    +0.000 A 
ATOM     16  C   UNL     1       5.421   4.195  15.839  0.00  0.00    +0.000 A 
ATOM     17  C   UNL     1       4.450   4.492  16.805  0.00  0.00    +0.000 A 
BRANCH  15  18
ATOM     18  O   UNL     1       7.626   4.733  14.903  0.00  0.00    +0.000 OA
ATOM     19  C   UNL     1       7.233   4.844  13.541  0.00  0.00    +0.000 C 
ENDBRANCH  15  18
ENDBRANCH   5  12
BRANCH   1  20
ATOM     20  O   UNL     1       0.535  10.566  18.788  0.00  0.00    +0.000 OA
BRANCH  20  21
ATOM     21  C   UNL     1       0.894  11.587  19.715  0.00  0.00    +0.000 C 
BRANCH  21  23
ATOM     22  N   UNL     1      -0.751  11.811  21.600  0.00  0.00    +0.000 N 
ATOM     23  C   UNL     1      -0.362  12.244  20.318  0.00  0.00    +0.000 C 
ATOM     24  O   UNL     1      -1.013  13.084  19.693  0.00  0.00    +0.000 OA
BRANCH  22  26
ATOM     25  C   UNL     1      -1.953  13.299  23.235  0.00  0.00    +0.000 C 
ATOM     26  C   UNL     1      -2.048  12.294  22.095  0.00  0.00    +0.000 C 
ENDBRANCH  22  26
BRANCH  22  27
ATOM     27  C   UNL     1       0.040  10.812  22.332  0.00  0.00    +0.000 C 
ATOM     28  C   UNL     1      -0.660   9.656  23.025  0.00  0.00    +0.000 C 
ENDBRANCH  22  27
ENDBRANCH  21  23
ENDBRANCH  20  21
ENDBRANCH   1  20
TORSDOF 7
ENDMDL
MODEL 8
REMARK VINA RESULT:      -7.7      2.073      3.078
REMARK  Name = 
REMARK  10 active torsions:
REMARK  status: ('A' for Active; 'I' for Inactive)
REMARK    1  A    between atoms: C_1  and  C_2
REMARK    2  A    between atoms: C_2  and  N_3
REMARK    3  A    between atoms: N_3  and  C_4
REMARK    4  A    between atoms: C_4  and  C_5
REMARK    5  A    between atoms: C_6  and  C_8
REMARK    6  A    between atoms: C_8  and  O_9
REMARK    7  A    between atoms: O_9  and  C_10
REMARK    8  A    between atoms: C_14  and  C_15
REMARK    9  A    between atoms: C_18  and  O_19
REMARK   10  A    between atoms: O_19  and  C_20
REMARK                            x       y       z     vdW  Elec       q    Type
REMARK                         _______ _______ _______ _____ _____    ______ ____
ROOT
ATOM      1  C   UNL     1       4.517   4.028  16.968  0.00  0.00    +0.000 A 
ATOM      2  C   UNL     1       4.143   5.369  16.839  0.00  0.00    +0.000 A 
ATOM      3  C   UNL     1       3.377   5.998  17.829  0.00  0.00    +0.000 A 
ATOM      4  C   UNL     1       2.983   5.297  18.971  0.00  0.00    +0.000 A 
ATOM      5  C   UNL     1       2.187   5.901  20.043  0.00  0.00    +0.000 A 
ATOM      6  C   UNL     1       1.857   5.131  21.093  0.00  0.00    +0.000 A 
ATOM      7  C   UNL     1       2.255   3.721  21.221  0.00  0.00    +0.000 A 
ATOM      8  O   UNL     1       1.906   3.062  22.193  0.00  0.00    +0.000 OA
ATOM      9  O   UNL     1       3.028   3.193  20.206  0.00  0.00    +0.000 OA
ATOM     10  C   UNL     1       3.383   3.961  19.086  0.00  0.00    +0.000 A 
ATOM     11  C   UNL     1       4.150   3.325  18.115  0.00  0.00    +0.000 A 
ENDROOT
BRANCH   5  12
ATOM     12  C   UNL     1       1.725   7.302  20.107  0.00  0.00    +0.000 A 
ATOM     13  C   UNL     1       1.133   7.788  21.278  0.00  0.00    +0.000 A 
ATOM     14  C   UNL     1       0.625   9.088  21.319  0.00  0.00    +0.000 A 
ATOM     15  C   UNL     1       0.725   9.925  20.206  0.00  0.00    +0.000 A 
ATOM     16  C   UNL     1       1.327   9.450  19.041  0.00  0.00    +0.000 A 
ATOM     17  C   UNL     1       1.825   8.141  18.991  0.00  0.00    +0.000 A 
BRANCH  15  18
ATOM     18  O   UNL     1       0.150  11.157  20.357  0.00  0.00    +0.000 OA
ATOM     19  C   UNL     1      -1.146  11.311  19.791  0.00  0.00    +0.000 C 
ENDBRANCH  15  18
ENDBRANCH   5  12
BRANCH   1  20
ATOM     20  O   UNL     1       5.285   3.539  15.951  0.00  0.00    +0.000 OA
BRANCH  20  21
ATOM     21  C   UNL     1       6.679   3.824  16.030  0.00  0.00    +0.000 C 
BRANCH  21  23
ATOM     22  N   UNL     1       7.398   6.004  17.050  0.00  0.00    +0.000 N 
ATOM     23  C   UNL     1       6.936   5.337  15.898  0.00  0.00    +0.000 C 
ATOM     24  O   UNL     1       6.716   5.939  14.846  0.00  0.00    +0.000 OA
BRANCH  22  26
ATOM     25  C   UNL     1       8.234   8.122  18.120  0.00  0.00    +0.000 C 
ATOM     26  C   UNL     1       7.460   7.471  16.981  0.00  0.00    +0.000 C 
ENDBRANCH  22  26
BRANCH  22  27
ATOM     27  C   UNL     1       7.658   5.270  18.295  0.00  0.00    +0.000 C 
ATOM     28  C   UNL     1       6.745   5.468  19.492  0.00  0.00    +0.000 C 
ENDBRANCH  22  27
ENDBRANCH  21  23
ENDBRANCH  20  21
ENDBRANCH   1  20
TORSDOF 7
ENDMDL
MODEL 9
REMARK VINA RESULT:      -7.6      2.812      8.434
REMARK  Name = 
REMARK  10 active torsions:
REMARK  status: ('A' for Active; 'I' for Inactive)
REMARK    1  A    between atoms: C_1  and  C_2
REMARK    2  A    between atoms: C_2  and  N_3
REMARK    3  A    between atoms: N_3  and  C_4
REMARK    4  A    between atoms: C_4  and  C_5
REMARK    5  A    between atoms: C_6  and  C_8
REMARK    6  A    between atoms: C_8  and  O_9
REMARK    7  A    between atoms: O_9  and  C_10
REMARK    8  A    between atoms: C_14  and  C_15
REMARK    9  A    between atoms: C_18  and  O_19
REMARK   10  A    between atoms: O_19  and  C_20
REMARK                            x       y       z     vdW  Elec       q    Type
REMARK                         _______ _______ _______ _____ _____    ______ ____
ROOT
ATOM      1  C   UNL     1       2.069   7.912  19.315  0.00  0.00    +0.000 A 
ATOM      2  C   UNL     1       2.789   8.071  18.128  0.00  0.00    +0.000 A 
ATOM      3  C   UNL     1       3.601   7.042  17.638  0.00  0.00    +0.000 A 
ATOM      4  C   UNL     1       3.697   5.829  18.323  0.00  0.00    +0.000 A 
ATOM      5  C   UNL     1       4.525   4.712  17.858  0.00  0.00    +0.000 A 
ATOM      6  C   UNL     1       4.549   3.594  18.601  0.00  0.00    +0.000 A 
ATOM      7  C   UNL     1       3.789   3.433  19.850  0.00  0.00    +0.000 A 
ATOM      8  O   UNL     1       3.867   2.396  20.497  0.00  0.00    +0.000 OA
ATOM      9  O   UNL     1       2.997   4.495  20.243  0.00  0.00    +0.000 OA
ATOM     10  C   UNL     1       2.955   5.685  19.501  0.00  0.00    +0.000 A 
ATOM     11  C   UNL     1       2.138   6.696  19.996  0.00  0.00    +0.000 A 
ENDROOT
BRANCH   5  12
ATOM     12  C   UNL     1       5.328   4.674  16.619  0.00  0.00    +0.000 A 
ATOM     13  C   UNL     1       6.645   5.144  16.628  0.00  0.00    +0.000 A 
ATOM     14  C   UNL     1       7.384   5.182  15.444  0.00  0.00    +0.000 A 
ATOM     15  C   UNL     1       6.829   4.729  14.246  0.00  0.00    +0.000 A 
ATOM     16  C   UNL     1       5.520   4.245  14.234  0.00  0.00    +0.000 A 
ATOM     17  C   UNL     1       4.771   4.219  15.418  0.00  0.00    +0.000 A 
BRANCH  15  18
ATOM     18  O   UNL     1       7.635   4.860  13.149  0.00  0.00    +0.000 OA
ATOM     19  C   UNL     1       7.191   4.202  11.969  0.00  0.00    +0.000 C 
ENDBRANCH  15  18
ENDBRANCH   5  12
BRANCH   1  20
ATOM     20  O   UNL     1       1.293   8.976  19.673  0.00  0.00    +0.000 OA
BRANCH  20  21
ATOM     21  C   UNL     1       0.800   9.776  18.601  0.00  0.00    +0.000 C 
BRANCH  21  23
ATOM     22  N   UNL     1       0.418  12.106  19.459  0.00  0.00    +0.000 N 
ATOM     23  C   UNL     1       1.269  11.236  18.749  0.00  0.00    +0.000 C 
ATOM     24  O   UNL     1       2.320  11.630  18.241  0.00  0.00    +0.000 OA
BRANCH  22  26
ATOM     25  C   UNL     1      -0.364  14.452  18.992  0.00  0.00    +0.000 C 
ATOM     26  C   UNL     1       0.767  13.534  19.437  0.00  0.00    +0.000 C 
ENDBRANCH  22  26
BRANCH  22  27
ATOM     27  C   UNL     1      -0.830  11.619  20.061  0.00  0.00    +0.000 C 
ATOM     28  C   UNL     1      -0.954  11.527  21.571  0.00  0.00    +0.000 C 
ENDBRANCH  22  27
ENDBRANCH  21  23
ENDBRANCH  20  21
ENDBRANCH   1  20
TORSDOF 7
ENDMDL
