MODEL 1
REMARK VINA RESULT:      -6.4      0.000      0.000
REMARK  Name = 
REMARK  9 active torsions:
REMARK  status: ('A' for Active; 'I' for Inactive)
REMARK    1  A    between atoms: C_1  and  C_2
REMARK    2  A    between atoms: C_2  and  N_3
REMARK    3  A    between atoms: N_3  and  C_4
REMARK    4  A    between atoms: C_4  and  C_5
REMARK    5  A    between atoms: C_6  and  O_8
REMARK    6  A    between atoms: O_8  and  C_9
REMARK    7  A    between atoms: C_15  and  C_16
REMARK    8  A    between atoms: N_19  and  C_20
REMARK    9  A    between atoms: N_22  and  C_23
REMARK                            x       y       z     vdW  Elec       q    Type
REMARK                         _______ _______ _______ _____ _____    ______ ____
ROOT
ATOM      1  C   UNL     1       2.704   6.753  18.724  0.00  0.00    +0.000 A 
ATOM      2  C   UNL     1       3.697   6.391  17.792  0.00  0.00    +0.000 A 
ATOM      3  C   UNL     1       3.890   5.055  17.453  0.00  0.00    +0.000 A 
ATOM      4  C   UNL     1       3.118   4.109  18.096  0.00  0.00    +0.000 A 
ATOM      5  C   UNL     1       2.115   4.472  19.018  0.00  0.00    +0.000 A 
ATOM      6  C   UNL     1       1.887   5.800  19.341  0.00  0.00    +0.000 A 
ATOM      7  C   UNL     1       1.510   3.201  19.575  0.00  0.00    +0.000 C 
ATOM      8  C   UNL     1       0.225   2.862  18.814  0.00  0.00    +0.000 C 
ATOM      9  C   UNL     1       1.288   3.092  21.094  0.00  0.00    +0.000 C 
ATOM     10  C   UNL     1       2.602   2.590  21.688  0.00  0.00    +0.000 C 
ATOM     11  N   UNL     1       3.480   2.547  20.554  0.00  0.00    +0.000 NA
ATOM     12  C   UNL     1       4.839   2.129  20.695  0.00  0.00    +0.000 C 
ATOM     13  C   UNL     1       2.741   2.271  19.318  0.00  0.00    +0.000 C 
ATOM     14  N   UNL     1       3.380   2.713  18.067  0.00  0.00    +0.000 N 
ATOM     15  C   UNL     1       3.013   2.075  16.816  0.00  0.00    +0.000 C 
ENDROOT
BRANCH   1  16
ATOM     16  O   UNL     1       2.629   8.073  19.210  0.00  0.00    +0.000 OA
BRANCH  16  18
ATOM     17  N   UNL     1       0.849   9.515  19.547  0.00  0.00    +0.000 N 
ATOM     18  C   UNL     1       1.692   8.921  18.618  0.00  0.00    +0.000 C 
ATOM     19  O   UNL     1       1.640   9.145  17.412  0.00  0.00    +0.000 OA
BRANCH  17  21
ATOM     20  C   UNL     1       0.059  11.880  19.686  0.00  0.00    +0.000 C 
ATOM     21  C   UNL     1      -0.113  10.504  19.064  0.00  0.00    +0.000 C 
ENDBRANCH  17  21
BRANCH  17  22
ATOM     22  C   UNL     1       0.935   9.242  20.979  0.00  0.00    +0.000 C 
ATOM     23  C   UNL     1      -0.306   8.585  21.564  0.00  0.00    +0.000 C 
ENDBRANCH  17  22
ENDBRANCH  16  18
ENDBRANCH   1  16
TORSDOF 4
ENDMDL
MODEL 2
REMARK VINA RESULT:      -5.9      4.493      7.705
REMARK  Name = 
REMARK  9 active torsions:
REMARK  status: ('A' for Active; 'I' for Inactive)
REMARK    1  A    between atoms: C_1  and  C_2
REMARK    2  A    between atoms: C_2  and  N_3
REMARK    3  A    between atoms: N_3  and  C_4
REMARK    4  A    between atoms: C_4  and  C_5
REMARK    5  A    between atoms: C_6  and  O_8
REMARK    6  A    between atoms: O_8  and  C_9
REMARK    7  A    between atoms: C_15  and  C_16
REMARK    8  A    between atoms: N_19  and  C_20
REMARK    9  A    between atoms: N_22  and  C_23
REMARK                            x       y       z     vdW  Elec       q    Type
REMARK                         _______ _______ _______ _____ _____    ______ ____
ROOT
ATOM      1  C   UNL     1       5.491   4.542  14.588  0.00  0.00    +0.000 A 
ATOM      2  C   UNL     1       6.397   5.517  15.049  0.00  0.00    +0.000 A 
ATOM      3  C   UNL     1       6.445   5.851  16.400  0.00  0.00    +0.000 A 
ATOM      4  C   UNL     1       5.547   5.235  17.248  0.00  0.00    +0.000 A 
ATOM      5  C   UNL     1       4.650   4.249  16.790  0.00  0.00    +0.000 A 
ATOM      6  C   UNL     1       4.613   3.881  15.454  0.00  0.00    +0.000 A 
ATOM      7  C   UNL     1       3.777   3.834  17.954  0.00  0.00    +0.000 C 
ATOM      8  C   UNL     1       4.336   2.558  18.591  0.00  0.00    +0.000 C 
ATOM      9  C   UNL     1       2.259   3.712  17.733  0.00  0.00    +0.000 C 
ATOM     10  C   UNL     1       1.678   5.108  17.945  0.00  0.00    +0.000 C 
ATOM     11  N   UNL     1       2.841   5.919  18.156  0.00  0.00    +0.000 NA
ATOM     12  C   UNL     1       2.723   7.325  18.386  0.00  0.00    +0.000 C 
ATOM     13  C   UNL     1       3.920   5.151  18.784  0.00  0.00    +0.000 C 
ATOM     14  N   UNL     1       5.287   5.662  18.578  0.00  0.00    +0.000 N 
ATOM     15  C   UNL     1       6.331   5.304  19.521  0.00  0.00    +0.000 C 
ENDROOT
BRANCH   1  16
ATOM     16  O   UNL     1       5.305   4.336  13.207  0.00  0.00    +0.000 OA
BRANCH  16  18
ATOM     17  N   UNL     1       5.517   2.604  11.684  0.00  0.00    +0.000 N 
ATOM     18  C   UNL     1       6.172   3.447  12.570  0.00  0.00    +0.000 C 
ATOM     19  O   UNL     1       7.388   3.434  12.747  0.00  0.00    +0.000 OA
BRANCH  17  21
ATOM     20  C   UNL     1       6.106   0.226  11.203  0.00  0.00    +0.000 C 
ATOM     21  C   UNL     1       6.327   1.694  10.878  0.00  0.00    +0.000 C 
ENDBRANCH  17  21
BRANCH  17  22
ATOM     22  C   UNL     1       4.071   2.645  11.480  0.00  0.00    +0.000 C 
ATOM     23  C   UNL     1       3.622   3.606  10.390  0.00  0.00    +0.000 C 
ENDBRANCH  17  22
ENDBRANCH  16  18
ENDBRANCH   1  16
TORSDOF 4
ENDMDL
MODEL 3
REMARK VINA RESULT:      -5.8      1.093      1.727
REMARK  Name = 
REMARK  9 active torsions:
REMARK  status: ('A' for Active; 'I' for Inactive)
REMARK    1  A    between atoms: C_1  and  C_2
REMARK    2  A    between atoms: C_2  and  N_3
REMARK    3  A    between atoms: N_3  and  C_4
REMARK    4  A    between atoms: C_4  and  C_5
REMARK    5  A    between atoms: C_6  and  O_8
REMARK    6  A    between atoms: O_8  and  C_9
REMARK    7  A    between atoms: C_15  and  C_16
REMARK    8  A    between atoms: N_19  and  C_20
REMARK    9  A    between atoms: N_22  and  C_23
REMARK                            x       y       z     vdW  Elec       q    Type
REMARK                         _______ _______ _______ _____ _____    ______ ____
ROOT
ATOM      1  C   UNL     1       2.290   7.025  19.555  0.00  0.00    +0.000 A 
ATOM      2  C   UNL     1       3.222   6.931  18.503  0.00  0.00    +0.000 A 
ATOM      3  C   UNL     1       3.482   5.704  17.900  0.00  0.00    +0.000 A 
ATOM      4  C   UNL     1       2.839   4.591  18.402  0.00  0.00    +0.000 A 
ATOM      5  C   UNL     1       1.895   4.686  19.446  0.00  0.00    +0.000 A 
ATOM      6  C   UNL     1       1.601   5.906  20.033  0.00  0.00    +0.000 A 
ATOM      7  C   UNL     1       1.435   3.286  19.789  0.00  0.00    +0.000 C 
ATOM      8  C   UNL     1       0.117   2.984  19.070  0.00  0.00    +0.000 C 
ATOM      9  C   UNL     1       1.354   2.878  21.271  0.00  0.00    +0.000 C 
ATOM     10  C   UNL     1       2.747   2.391  21.662  0.00  0.00    +0.000 C 
ATOM     11  N   UNL     1       3.524   2.636  20.481  0.00  0.00    +0.000 NA
ATOM     12  C   UNL     1       4.917   2.320  20.442  0.00  0.00    +0.000 C 
ATOM     13  C   UNL     1       2.703   2.532  19.271  0.00  0.00    +0.000 C 
ATOM     14  N   UNL     1       3.198   3.253  18.086  0.00  0.00    +0.000 N 
ATOM     15  C   UNL     1       2.771   2.830  16.765  0.00  0.00    +0.000 C 
ENDROOT
BRANCH   1  16
ATOM     16  O   UNL     1       2.161   8.220  20.290  0.00  0.00    +0.000 OA
BRANCH  16  18
ATOM     17  N   UNL     1       0.590   9.706  19.464  0.00  0.00    +0.000 N 
ATOM     18  C   UNL     1       0.879   8.752  20.429  0.00  0.00    +0.000 C 
ATOM     19  O   UNL     1       0.079   8.391  21.289  0.00  0.00    +0.000 OA
BRANCH  17  21
ATOM     20  C   UNL     1      -1.464  10.106  18.101  0.00  0.00    +0.000 C 
ATOM     21  C   UNL     1      -0.759  10.267  19.438  0.00  0.00    +0.000 C 
ENDBRANCH  17  21
BRANCH  17  22
ATOM     22  C   UNL     1       1.552  10.112  18.443  0.00  0.00    +0.000 C 
ATOM     23  C   UNL     1       1.924  11.586  18.489  0.00  0.00    +0.000 C 
ENDBRANCH  17  22
ENDBRANCH  16  18
ENDBRANCH   1  16
TORSDOF 4
ENDMDL
MODEL 4
REMARK VINA RESULT:      -5.6      7.513     11.325
REMARK  Name = 
REMARK  9 active torsions:
REMARK  status: ('A' for Active; 'I' for Inactive)
REMARK    1  A    between atoms: C_1  and  C_2
REMARK    2  A    between atoms: C_2  and  N_3
REMARK    3  A    between atoms: N_3  and  C_4
REMARK    4  A    between atoms: C_4  and  C_5
REMARK    5  A    between atoms: C_6  and  O_8
REMARK    6  A    between atoms: O_8  and  C_9
REMARK    7  A    between atoms: C_15  and  C_16
REMARK    8  A    between atoms: N_19  and  C_20
REMARK    9  A    between atoms: N_22  and  C_23
REMARK                            x       y       z     vdW  Elec       q    Type
REMARK                         _______ _______ _______ _____ _____    ______ ____
ROOT
ATOM      1  C   UNL     1      -5.579  11.837  19.529  0.00  0.00    +0.000 A 
ATOM      2  C   UNL     1      -6.832  11.745  20.166  0.00  0.00    +0.000 A 
ATOM      3  C   UNL     1      -7.126  12.552  21.262  0.00  0.00    +0.000 A 
ATOM      4  C   UNL     1      -6.137  13.395  21.725  0.00  0.00    +0.000 A 
ATOM      5  C   UNL     1      -4.887  13.499  21.079  0.00  0.00    +0.000 A 
ATOM      6  C   UNL     1      -4.592  12.727  19.967  0.00  0.00    +0.000 A 
ATOM      7  C   UNL     1      -4.028  14.457  21.875  0.00  0.00    +0.000 C 
ATOM      8  C   UNL     1      -4.095  15.853  21.250  0.00  0.00    +0.000 C 
ATOM      9  C   UNL     1      -2.571  14.064  22.178  0.00  0.00    +0.000 C 
ATOM     10  C   UNL     1      -2.606  13.221  23.451  0.00  0.00    +0.000 C 
ATOM     11  N   UNL     1      -4.009  13.097  23.724  0.00  0.00    +0.000 NA
ATOM     12  C   UNL     1      -4.473  12.354  24.853  0.00  0.00    +0.000 C 
ATOM     13  C   UNL     1      -4.750  14.270  23.250  0.00  0.00    +0.000 C 
ATOM     14  N   UNL     1      -6.183  14.066  22.976  0.00  0.00    +0.000 N 
ATOM     15  C   UNL     1      -7.081  15.206  22.995  0.00  0.00    +0.000 C 
ENDROOT
BRANCH   1  16
ATOM     16  O   UNL     1      -5.207  10.900  18.546  0.00  0.00    +0.000 OA
BRANCH  16  18
ATOM     17  N   UNL     1      -3.642  10.793  16.843  0.00  0.00    +0.000 N 
ATOM     18  C   UNL     1      -4.801  11.398  17.307  0.00  0.00    +0.000 C 
ATOM     19  O   UNL     1      -5.419  12.253  16.679  0.00  0.00    +0.000 OA
BRANCH  17  21
ATOM     20  C   UNL     1      -3.070   9.976  14.553  0.00  0.00    +0.000 C 
ATOM     21  C   UNL     1      -3.168  11.154  15.509  0.00  0.00    +0.000 C 
ENDBRANCH  17  21
BRANCH  17  22
ATOM     22  C   UNL     1      -2.928   9.769  17.602  0.00  0.00    +0.000 C 
ATOM     23  C   UNL     1      -1.669  10.271  18.293  0.00  0.00    +0.000 C 
ENDBRANCH  17  22
ENDBRANCH  16  18
ENDBRANCH   1  16
TORSDOF 4
ENDMDL
MODEL 5
REMARK VINA RESULT:      -5.6      2.006      3.931
REMARK  Name = 
REMARK  9 active torsions:
REMARK  status: ('A' for Active; 'I' for Inactive)
REMARK    1  A    between atoms: C_1  and  C_2
REMARK    2  A    between atoms: C_2  and  N_3
REMARK    3  A    between atoms: N_3  and  C_4
REMARK    4  A    between atoms: C_4  and  C_5
REMARK    5  A    between atoms: C_6  and  O_8
REMARK    6  A    between atoms: O_8  and  C_9
REMARK    7  A    between atoms: C_15  and  C_16
REMARK    8  A    between atoms: N_19  and  C_20
REMARK    9  A    between atoms: N_22  and  C_23
REMARK                            x       y       z     vdW  Elec       q    Type
REMARK                         _______ _______ _______ _____ _____    ______ ____
ROOT
ATOM      1  C   UNL     1       2.492   7.139  18.311  0.00  0.00    +0.000 A 
ATOM      2  C   UNL     1       1.656   6.047  18.006  0.00  0.00    +0.000 A 
ATOM      3  C   UNL     1       2.200   4.788  17.768  0.00  0.00    +0.000 A 
ATOM      4  C   UNL     1       3.574   4.666  17.790  0.00  0.00    +0.000 A 
ATOM      5  C   UNL     1       4.411   5.754  18.109  0.00  0.00    +0.000 A 
ATOM      6  C   UNL     1       3.883   7.006  18.382  0.00  0.00    +0.000 A 
ATOM      7  C   UNL     1       5.847   5.293  17.982  0.00  0.00    +0.000 C 
ATOM      8  C   UNL     1       6.388   4.899  19.359  0.00  0.00    +0.000 C 
ATOM      9  C   UNL     1       6.849   6.194  17.240  0.00  0.00    +0.000 C 
ATOM     10  C   UNL     1       6.728   5.847  15.758  0.00  0.00    +0.000 C 
ATOM     11  N   UNL     1       5.650   4.901  15.729  0.00  0.00    +0.000 NA
ATOM     12  C   UNL     1       5.209   4.329  14.496  0.00  0.00    +0.000 C 
ATOM     13  C   UNL     1       5.588   4.127  16.972  0.00  0.00    +0.000 C 
ATOM     14  N   UNL     1       4.281   3.533  17.303  0.00  0.00    +0.000 N 
ATOM     15  C   UNL     1       4.224   2.384  18.189  0.00  0.00    +0.000 C 
ENDROOT
BRANCH   1  16
ATOM     16  O   UNL     1       1.969   8.445  18.368  0.00  0.00    +0.000 OA
BRANCH  16  18
ATOM     17  N   UNL     1       0.332   9.739  19.371  0.00  0.00    +0.000 N 
ATOM     18  C   UNL     1       1.377   8.847  19.565  0.00  0.00    +0.000 C 
ATOM     19  O   UNL     1       1.719   8.432  20.670  0.00  0.00    +0.000 OA
BRANCH  17  21
ATOM     20  C   UNL     1      -0.009  11.503  21.105  0.00  0.00    +0.000 C 
ATOM     21  C   UNL     1      -0.438  10.158  20.540  0.00  0.00    +0.000 C 
ENDBRANCH  17  21
BRANCH  17  22
ATOM     22  C   UNL     1      -0.066  10.211  18.047  0.00  0.00    +0.000 C 
ATOM     23  C   UNL     1      -1.570  10.236  17.821  0.00  0.00    +0.000 C 
ENDBRANCH  17  22
ENDBRANCH  16  18
ENDBRANCH   1  16
TORSDOF 4
ENDMDL
MODEL 6
REMARK VINA RESULT:      -5.5      1.750      3.074
REMARK  Name = 
REMARK  9 active torsions:
REMARK  status: ('A' for Active; 'I' for Inactive)
REMARK    1  A    between atoms: C_1  and  C_2
REMARK    2  A    between atoms: C_2  and  N_3
REMARK    3  A    between atoms: N_3  and  C_4
REMARK    4  A    between atoms: C_4  and  C_5
REMARK    5  A    between atoms: C_6  and  O_8
REMARK    6  A    between atoms: O_8  and  C_9
REMARK    7  A    between atoms: C_15  and  C_16
REMARK    8  A    between atoms: N_19  and  C_20
REMARK    9  A    between atoms: N_22  and  C_23
REMARK                            x       y       z     vdW  Elec       q    Type
REMARK                         _______ _______ _______ _____ _____    ______ ____
ROOT
ATOM      1  C   UNL     1       2.415   6.861  19.030  0.00  0.00    +0.000 A 
ATOM      2  C   UNL     1       1.441   6.300  18.181  0.00  0.00    +0.000 A 
ATOM      3  C   UNL     1       1.642   5.045  17.613  0.00  0.00    +0.000 A 
ATOM      4  C   UNL     1       2.838   4.405  17.868  0.00  0.00    +0.000 A 
ATOM      5  C   UNL     1       3.807   4.960  18.730  0.00  0.00    +0.000 A 
ATOM      6  C   UNL     1       3.607   6.193  19.330  0.00  0.00    +0.000 A 
ATOM      7  C   UNL     1       5.007   4.039  18.737  0.00  0.00    +0.000 C 
ATOM      8  C   UNL     1       4.938   3.109  19.952  0.00  0.00    +0.000 C 
ATOM      9  C   UNL     1       6.411   4.654  18.600  0.00  0.00    +0.000 C 
ATOM     10  C   UNL     1       6.676   4.797  17.103  0.00  0.00    +0.000 C 
ATOM     11  N   UNL     1       5.438   4.381  16.510  0.00  0.00    +0.000 NA
ATOM     12  C   UNL     1       5.270   4.380  15.090  0.00  0.00    +0.000 C 
ATOM     13  C   UNL     1       4.758   3.382  17.340  0.00  0.00    +0.000 C 
ATOM     14  N   UNL     1       3.301   3.268  17.155  0.00  0.00    +0.000 N 
ATOM     15  C   UNL     1       2.631   2.034  17.523  0.00  0.00    +0.000 C 
ENDROOT
BRANCH   1  16
ATOM     16  O   UNL     1       2.307   8.199  19.455  0.00  0.00    +0.000 OA
BRANCH  16  18
ATOM     17  N   UNL     1       0.549   9.690  19.228  0.00  0.00    +0.000 N 
ATOM     18  C   UNL     1       1.636   9.087  18.612  0.00  0.00    +0.000 C 
ATOM     19  O   UNL     1       1.989   9.335  17.462  0.00  0.00    +0.000 OA
BRANCH  17  21
ATOM     20  C   UNL     1      -1.442  10.207  17.812  0.00  0.00    +0.000 C 
ATOM     21  C   UNL     1      -0.177  10.717  18.485  0.00  0.00    +0.000 C 
ENDBRANCH  17  21
BRANCH  17  22
ATOM     22  C   UNL     1       0.153   9.388  20.602  0.00  0.00    +0.000 C 
ATOM     23  C   UNL     1      -0.251  10.608  21.415  0.00  0.00    +0.000 C 
ENDBRANCH  17  22
ENDBRANCH  16  18
ENDBRANCH   1  16
TORSDOF 4
ENDMDL
MODEL 7
REMARK VINA RESULT:      -5.5      1.663      3.648
REMARK  Name = 
REMARK  9 active torsions:
REMARK  status: ('A' for Active; 'I' for Inactive)
REMARK    1  A    between atoms: C_1  and  C_2
REMARK    2  A    between atoms: C_2  and  N_3
REMARK    3  A    between atoms: N_3  and  C_4
REMARK    4  A    between atoms: C_4  and  C_5
REMARK    5  A    between atoms: C_6  and  O_8
REMARK    6  A    between atoms: O_8  and  C_9
REMARK    7  A    between atoms: C_15  and  C_16
REMARK    8  A    between atoms: N_19  and  C_20
REMARK    9  A    between atoms: N_22  and  C_23
REMARK                            x       y       z     vdW  Elec       q    Type
REMARK                         _______ _______ _______ _____ _____    ______ ____
ROOT
ATOM      1  C   UNL     1       2.027   7.042  20.024  0.00  0.00    +0.000 A 
ATOM      2  C   UNL     1       1.396   5.979  20.701  0.00  0.00    +0.000 A 
ATOM      3  C   UNL     1       1.961   4.707  20.697  0.00  0.00    +0.000 A 
ATOM      4  C   UNL     1       3.120   4.519  19.971  0.00  0.00    +0.000 A 
ATOM      5  C   UNL     1       3.760   5.585  19.306  0.00  0.00    +0.000 A 
ATOM      6  C   UNL     1       3.228   6.864  19.329  0.00  0.00    +0.000 A 
ATOM      7  C   UNL     1       4.955   5.024  18.567  0.00  0.00    +0.000 C 
ATOM      8  C   UNL     1       6.222   5.222  19.404  0.00  0.00    +0.000 C 
ATOM      9  C   UNL     1       5.192   5.458  17.109  0.00  0.00    +0.000 C 
ATOM     10  C   UNL     1       4.359   4.521  16.238  0.00  0.00    +0.000 C 
ATOM     11  N   UNL     1       3.652   3.723  17.197  0.00  0.00    +0.000 NA
ATOM     12  C   UNL     1       2.737   2.709  16.776  0.00  0.00    +0.000 C 
ATOM     13  C   UNL     1       4.428   3.558  18.430  0.00  0.00    +0.000 C 
ATOM     14  N   UNL     1       3.658   3.246  19.646  0.00  0.00    +0.000 N 
ATOM     15  C   UNL     1       4.320   2.590  20.759  0.00  0.00    +0.000 C 
ENDROOT
BRANCH   1  16
ATOM     16  O   UNL     1       1.371   8.278  19.866  0.00  0.00    +0.000 OA
BRANCH  16  18
ATOM     17  N   UNL     1       0.203  10.020  20.847  0.00  0.00    +0.000 N 
ATOM     18  C   UNL     1       1.191   9.059  21.008  0.00  0.00    +0.000 C 
ATOM     19  O   UNL     1       1.814   8.893  22.054  0.00  0.00    +0.000 OA
BRANCH  17  21
ATOM     20  C   UNL     1      -0.864  10.067  23.104  0.00  0.00    +0.000 C 
ATOM     21  C   UNL     1      -0.152  10.838  22.004  0.00  0.00    +0.000 C 
ENDBRANCH  17  21
BRANCH  17  22
ATOM     22  C   UNL     1      -0.533  10.193  19.597  0.00  0.00    +0.000 C 
ATOM     23  C   UNL     1      -1.354  11.472  19.530  0.00  0.00    +0.000 C 
ENDBRANCH  17  22
ENDBRANCH  16  18
ENDBRANCH   1  16
TORSDOF 4
ENDMDL
MODEL 8
REMARK VINA RESULT:      -5.4      1.908      2.573
REMARK  Name = 
REMARK  9 active torsions:
REMARK  status: ('A' for Active; 'I' for Inactive)
REMARK    1  A    between atoms: C_1  and  C_2
REMARK    2  A    between atoms: C_2  and  N_3
REMARK    3  A    between atoms: N_3  and  C_4
REMARK    4  A    between atoms: C_4  and  C_5
REMARK    5  A    between atoms: C_6  and  O_8
REMARK    6  A    between atoms: O_8  and  C_9
REMARK    7  A    between atoms: C_15  and  C_16
REMARK    8  A    between atoms: N_19  and  C_20
REMARK    9  A    between atoms: N_22  and  C_23
REMARK                            x       y       z     vdW  Elec       q    Type
REMARK                         _______ _______ _______ _____ _____    ______ ____
ROOT
ATOM      1  C   UNL     1       2.261   7.433  18.887  0.00  0.00    +0.000 A 
ATOM      2  C   UNL     1       3.079   8.214  18.046  0.00  0.00    +0.000 A 
ATOM      3  C   UNL     1       4.012   7.607  17.210  0.00  0.00    +0.000 A 
ATOM      4  C   UNL     1       4.139   6.235  17.275  0.00  0.00    +0.000 A 
ATOM      5  C   UNL     1       3.311   5.451  18.105  0.00  0.00    +0.000 A 
ATOM      6  C   UNL     1       2.354   6.037  18.918  0.00  0.00    +0.000 A 
ATOM      7  C   UNL     1       3.755   4.010  17.981  0.00  0.00    +0.000 C 
ATOM      8  C   UNL     1       2.867   3.281  16.968  0.00  0.00    +0.000 C 
ATOM      9  C   UNL     1       3.918   3.175  19.263  0.00  0.00    +0.000 C 
ATOM     10  C   UNL     1       5.331   3.444  19.777  0.00  0.00    +0.000 C 
ATOM     11  N   UNL     1       5.824   4.442  18.873  0.00  0.00    +0.000 NA
ATOM     12  C   UNL     1       7.140   4.981  19.023  0.00  0.00    +0.000 C 
ATOM     13  C   UNL     1       5.228   4.297  17.542  0.00  0.00    +0.000 C 
ATOM     14  N   UNL     1       5.214   5.506  16.701  0.00  0.00    +0.000 N 
ATOM     15  C   UNL     1       5.124   5.370  15.258  0.00  0.00    +0.000 C 
ENDROOT
BRANCH   1  16
ATOM     16  O   UNL     1       1.453   8.044  19.865  0.00  0.00    +0.000 OA
BRANCH  16  18
ATOM     17  N   UNL     1       0.761  10.090  20.700  0.00  0.00    +0.000 N 
ATOM     18  C   UNL     1       0.930   9.303  19.570  0.00  0.00    +0.000 C 
ATOM     19  O   UNL     1       0.678   9.688  18.430  0.00  0.00    +0.000 OA
BRANCH  17  21
ATOM     20  C   UNL     1       1.441  12.489  20.554  0.00  0.00    +0.000 C 
ATOM     21  C   UNL     1       0.315  11.469  20.515  0.00  0.00    +0.000 C 
ENDBRANCH  17  21
BRANCH  17  22
ATOM     22  C   UNL     1       1.078   9.617  22.045  0.00  0.00    +0.000 C 
ATOM     23  C   UNL     1      -0.107   9.612  22.999  0.00  0.00    +0.000 C 
ENDBRANCH  17  22
ENDBRANCH  16  18
ENDBRANCH   1  16
TORSDOF 4
ENDMDL
MODEL 9
REMARK VINA RESULT:      -5.4      2.305      8.208
REMARK  Name = 
REMARK  9 active torsions:
REMARK  status: ('A' for Active; 'I' for Inactive)
REMARK    1  A    between atoms: C_1  and  C_2
REMARK    2  A    between atoms: C_2  and  N_3
REMARK    3  A    between atoms: N_3  and  C_4
REMARK    4  A    between atoms: C_4  and  C_5
REMARK    5  A    between atoms: C_6  and  O_8
REMARK    6  A    between atoms: O_8  and  C_9
REMARK    7  A    between atoms: C_15  and  C_16
REMARK    8  A    between atoms: N_19  and  C_20
REMARK    9  A    between atoms: N_22  and  C_23
REMARK                            x       y       z     vdW  Elec       q    Type
REMARK                         _______ _______ _______ _____ _____    ______ ____
ROOT
ATOM      1  C   UNL     1       1.306   8.869  20.578  0.00  0.00    +0.000 A 
ATOM      2  C   UNL     1       1.141   8.947  21.975  0.00  0.00    +0.000 A 
ATOM      3  C   UNL     1       0.318   9.920  22.534  0.00  0.00    +0.000 A 
ATOM      4  C   UNL     1      -0.280  10.826  21.681  0.00  0.00    +0.000 A 
ATOM      5  C   UNL     1      -0.127  10.740  20.282  0.00  0.00    +0.000 A 
ATOM      6  C   UNL     1       0.661   9.756  19.708  0.00  0.00    +0.000 A 
ATOM      7  C   UNL     1      -0.856  11.911  19.660  0.00  0.00    +0.000 C 
ATOM      8  C   UNL     1      -2.250  11.469  19.203  0.00  0.00    +0.000 C 
ATOM      9  C   UNL     1      -0.151  12.718  18.555  0.00  0.00    +0.000 C 
ATOM     10  C   UNL     1       0.697  13.771  19.264  0.00  0.00    +0.000 C 
ATOM     11  N   UNL     1       0.521  13.455  20.651  0.00  0.00    +0.000 NA
ATOM     12  C   UNL     1       1.175  14.220  21.666  0.00  0.00    +0.000 C 
ATOM     13  C   UNL     1      -0.795  12.860  20.901  0.00  0.00    +0.000 C 
ATOM     14  N   UNL     1      -0.913  12.024  22.108  0.00  0.00    +0.000 N 
ATOM     15  C   UNL     1      -2.219  11.814  22.704  0.00  0.00    +0.000 C 
ENDROOT
BRANCH   1  16
ATOM     16  O   UNL     1       2.276   8.015  20.019  0.00  0.00    +0.000 OA
BRANCH  16  18
ATOM     17  N   UNL     1       2.585   6.002  18.917  0.00  0.00    +0.000 N 
ATOM     18  C   UNL     1       1.986   6.650  19.988  0.00  0.00    +0.000 C 
ATOM     19  O   UNL     1       1.305   6.077  20.834  0.00  0.00    +0.000 OA
BRANCH  17  21
ATOM     20  C   UNL     1       1.489   4.095  17.736  0.00  0.00    +0.000 C 
ATOM     21  C   UNL     1       2.442   4.551  18.828  0.00  0.00    +0.000 C 
ENDBRANCH  17  21
BRANCH  17  22
ATOM     22  C   UNL     1       3.402   6.702  17.928  0.00  0.00    +0.000 C 
ATOM     23  C   UNL     1       4.712   6.004  17.596  0.00  0.00    +0.000 C 
ENDBRANCH  17  22
ENDBRANCH  16  18
ENDBRANCH   1  16
TORSDOF 4
ENDMDL
