MODEL 1
REMARK VINA RESULT:      -5.9      0.000      0.000
REMARK  Name = 
REMARK  13 active torsions:
REMARK  status: ('A' for Active; 'I' for Inactive)
REMARK    1  A    between atoms: C_1  and  N_2
REMARK    2  A    between atoms: N_2  and  C_3
REMARK    3  A    between atoms: N_2  and  C_4
REMARK    4  A    between atoms: C_4  and  C_5
REMARK    5  A    between atoms: C_5  and  O_6
REMARK    6  A    between atoms: O_6  and  C_7
REMARK    7  A    between atoms: C_7  and  C_8
REMARK    8  A    between atoms: C_8  and  O_9
REMARK    9  A    between atoms: O_9  and  C_10
REMARK   10  A    between atoms: C_16  and  C_17
REMARK   11  A    between atoms: C_17  and  C_18
REMARK   12  A    between atoms: C_17  and  C_19
REMARK   13  A    between atoms: C_17  and  C_20
REMARK                            x       y       z     vdW  Elec       q    Type
REMARK                         _______ _______ _______ _____ _____    ______ ____
ROOT
ATOM      1  C   UNL     1       3.212   4.928  18.738  0.00  0.00    +0.000 A 
ATOM      2  C   UNL     1       3.270   6.288  18.403  0.00  0.00    +0.000 A 
ATOM      3  C   UNL     1       2.596   7.252  19.158  0.00  0.00    +0.000 A 
ATOM      4  C   UNL     1       1.865   6.859  20.267  0.00  0.00    +0.000 A 
ATOM      5 CL   UNL     1       1.015   8.031  21.197  0.00  0.00    +0.000 Cl
ATOM      6  C   UNL     1       1.809   5.515  20.630  0.00  0.00    +0.000 A 
ATOM      7  C   UNL     1       2.477   4.510  19.887  0.00  0.00    +0.000 A 
ENDROOT
BRANCH   7   8
ATOM      8  C   UNL     1       2.366   3.027  20.333  0.00  0.00    +0.000 C 
ATOM      9  C   UNL     1       3.745   2.342  20.553  0.00  0.00    +0.000 C 
ATOM     10  C   UNL     1       1.620   2.921  21.680  0.00  0.00    +0.000 C 
ATOM     11  C   UNL     1       1.641   2.176  19.270  0.00  0.00    +0.000 C 
ENDBRANCH   7   8
BRANCH   1  12
ATOM     12  O   UNL     1       3.859   3.956  18.013  0.00  0.00    +0.000 OA
BRANCH  12  13
ATOM     13  C   UNL     1       3.768   3.950  16.576  0.00  0.00    +0.000 C 
BRANCH  13  14
ATOM     14  C   UNL     1       5.192   4.098  16.005  0.00  0.00    +0.000 C 
BRANCH  14  15
ATOM     15  O   UNL     1       6.218   3.849  16.983  0.00  0.00    +0.000 OA
BRANCH  15  16
ATOM     16  C   UNL     1       7.387   4.671  16.748  0.00  0.00    +0.000 C 
BRANCH  16  17
ATOM     17  C   UNL     1       6.988   6.167  16.668  0.00  0.00    +0.000 C 
BRANCH  17  19
ATOM     18  C   UNL     1       7.879   6.203  18.915  0.00  0.00    +0.000 C 
ATOM     19  N   UNL     1       7.148   6.980  17.898  0.00  0.00    +0.000 NA
ATOM     20  C   UNL     1       7.859   8.244  17.693  0.00  0.00    +0.000 C 
ENDBRANCH  17  19
ENDBRANCH  16  17
ENDBRANCH  15  16
ENDBRANCH  14  15
ENDBRANCH  13  14
ENDBRANCH  12  13
ENDBRANCH   1  12
TORSDOF 8
ENDMDL
MODEL 2
REMARK VINA RESULT:      -5.8      2.275      3.305
REMARK  Name = 
REMARK  13 active torsions:
REMARK  status: ('A' for Active; 'I' for Inactive)
REMARK    1  A    between atoms: C_1  and  N_2
REMARK    2  A    between atoms: N_2  and  C_3
REMARK    3  A    between atoms: N_2  and  C_4
REMARK    4  A    between atoms: C_4  and  C_5
REMARK    5  A    between atoms: C_5  and  O_6
REMARK    6  A    between atoms: O_6  and  C_7
REMARK    7  A    between atoms: C_7  and  C_8
REMARK    8  A    between atoms: C_8  and  O_9
REMARK    9  A    between atoms: O_9  and  C_10
REMARK   10  A    between atoms: C_16  and  C_17
REMARK   11  A    between atoms: C_17  and  C_18
REMARK   12  A    between atoms: C_17  and  C_19
REMARK   13  A    between atoms: C_17  and  C_20
REMARK                            x       y       z     vdW  Elec       q    Type
REMARK                         _______ _______ _______ _____ _____    ______ ____
ROOT
ATOM      1  C   UNL     1       3.378   4.947  18.674  0.00  0.00    +0.000 A 
ATOM      2  C   UNL     1       3.371   6.323  18.404  0.00  0.00    +0.000 A 
ATOM      3  C   UNL     1       2.615   7.211  19.174  0.00  0.00    +0.000 A 
ATOM      4  C   UNL     1       1.867   6.726  20.235  0.00  0.00    +0.000 A 
ATOM      5 CL   UNL     1       0.918   7.804  21.182  0.00  0.00    +0.000 Cl
ATOM      6  C   UNL     1       1.875   5.366  20.533  0.00  0.00    +0.000 A 
ATOM      7  C   UNL     1       2.626   4.435  19.773  0.00  0.00    +0.000 A 
ENDROOT
BRANCH   7   8
ATOM      8  C   UNL     1       2.584   2.929  20.147  0.00  0.00    +0.000 C 
ATOM      9  C   UNL     1       1.959   2.032  19.041  0.00  0.00    +0.000 C 
ATOM     10  C   UNL     1       4.012   2.388  20.376  0.00  0.00    +0.000 C 
ATOM     11  C   UNL     1       1.730   2.691  21.411  0.00  0.00    +0.000 C 
ENDBRANCH   7   8
BRANCH   1  12
ATOM     12  O   UNL     1       4.106   4.048  17.933  0.00  0.00    +0.000 OA
BRANCH  12  13
ATOM     13  C   UNL     1       5.516   4.259  17.729  0.00  0.00    +0.000 C 
BRANCH  13  14
ATOM     14  C   UNL     1       5.843   3.923  16.260  0.00  0.00    +0.000 C 
BRANCH  14  15
ATOM     15  O   UNL     1       7.008   4.611  15.773  0.00  0.00    +0.000 OA
BRANCH  15  16
ATOM     16  C   UNL     1       6.941   4.824  14.341  0.00  0.00    +0.000 C 
BRANCH  16  17
ATOM     17  C   UNL     1       5.693   4.119  13.749  0.00  0.00    +0.000 C 
BRANCH  17  19
ATOM     18  C   UNL     1       4.670   3.218  11.753  0.00  0.00    +0.000 C 
ATOM     19  N   UNL     1       5.900   3.253  12.563  0.00  0.00    +0.000 NA
ATOM     20  C   UNL     1       7.002   3.678  11.697  0.00  0.00    +0.000 C 
ENDBRANCH  17  19
ENDBRANCH  16  17
ENDBRANCH  15  16
ENDBRANCH  14  15
ENDBRANCH  13  14
ENDBRANCH  12  13
ENDBRANCH   1  12
TORSDOF 8
ENDMDL
MODEL 3
REMARK VINA RESULT:      -5.7      2.564      3.674
REMARK  Name = 
REMARK  13 active torsions:
REMARK  status: ('A' for Active; 'I' for Inactive)
REMARK    1  A    between atoms: C_1  and  N_2
REMARK    2  A    between atoms: N_2  and  C_3
REMARK    3  A    between atoms: N_2  and  C_4
REMARK    4  A    between atoms: C_4  and  C_5
REMARK    5  A    between atoms: C_5  and  O_6
REMARK    6  A    between atoms: O_6  and  C_7
REMARK    7  A    between atoms: C_7  and  C_8
REMARK    8  A    between atoms: C_8  and  O_9
REMARK    9  A    between atoms: O_9  and  C_10
REMARK   10  A    between atoms: C_16  and  C_17
REMARK   11  A    between atoms: C_17  and  C_18
REMARK   12  A    between atoms: C_17  and  C_19
REMARK   13  A    between atoms: C_17  and  C_20
REMARK                            x       y       z     vdW  Elec       q    Type
REMARK                         _______ _______ _______ _____ _____    ______ ____
ROOT
ATOM      1  C   UNL     1       3.429   4.868  18.356  0.00  0.00    +0.000 A 
ATOM      2  C   UNL     1       3.379   6.223  17.999  0.00  0.00    +0.000 A 
ATOM      3  C   UNL     1       2.728   7.162  18.804  0.00  0.00    +0.000 A 
ATOM      4  C   UNL     1       2.129   6.751  19.983  0.00  0.00    +0.000 A 
ATOM      5 CL   UNL     1       1.308   7.892  20.975  0.00  0.00    +0.000 Cl
ATOM      6  C   UNL     1       2.183   5.413  20.367  0.00  0.00    +0.000 A 
ATOM      7  C   UNL     1       2.831   4.432  19.575  0.00  0.00    +0.000 A 
ENDROOT
BRANCH   7   8
ATOM      8  C   UNL     1       2.846   2.953  20.050  0.00  0.00    +0.000 C 
ATOM      9  C   UNL     1       2.317   2.762  21.499  0.00  0.00    +0.000 C 
ATOM     10  C   UNL     1       1.941   2.086  19.149  0.00  0.00    +0.000 C 
ATOM     11  C   UNL     1       4.280   2.382  20.049  0.00  0.00    +0.000 C 
ENDBRANCH   7   8
BRANCH   1  12
ATOM     12  O   UNL     1       4.056   3.920  17.585  0.00  0.00    +0.000 OA
BRANCH  12  13
ATOM     13  C   UNL     1       4.524   4.260  16.266  0.00  0.00    +0.000 C 
BRANCH  13  14
ATOM     14  C   UNL     1       6.065   4.254  16.288  0.00  0.00    +0.000 C 
BRANCH  14  15
ATOM     15  O   UNL     1       6.642   3.795  15.053  0.00  0.00    +0.000 OA
BRANCH  15  16
ATOM     16  C   UNL     1       5.760   4.040  13.930  0.00  0.00    +0.000 C 
BRANCH  16  17
ATOM     17  C   UNL     1       6.490   3.741  12.595  0.00  0.00    +0.000 C 
BRANCH  17  19
ATOM     18  C   UNL     1       5.966   1.610  11.581  0.00  0.00    +0.000 C 
ATOM     19  N   UNL     1       5.711   3.060  11.532  0.00  0.00    +0.000 NA
ATOM     20  C   UNL     1       4.265   3.272  11.621  0.00  0.00    +0.000 C 
ENDBRANCH  17  19
ENDBRANCH  16  17
ENDBRANCH  15  16
ENDBRANCH  14  15
ENDBRANCH  13  14
ENDBRANCH  12  13
ENDBRANCH   1  12
TORSDOF 8
ENDMDL
MODEL 4
REMARK VINA RESULT:      -5.7      0.700      1.097
REMARK  Name = 
REMARK  13 active torsions:
REMARK  status: ('A' for Active; 'I' for Inactive)
REMARK    1  A    between atoms: C_1  and  N_2
REMARK    2  A    between atoms: N_2  and  C_3
REMARK    3  A    between atoms: N_2  and  C_4
REMARK    4  A    between atoms: C_4  and  C_5
REMARK    5  A    between atoms: C_5  and  O_6
REMARK    6  A    between atoms: O_6  and  C_7
REMARK    7  A    between atoms: C_7  and  C_8
REMARK    8  A    between atoms: C_8  and  O_9
REMARK    9  A    between atoms: O_9  and  C_10
REMARK   10  A    between atoms: C_16  and  C_17
REMARK   11  A    between atoms: C_17  and  C_18
REMARK   12  A    between atoms: C_17  and  C_19
REMARK   13  A    between atoms: C_17  and  C_20
REMARK                            x       y       z     vdW  Elec       q    Type
REMARK                         _______ _______ _______ _____ _____    ______ ____
ROOT
ATOM      1  C   UNL     1       3.182   4.911  18.793  0.00  0.00    +0.000 A 
ATOM      2  C   UNL     1       3.179   6.279  18.485  0.00  0.00    +0.000 A 
ATOM      3  C   UNL     1       2.453   7.195  19.253  0.00  0.00    +0.000 A 
ATOM      4  C   UNL     1       1.733   6.746  20.347  0.00  0.00    +0.000 A 
ATOM      5 CL   UNL     1       0.821   7.859  21.292  0.00  0.00    +0.000 Cl
ATOM      6  C   UNL     1       1.738   5.394  20.684  0.00  0.00    +0.000 A 
ATOM      7  C   UNL     1       2.458   4.437  19.927  0.00  0.00    +0.000 A 
ENDROOT
BRANCH   7   8
ATOM      8  C   UNL     1       2.415   2.942  20.344  0.00  0.00    +0.000 C 
ATOM      9  C   UNL     1       3.823   2.317  20.559  0.00  0.00    +0.000 C 
ATOM     10  C   UNL     1       1.667   2.775  21.685  0.00  0.00    +0.000 C 
ATOM     11  C   UNL     1       1.735   2.079  19.260  0.00  0.00    +0.000 C 
ENDBRANCH   7   8
BRANCH   1  12
ATOM     12  O   UNL     1       3.881   3.986  18.056  0.00  0.00    +0.000 OA
BRANCH  12  13
ATOM     13  C   UNL     1       4.177   4.246  16.671  0.00  0.00    +0.000 C 
BRANCH  13  14
ATOM     14  C   UNL     1       5.681   3.990  16.447  0.00  0.00    +0.000 C 
BRANCH  14  15
ATOM     15  O   UNL     1       6.350   5.096  15.816  0.00  0.00    +0.000 OA
BRANCH  15  16
ATOM     16  C   UNL     1       5.584   6.320  15.934  0.00  0.00    +0.000 C 
BRANCH  16  17
ATOM     17  C   UNL     1       6.085   7.155  17.141  0.00  0.00    +0.000 C 
BRANCH  17  19
ATOM     18  C   UNL     1       8.094   8.357  17.741  0.00  0.00    +0.000 C 
ATOM     19  N   UNL     1       7.514   7.022  17.512  0.00  0.00    +0.000 NA
ATOM     20  C   UNL     1       7.749   6.213  18.710  0.00  0.00    +0.000 C 
ENDBRANCH  17  19
ENDBRANCH  16  17
ENDBRANCH  15  16
ENDBRANCH  14  15
ENDBRANCH  13  14
ENDBRANCH  12  13
ENDBRANCH   1  12
TORSDOF 8
ENDMDL
MODEL 5
REMARK VINA RESULT:      -5.7      0.691      1.452
REMARK  Name = 
REMARK  13 active torsions:
REMARK  status: ('A' for Active; 'I' for Inactive)
REMARK    1  A    between atoms: C_1  and  N_2
REMARK    2  A    between atoms: N_2  and  C_3
REMARK    3  A    between atoms: N_2  and  C_4
REMARK    4  A    between atoms: C_4  and  C_5
REMARK    5  A    between atoms: C_5  and  O_6
REMARK    6  A    between atoms: O_6  and  C_7
REMARK    7  A    between atoms: C_7  and  C_8
REMARK    8  A    between atoms: C_8  and  O_9
REMARK    9  A    between atoms: O_9  and  C_10
REMARK   10  A    between atoms: C_16  and  C_17
REMARK   11  A    between atoms: C_17  and  C_18
REMARK   12  A    between atoms: C_17  and  C_19
REMARK   13  A    between atoms: C_17  and  C_20
REMARK                            x       y       z     vdW  Elec       q    Type
REMARK                         _______ _______ _______ _____ _____    ______ ____
ROOT
ATOM      1  C   UNL     1       3.133   4.797  18.710  0.00  0.00    +0.000 A 
ATOM      2  C   UNL     1       3.184   6.150  18.345  0.00  0.00    +0.000 A 
ATOM      3  C   UNL     1       2.547   7.132  19.108  0.00  0.00    +0.000 A 
ATOM      4  C   UNL     1       1.861   6.766  20.254  0.00  0.00    +0.000 A 
ATOM      5 CL   UNL     1       1.057   7.962  21.195  0.00  0.00    +0.000 Cl
ATOM      6  C   UNL     1       1.814   5.430  20.647  0.00  0.00    +0.000 A 
ATOM      7  C   UNL     1       2.445   4.406  19.897  0.00  0.00    +0.000 A 
ENDROOT
BRANCH   7   8
ATOM      8  C   UNL     1       2.347   2.933  20.378  0.00  0.00    +0.000 C 
ATOM      9  C   UNL     1       1.583   2.771  21.723  0.00  0.00    +0.000 C 
ATOM     10  C   UNL     1       1.580   2.077  19.348  0.00  0.00    +0.000 C 
ATOM     11  C   UNL     1       3.747   2.329  20.616  0.00  0.00    +0.000 C 
ENDBRANCH   7   8
BRANCH   1  12
ATOM     12  O   UNL     1       3.744   3.807  17.979  0.00  0.00    +0.000 OA
BRANCH  12  13
ATOM     13  C   UNL     1       3.665   3.822  16.541  0.00  0.00    +0.000 C 
BRANCH  13  14
ATOM     14  C   UNL     1       5.101   3.817  15.982  0.00  0.00    +0.000 C 
BRANCH  14  15
ATOM     15  O   UNL     1       5.417   5.005  15.235  0.00  0.00    +0.000 OA
BRANCH  15  16
ATOM     16  C   UNL     1       6.146   5.963  16.040  0.00  0.00    +0.000 C 
BRANCH  16  17
ATOM     17  C   UNL     1       6.997   5.231  17.110  0.00  0.00    +0.000 C 
BRANCH  17  19
ATOM     18  C   UNL     1       7.592   7.488  17.741  0.00  0.00    +0.000 C 
ATOM     19  N   UNL     1       7.899   6.061  17.945  0.00  0.00    +0.000 NA
ATOM     20  C   UNL     1       7.816   5.778  19.380  0.00  0.00    +0.000 C 
ENDBRANCH  17  19
ENDBRANCH  16  17
ENDBRANCH  15  16
ENDBRANCH  14  15
ENDBRANCH  13  14
ENDBRANCH  12  13
ENDBRANCH   1  12
TORSDOF 8
ENDMDL
MODEL 6
REMARK VINA RESULT:      -5.7      0.637      1.297
REMARK  Name = 
REMARK  13 active torsions:
REMARK  status: ('A' for Active; 'I' for Inactive)
REMARK    1  A    between atoms: C_1  and  N_2
REMARK    2  A    between atoms: N_2  and  C_3
REMARK    3  A    between atoms: N_2  and  C_4
REMARK    4  A    between atoms: C_4  and  C_5
REMARK    5  A    between atoms: C_5  and  O_6
REMARK    6  A    between atoms: O_6  and  C_7
REMARK    7  A    between atoms: C_7  and  C_8
REMARK    8  A    between atoms: C_8  and  O_9
REMARK    9  A    between atoms: O_9  and  C_10
REMARK   10  A    between atoms: C_16  and  C_17
REMARK   11  A    between atoms: C_17  and  C_18
REMARK   12  A    between atoms: C_17  and  C_19
REMARK   13  A    between atoms: C_17  and  C_20
REMARK                            x       y       z     vdW  Elec       q    Type
REMARK                         _______ _______ _______ _____ _____    ______ ____
ROOT
ATOM      1  C   UNL     1       3.342   4.931  18.663  0.00  0.00    +0.000 A 
ATOM      2  C   UNL     1       3.315   6.302  18.369  0.00  0.00    +0.000 A 
ATOM      3  C   UNL     1       2.587   7.198  19.156  0.00  0.00    +0.000 A 
ATOM      4  C   UNL     1       1.888   6.728  20.256  0.00  0.00    +0.000 A 
ATOM      5 CL   UNL     1       0.973   7.817  21.224  0.00  0.00    +0.000 Cl
ATOM      6  C   UNL     1       1.916   5.373  20.577  0.00  0.00    +0.000 A 
ATOM      7  C   UNL     1       2.640   4.433  19.801  0.00  0.00    +0.000 A 
ENDROOT
BRANCH   7   8
ATOM      8  C   UNL     1       2.624   2.934  20.202  0.00  0.00    +0.000 C 
ATOM      9  C   UNL     1       1.982   2.672  21.594  0.00  0.00    +0.000 C 
ATOM     10  C   UNL     1       1.796   2.111  19.191  0.00  0.00    +0.000 C 
ATOM     11  C   UNL     1       4.055   2.363  20.287  0.00  0.00    +0.000 C 
ENDBRANCH   7   8
BRANCH   1  12
ATOM     12  O   UNL     1       4.044   4.023  17.906  0.00  0.00    +0.000 OA
BRANCH  12  13
ATOM     13  C   UNL     1       4.408   4.346  16.551  0.00  0.00    +0.000 C 
BRANCH  13  14
ATOM     14  C   UNL     1       5.746   3.648  16.236  0.00  0.00    +0.000 C 
BRANCH  14  15
ATOM     15  O   UNL     1       6.862   4.554  16.218  0.00  0.00    +0.000 OA
BRANCH  15  16
ATOM     16  C   UNL     1       7.561   4.563  17.488  0.00  0.00    +0.000 C 
BRANCH  16  17
ATOM     17  C   UNL     1       7.447   5.957  18.156  0.00  0.00    +0.000 C 
BRANCH  17  19
ATOM     18  C   UNL     1       6.025   7.501  16.956  0.00  0.00    +0.000 C 
ATOM     19  N   UNL     1       7.420   7.140  17.262  0.00  0.00    +0.000 NA
ATOM     20  C   UNL     1       8.086   8.322  17.812  0.00  0.00    +0.000 C 
ENDBRANCH  17  19
ENDBRANCH  16  17
ENDBRANCH  15  16
ENDBRANCH  14  15
ENDBRANCH  13  14
ENDBRANCH  12  13
ENDBRANCH   1  12
TORSDOF 8
ENDMDL
MODEL 7
REMARK VINA RESULT:      -5.7      3.331      6.427
REMARK  Name = 
REMARK  13 active torsions:
REMARK  status: ('A' for Active; 'I' for Inactive)
REMARK    1  A    between atoms: C_1  and  N_2
REMARK    2  A    between atoms: N_2  and  C_3
REMARK    3  A    between atoms: N_2  and  C_4
REMARK    4  A    between atoms: C_4  and  C_5
REMARK    5  A    between atoms: C_5  and  O_6
REMARK    6  A    between atoms: O_6  and  C_7
REMARK    7  A    between atoms: C_7  and  C_8
REMARK    8  A    between atoms: C_8  and  O_9
REMARK    9  A    between atoms: O_9  and  C_10
REMARK   10  A    between atoms: C_16  and  C_17
REMARK   11  A    between atoms: C_17  and  C_18
REMARK   12  A    between atoms: C_17  and  C_19
REMARK   13  A    between atoms: C_17  and  C_20
REMARK                            x       y       z     vdW  Elec       q    Type
REMARK                         _______ _______ _______ _____ _____    ______ ____
ROOT
ATOM      1  C   UNL     1       5.558   4.189  16.320  0.00  0.00    +0.000 A 
ATOM      2  C   UNL     1       5.539   3.397  15.162  0.00  0.00    +0.000 A 
ATOM      3  C   UNL     1       6.281   3.747  14.031  0.00  0.00    +0.000 A 
ATOM      4  C   UNL     1       7.061   4.891  14.054  0.00  0.00    +0.000 A 
ATOM      5 CL   UNL     1       7.966   5.344  12.662  0.00  0.00    +0.000 Cl
ATOM      6  C   UNL     1       7.111   5.682  15.200  0.00  0.00    +0.000 A 
ATOM      7  C   UNL     1       6.370   5.362  16.365  0.00  0.00    +0.000 A 
ENDROOT
BRANCH   7   8
ATOM      8  C   UNL     1       6.457   6.290  17.607  0.00  0.00    +0.000 C 
ATOM      9  C   UNL     1       7.516   7.419  17.463  0.00  0.00    +0.000 C 
ATOM     10  C   UNL     1       5.107   7.000  17.847  0.00  0.00    +0.000 C 
ATOM     11  C   UNL     1       6.858   5.497  18.869  0.00  0.00    +0.000 C 
ENDBRANCH   7   8
BRANCH   1  12
ATOM     12  O   UNL     1       4.837   3.876  17.446  0.00  0.00    +0.000 OA
BRANCH  12  13
ATOM     13  C   UNL     1       3.400   3.812  17.384  0.00  0.00    +0.000 C 
BRANCH  13  14
ATOM     14  C   UNL     1       2.974   2.355  17.654  0.00  0.00    +0.000 C 
BRANCH  14  15
ATOM     15  O   UNL     1       1.569   2.223  17.931  0.00  0.00    +0.000 OA
BRANCH  15  16
ATOM     16  C   UNL     1       1.305   2.212  19.356  0.00  0.00    +0.000 C 
BRANCH  16  17
ATOM     17  C   UNL     1       0.688   3.563  19.801  0.00  0.00    +0.000 C 
BRANCH  17  19
ATOM     18  C   UNL     1       2.235   3.376  21.650  0.00  0.00    +0.000 C 
ATOM     19  N   UNL     1       1.382   4.302  20.884  0.00  0.00    +0.000 NA
ATOM     20  C   UNL     1       2.218   5.408  20.414  0.00  0.00    +0.000 C 
ENDBRANCH  17  19
ENDBRANCH  16  17
ENDBRANCH  15  16
ENDBRANCH  14  15
ENDBRANCH  13  14
ENDBRANCH  12  13
ENDBRANCH   1  12
TORSDOF 8
ENDMDL
MODEL 8
REMARK VINA RESULT:      -5.7      3.750      6.162
REMARK  Name = 
REMARK  13 active torsions:
REMARK  status: ('A' for Active; 'I' for Inactive)
REMARK    1  A    between atoms: C_1  and  N_2
REMARK    2  A    between atoms: N_2  and  C_3
REMARK    3  A    between atoms: N_2  and  C_4
REMARK    4  A    between atoms: C_4  and  C_5
REMARK    5  A    between atoms: C_5  and  O_6
REMARK    6  A    between atoms: O_6  and  C_7
REMARK    7  A    between atoms: C_7  and  C_8
REMARK    8  A    between atoms: C_8  and  O_9
REMARK    9  A    between atoms: O_9  and  C_10
REMARK   10  A    between atoms: C_16  and  C_17
REMARK   11  A    between atoms: C_17  and  C_18
REMARK   12  A    between atoms: C_17  and  C_19
REMARK   13  A    between atoms: C_17  and  C_20
REMARK                            x       y       z     vdW  Elec       q    Type
REMARK                         _______ _______ _______ _____ _____    ______ ____
ROOT
ATOM      1  C   UNL     1       4.073   6.109  17.358  0.00  0.00    +0.000 A 
ATOM      2  C   UNL     1       4.950   6.756  16.476  0.00  0.00    +0.000 A 
ATOM      3  C   UNL     1       5.686   6.040  15.528  0.00  0.00    +0.000 A 
ATOM      4  C   UNL     1       5.539   4.665  15.449  0.00  0.00    +0.000 A 
ATOM      5 CL   UNL     1       6.452   3.766  14.300  0.00  0.00    +0.000 Cl
ATOM      6  C   UNL     1       4.659   4.003  16.303  0.00  0.00    +0.000 A 
ATOM      7  C   UNL     1       3.899   4.696  17.278  0.00  0.00    +0.000 A 
ENDROOT
BRANCH   7   8
ATOM      8  C   UNL     1       2.944   3.901  18.210  0.00  0.00    +0.000 C 
ATOM      9  C   UNL     1       3.039   2.360  18.026  0.00  0.00    +0.000 C 
ATOM     10  C   UNL     1       3.281   4.174  19.691  0.00  0.00    +0.000 C 
ATOM     11  C   UNL     1       1.469   4.265  17.938  0.00  0.00    +0.000 C 
ENDBRANCH   7   8
BRANCH   1  12
ATOM     12  O   UNL     1       3.339   6.784  18.304  0.00  0.00    +0.000 OA
BRANCH  12  13
ATOM     13  C   UNL     1       2.685   8.019  17.959  0.00  0.00    +0.000 C 
BRANCH  13  14
ATOM     14  C   UNL     1       1.877   8.493  19.184  0.00  0.00    +0.000 C 
BRANCH  14  15
ATOM     15  O   UNL     1       1.809   7.504  20.227  0.00  0.00    +0.000 OA
BRANCH  15  16
ATOM     16  C   UNL     1       0.960   7.939  21.318  0.00  0.00    +0.000 C 
BRANCH  16  17
ATOM     17  C   UNL     1       1.460   9.294  21.882  0.00  0.00    +0.000 C 
BRANCH  17  19
ATOM     18  C   UNL     1      -0.302  10.717  21.034  0.00  0.00    +0.000 C 
ATOM     19  N   UNL     1       0.431  10.300  22.243  0.00  0.00    +0.000 NA
ATOM     20  C   UNL     1      -0.545   9.831  23.228  0.00  0.00    +0.000 C 
ENDBRANCH  17  19
ENDBRANCH  16  17
ENDBRANCH  15  16
ENDBRANCH  14  15
ENDBRANCH  13  14
ENDBRANCH  12  13
ENDBRANCH   1  12
TORSDOF 8
ENDMDL
MODEL 9
REMARK VINA RESULT:      -5.7      3.907      6.227
REMARK  Name = 
REMARK  13 active torsions:
REMARK  status: ('A' for Active; 'I' for Inactive)
REMARK    1  A    between atoms: C_1  and  N_2
REMARK    2  A    between atoms: N_2  and  C_3
REMARK    3  A    between atoms: N_2  and  C_4
REMARK    4  A    between atoms: C_4  and  C_5
REMARK    5  A    between atoms: C_5  and  O_6
REMARK    6  A    between atoms: O_6  and  C_7
REMARK    7  A    between atoms: C_7  and  C_8
REMARK    8  A    between atoms: C_8  and  O_9
REMARK    9  A    between atoms: O_9  and  C_10
REMARK   10  A    between atoms: C_16  and  C_17
REMARK   11  A    between atoms: C_17  and  C_18
REMARK   12  A    between atoms: C_17  and  C_19
REMARK   13  A    between atoms: C_17  and  C_20
REMARK                            x       y       z     vdW  Elec       q    Type
REMARK                         _______ _______ _______ _____ _____    ______ ____
ROOT
ATOM      1  C   UNL     1       3.782   6.169  17.536  0.00  0.00    +0.000 A 
ATOM      2  C   UNL     1       4.624   6.848  16.644  0.00  0.00    +0.000 A 
ATOM      3  C   UNL     1       5.451   6.156  15.756  0.00  0.00    +0.000 A 
ATOM      4  C   UNL     1       5.432   4.771  15.746  0.00  0.00    +0.000 A 
ATOM      5 CL   UNL     1       6.458   3.904  14.671  0.00  0.00    +0.000 Cl
ATOM      6  C   UNL     1       4.590   4.075  16.610  0.00  0.00    +0.000 A 
ATOM      7  C   UNL     1       3.739   4.743  17.527  0.00  0.00    +0.000 A 
ENDROOT
BRANCH   7   8
ATOM      8  C   UNL     1       2.831   3.912  18.473  0.00  0.00    +0.000 C 
ATOM      9  C   UNL     1       2.917   4.356  19.961  0.00  0.00    +0.000 C 
ATOM     10  C   UNL     1       1.348   4.061  18.070  0.00  0.00    +0.000 C 
ATOM     11  C   UNL     1       3.226   2.420  18.458  0.00  0.00    +0.000 C 
ENDBRANCH   7   8
BRANCH   1  12
ATOM     12  O   UNL     1       2.961   6.820  18.424  0.00  0.00    +0.000 OA
BRANCH  12  13
ATOM     13  C   UNL     1       2.359   8.076  18.059  0.00  0.00    +0.000 C 
BRANCH  13  14
ATOM     14  C   UNL     1       1.611   8.625  19.291  0.00  0.00    +0.000 C 
BRANCH  14  15
ATOM     15  O   UNL     1       1.868   7.868  20.487  0.00  0.00    +0.000 OA
BRANCH  15  16
ATOM     16  C   UNL     1       1.176   8.428  21.630  0.00  0.00    +0.000 C 
BRANCH  16  17
ATOM     17  C   UNL     1       0.241   9.582  21.182  0.00  0.00    +0.000 C 
BRANCH  17  19
ATOM     18  C   UNL     1       0.435  11.989  21.070  0.00  0.00    +0.000 C 
ATOM     19  N   UNL     1       0.281  10.835  21.974  0.00  0.00    +0.000 NA
ATOM     20  C   UNL     1      -0.907  11.060  22.800  0.00  0.00    +0.000 C 
ENDBRANCH  17  19
ENDBRANCH  16  17
ENDBRANCH  15  16
ENDBRANCH  14  15
ENDBRANCH  13  14
ENDBRANCH  12  13
ENDBRANCH   1  12
TORSDOF 8
ENDMDL
