MODEL 1
REMARK VINA RESULT:      -7.5      0.000      0.000
REMARK  Name = 
REMARK  9 active torsions:
REMARK  status: ('A' for Active; 'I' for Inactive)
REMARK    1  A    between atoms: C_2  and  C_3
REMARK    2  A    between atoms: C_3  and  C_4
REMARK    3  A    between atoms: N_6  and  C_7
REMARK    4  A    between atoms: C_7  and  C_8
REMARK    5  A    between atoms: C_8  and  C_9
REMARK    6  A    between atoms: C_10  and  C_11
REMARK    7  A    between atoms: C_11  and  N_12
REMARK    8  A    between atoms: C_25  and  O_26
REMARK    9  A    between atoms: O_26  and  C_27
REMARK                            x       y       z     vdW  Elec       q    Type
REMARK                         _______ _______ _______ _____ _____    ______ ____
ROOT
ATOM      1  C   UNL     1       5.956   3.747  15.920  0.00  0.00    +0.000 A 
ATOM      2  C   UNL     1       7.058   4.510  16.307  0.00  0.00    +0.000 A 
ATOM      3  N   UNL     1       7.716   4.901  15.164  0.00  0.00    +0.000 N 
ATOM      4  C   UNL     1       7.022   4.519  14.044  0.00  0.00    +0.000 A 
ATOM      5  C   UNL     1       7.283   4.757  12.688  0.00  0.00    +0.000 A 
ATOM      6  C   UNL     1       6.395   4.241  11.731  0.00  0.00    +0.000 A 
ATOM      7  C   UNL     1       5.287   3.503  12.122  0.00  0.00    +0.000 A 
ATOM      8  C   UNL     1       5.057   3.273  13.481  0.00  0.00    +0.000 A 
ATOM      9  C   UNL     1       5.918   3.786  14.477  0.00  0.00    +0.000 A 
ATOM     10  H   UNL     1       8.570   5.443  15.169  0.00  0.00    +0.000 HD
ENDROOT
BRANCH   7  11
ATOM     11  O   UNL     1       4.338   2.944  11.312  0.00  0.00    +0.000 OA
ATOM     12  C   UNL     1       3.503   3.824  10.579  0.00  0.00    +0.000 C 
ENDBRANCH   7  11
BRANCH   1  13
ATOM     13  C   UNL     1       5.014   3.043  16.873  0.00  0.00    +0.000 C 
BRANCH  13  14
ATOM     14  C   UNL     1       3.561   3.516  16.823  0.00  0.00    +0.000 C 
BRANCH  14  17
ATOM     15  C   UNL     1       1.408   3.414  18.001  0.00  0.00    +0.000 C 
ATOM     16  O   UNL     1       0.845   4.140  17.187  0.00  0.00    +0.000 OA
ATOM     17  N   UNL     1       2.716   2.989  17.875  0.00  0.00    +0.000 N 
ATOM     18  H   UNL     1       3.173   2.649  18.711  0.00  0.00    +0.000 HD
BRANCH  15  19
ATOM     19  C   UNL     1       0.721   2.919  19.266  0.00  0.00    +0.000 C 
BRANCH  19  21
ATOM     20  C   UNL     1       1.749   2.911  21.559  0.00  0.00    +0.000 C 
ATOM     21  C   UNL     1       1.735   2.493  20.286  0.00  0.00    +0.000 C 
ENDBRANCH  19  21
ENDBRANCH  15  19
ENDBRANCH  14  17
ENDBRANCH  13  14
ENDBRANCH   1  13
BRANCH   2  22
ATOM     22  C   UNL     1       7.576   4.873  17.670  0.00  0.00    +0.000 C 
BRANCH  22  23
ATOM     23  N   UNL     1       6.833   5.979  18.295  0.00  0.00    +0.000 NA
ATOM     24  C   UNL     1       5.957   6.692  17.325  0.00  0.00    +0.000 C 
ATOM     25  C   UNL     1       4.592   6.726  17.927  0.00  0.00    +0.000 A 
ATOM     26  C   UNL     1       3.443   7.335  17.448  0.00  0.00    +0.000 A 
ATOM     27  C   UNL     1       2.264   7.202  18.185  0.00  0.00    +0.000 A 
ATOM     28  C   UNL     1       2.252   6.466  19.380  0.00  0.00    +0.000 A 
ATOM     29  C   UNL     1       3.421   5.862  19.854  0.00  0.00    +0.000 A 
ATOM     30  C   UNL     1       4.585   6.008  19.115  0.00  0.00    +0.000 A 
ATOM     31  C   UNL     1       5.951   5.466  19.384  0.00  0.00    +0.000 C 
ENDBRANCH  22  23
ENDBRANCH   2  22
TORSDOF 8
ENDMDL
MODEL 2
REMARK VINA RESULT:      -7.2      1.715      2.850
REMARK  Name = 
REMARK  9 active torsions:
REMARK  status: ('A' for Active; 'I' for Inactive)
REMARK    1  A    between atoms: C_2  and  C_3
REMARK    2  A    between atoms: C_3  and  C_4
REMARK    3  A    between atoms: N_6  and  C_7
REMARK    4  A    between atoms: C_7  and  C_8
REMARK    5  A    between atoms: C_8  and  C_9
REMARK    6  A    between atoms: C_10  and  C_11
REMARK    7  A    between atoms: C_11  and  N_12
REMARK    8  A    between atoms: C_25  and  O_26
REMARK    9  A    between atoms: O_26  and  C_27
REMARK                            x       y       z     vdW  Elec       q    Type
REMARK                         _______ _______ _______ _____ _____    ______ ____
ROOT
ATOM      1  C   UNL     1       4.287   4.245  16.627  0.00  0.00    +0.000 A 
ATOM      2  C   UNL     1       4.747   5.065  17.657  0.00  0.00    +0.000 A 
ATOM      3  N   UNL     1       5.988   5.534  17.294  0.00  0.00    +0.000 N 
ATOM      4  C   UNL     1       6.305   5.144  16.017  0.00  0.00    +0.000 A 
ATOM      5  C   UNL     1       7.423   5.441  15.226  0.00  0.00    +0.000 A 
ATOM      6  C   UNL     1       7.496   4.899  13.934  0.00  0.00    +0.000 A 
ATOM      7  C   UNL     1       6.486   4.079  13.454  0.00  0.00    +0.000 A 
ATOM      8  C   UNL     1       5.387   3.791  14.268  0.00  0.00    +0.000 A 
ATOM      9  C   UNL     1       5.267   4.327  15.570  0.00  0.00    +0.000 A 
ATOM     10  H   UNL     1       6.555   6.130  17.883  0.00  0.00    +0.000 HD
ENDROOT
BRANCH   7  11
ATOM     11  O   UNL     1       6.416   3.485  12.225  0.00  0.00    +0.000 OA
ATOM     12  C   UNL     1       5.175   2.916  11.843  0.00  0.00    +0.000 C 
ENDBRANCH   7  11
BRANCH   1  13
ATOM     13  C   UNL     1       2.998   3.451  16.664  0.00  0.00    +0.000 C 
BRANCH  13  14
ATOM     14  C   UNL     1       2.974   2.294  17.663  0.00  0.00    +0.000 C 
BRANCH  14  17
ATOM     15  C   UNL     1       1.010   2.558  19.115  0.00  0.00    +0.000 C 
ATOM     16  O   UNL     1       0.234   2.123  18.269  0.00  0.00    +0.000 OA
ATOM     17  N   UNL     1       2.379   2.614  18.945  0.00  0.00    +0.000 N 
ATOM     18  H   UNL     1       2.894   3.238  19.553  0.00  0.00    +0.000 HD
BRANCH  15  19
ATOM     19  C   UNL     1       0.533   3.111  20.450  0.00  0.00    +0.000 C 
BRANCH  19  21
ATOM     20  C   UNL     1       2.458   3.422  22.035  0.00  0.00    +0.000 C 
ATOM     21  C   UNL     1       1.449   2.681  21.558  0.00  0.00    +0.000 C 
ENDBRANCH  19  21
ENDBRANCH  15  19
ENDBRANCH  14  17
ENDBRANCH  13  14
ENDBRANCH   1  13
BRANCH   2  22
ATOM     22  C   UNL     1       4.137   5.417  18.985  0.00  0.00    +0.000 C 
BRANCH  22  23
ATOM     23  N   UNL     1       2.767   5.943  18.870  0.00  0.00    +0.000 NA
ATOM     24  C   UNL     1       2.248   6.459  20.167  0.00  0.00    +0.000 C 
ATOM     25  C   UNL     1       1.758   7.845  19.909  0.00  0.00    +0.000 A 
ATOM     26  C   UNL     1       1.125   8.721  20.776  0.00  0.00    +0.000 A 
ATOM     27  C   UNL     1       0.782   9.991  20.306  0.00  0.00    +0.000 A 
ATOM     28  C   UNL     1       1.079  10.363  18.985  0.00  0.00    +0.000 A 
ATOM     29  C   UNL     1       1.713   9.466  18.120  0.00  0.00    +0.000 A 
ATOM     30  C   UNL     1       2.041   8.207  18.599  0.00  0.00    +0.000 A 
ATOM     31  C   UNL     1       2.721   7.076  17.900  0.00  0.00    +0.000 C 
ENDBRANCH  22  23
ENDBRANCH   2  22
TORSDOF 8
ENDMDL
MODEL 3
REMARK VINA RESULT:      -7.2      2.110      3.272
REMARK  Name = 
REMARK  9 active torsions:
REMARK  status: ('A' for Active; 'I' for Inactive)
REMARK    1  A    between atoms: C_2  and  C_3
REMARK    2  A    between atoms: C_3  and  C_4
REMARK    3  A    between atoms: N_6  and  C_7
REMARK    4  A    between atoms: C_7  and  C_8
REMARK    5  A    between atoms: C_8  and  C_9
REMARK    6  A    between atoms: C_10  and  C_11
REMARK    7  A    between atoms: C_11  and  N_12
REMARK    8  A    between atoms: C_25  and  O_26
REMARK    9  A    between atoms: O_26  and  C_27
REMARK                            x       y       z     vdW  Elec       q    Type
REMARK                         _______ _______ _______ _____ _____    ______ ____
ROOT
ATOM      1  C   UNL     1       4.154   4.398  16.882  0.00  0.00    +0.000 A 
ATOM      2  C   UNL     1       4.551   5.373  17.797  0.00  0.00    +0.000 A 
ATOM      3  N   UNL     1       5.749   5.890  17.361  0.00  0.00    +0.000 N 
ATOM      4  C   UNL     1       6.091   5.371  16.138  0.00  0.00    +0.000 A 
ATOM      5  C   UNL     1       7.178   5.656  15.301  0.00  0.00    +0.000 A 
ATOM      6  C   UNL     1       7.290   4.965  14.085  0.00  0.00    +0.000 A 
ATOM      7  C   UNL     1       6.347   4.015  13.724  0.00  0.00    +0.000 A 
ATOM      8  C   UNL     1       5.278   3.743  14.581  0.00  0.00    +0.000 A 
ATOM      9  C   UNL     1       5.120   4.425  15.809  0.00  0.00    +0.000 A 
ATOM     10  H   UNL     1       6.268   6.598  17.864  0.00  0.00    +0.000 HD
ENDROOT
BRANCH   7  11
ATOM     11  O   UNL     1       6.321   3.269  12.578  0.00  0.00    +0.000 OA
ATOM     12  C   UNL     1       5.101   3.223  11.856  0.00  0.00    +0.000 C 
ENDBRANCH   7  11
BRANCH   1  13
ATOM     13  C   UNL     1       2.934   3.515  17.034  0.00  0.00    +0.000 C 
BRANCH  13  14
ATOM     14  C   UNL     1       3.165   2.208  17.793  0.00  0.00    +0.000 C 
BRANCH  14  17
ATOM     15  C   UNL     1       3.548   2.376  20.213  0.00  0.00    +0.000 C 
ATOM     16  O   UNL     1       4.734   2.662  20.079  0.00  0.00    +0.000 OA
ATOM     17  N   UNL     1       2.676   2.205  19.156  0.00  0.00    +0.000 N 
ATOM     18  H   UNL     1       1.820   1.698  19.342  0.00  0.00    +0.000 HD
BRANCH  15  19
ATOM     19  C   UNL     1       2.912   2.151  21.577  0.00  0.00    +0.000 C 
BRANCH  19  21
ATOM     20  C   UNL     1       1.067   3.691  20.843  0.00  0.00    +0.000 C 
ATOM     21  C   UNL     1       1.506   2.675  21.598  0.00  0.00    +0.000 C 
ENDBRANCH  19  21
ENDBRANCH  15  19
ENDBRANCH  14  17
ENDBRANCH  13  14
ENDBRANCH   1  13
BRANCH   2  22
ATOM     22  C   UNL     1       3.920   5.838  19.079  0.00  0.00    +0.000 C 
BRANCH  22  23
ATOM     23  N   UNL     1       2.578   6.413  18.887  0.00  0.00    +0.000 NA
ATOM     24  C   UNL     1       2.026   6.992  20.143  0.00  0.00    +0.000 C 
ATOM     25  C   UNL     1       1.605   8.388  19.821  0.00  0.00    +0.000 A 
ATOM     26  C   UNL     1       0.972   9.316  20.632  0.00  0.00    +0.000 A 
ATOM     27  C   UNL     1       0.703  10.582  20.107  0.00  0.00    +0.000 A 
ATOM     28  C   UNL     1       1.070  10.899  18.790  0.00  0.00    +0.000 A 
ATOM     29  C   UNL     1       1.704   9.949  17.982  0.00  0.00    +0.000 A 
ATOM     30  C   UNL     1       1.959   8.694  18.514  0.00  0.00    +0.000 A 
ATOM     31  C   UNL     1       2.621   7.515  17.881  0.00  0.00    +0.000 C 
ENDBRANCH  22  23
ENDBRANCH   2  22
TORSDOF 8
ENDMDL
MODEL 4
REMARK VINA RESULT:      -7.2      1.774      6.212
REMARK  Name = 
REMARK  9 active torsions:
REMARK  status: ('A' for Active; 'I' for Inactive)
REMARK    1  A    between atoms: C_2  and  C_3
REMARK    2  A    between atoms: C_3  and  C_4
REMARK    3  A    between atoms: N_6  and  C_7
REMARK    4  A    between atoms: C_7  and  C_8
REMARK    5  A    between atoms: C_8  and  C_9
REMARK    6  A    between atoms: C_10  and  C_11
REMARK    7  A    between atoms: C_11  and  N_12
REMARK    8  A    between atoms: C_25  and  O_26
REMARK    9  A    between atoms: O_26  and  C_27
REMARK                            x       y       z     vdW  Elec       q    Type
REMARK                         _______ _______ _______ _____ _____    ______ ____
ROOT
ATOM      1  C   UNL     1       4.689   5.358  18.284  0.00  0.00    +0.000 A 
ATOM      2  C   UNL     1       5.277   5.830  17.111  0.00  0.00    +0.000 A 
ATOM      3  N   UNL     1       4.594   6.959  16.726  0.00  0.00    +0.000 N 
ATOM      4  C   UNL     1       3.656   7.308  17.665  0.00  0.00    +0.000 A 
ATOM      5  C   UNL     1       2.788   8.407  17.718  0.00  0.00    +0.000 A 
ATOM      6  C   UNL     1       1.914   8.521  18.810  0.00  0.00    +0.000 A 
ATOM      7  C   UNL     1       1.905   7.560  19.810  0.00  0.00    +0.000 A 
ATOM      8  C   UNL     1       2.774   6.469  19.727  0.00  0.00    +0.000 A 
ATOM      9  C   UNL     1       3.679   6.323  18.652  0.00  0.00    +0.000 A 
ATOM     10  H   UNL     1       4.805   7.481  15.885  0.00  0.00    +0.000 HD
ENDROOT
BRANCH   7  11
ATOM     11  O   UNL     1       1.118   7.538  20.929  0.00  0.00    +0.000 OA
ATOM     12  C   UNL     1       1.144   8.678  21.770  0.00  0.00    +0.000 C 
ENDBRANCH   7  11
BRANCH   1  13
ATOM     13  C   UNL     1       5.077   4.078  18.993  0.00  0.00    +0.000 C 
BRANCH  13  14
ATOM     14  C   UNL     1       4.483   2.799  18.403  0.00  0.00    +0.000 C 
BRANCH  14  17
ATOM     15  C   UNL     1       2.034   2.822  18.212  0.00  0.00    +0.000 C 
ATOM     16  O   UNL     1       2.053   3.333  17.096  0.00  0.00    +0.000 OA
ATOM     17  N   UNL     1       3.170   2.453  18.907  0.00  0.00    +0.000 N 
ATOM     18  H   UNL     1       3.076   2.318  19.905  0.00  0.00    +0.000 HD
BRANCH  15  19
ATOM     19  C   UNL     1       0.740   2.560  18.968  0.00  0.00    +0.000 C 
BRANCH  19  21
ATOM     20  C   UNL     1       1.279   2.905  21.398  0.00  0.00    +0.000 C 
ATOM     21  C   UNL     1       0.716   3.326  20.258  0.00  0.00    +0.000 C 
ENDBRANCH  19  21
ENDBRANCH  15  19
ENDBRANCH  14  17
ENDBRANCH  13  14
ENDBRANCH   1  13
BRANCH   2  22
ATOM     22  C   UNL     1       6.410   5.284  16.287  0.00  0.00    +0.000 C 
BRANCH  22  23
ATOM     23  N   UNL     1       6.211   5.462  14.840  0.00  0.00    +0.000 NA
ATOM     24  C   UNL     1       7.369   4.966  14.044  0.00  0.00    +0.000 C 
ATOM     25  C   UNL     1       6.814   4.034  13.019  0.00  0.00    +0.000 A 
ATOM     26  C   UNL     1       7.474   3.369  11.998  0.00  0.00    +0.000 A 
ATOM     27  C   UNL     1       6.734   2.518  11.173  0.00  0.00    +0.000 A 
ATOM     28  C   UNL     1       5.357   2.345  11.381  0.00  0.00    +0.000 A 
ATOM     29  C   UNL     1       4.704   3.028  12.412  0.00  0.00    +0.000 A 
ATOM     30  C   UNL     1       5.449   3.874  13.219  0.00  0.00    +0.000 A 
ATOM     31  C   UNL     1       5.010   4.704  14.380  0.00  0.00    +0.000 C 
ENDBRANCH  22  23
ENDBRANCH   2  22
TORSDOF 8
ENDMDL
MODEL 5
REMARK VINA RESULT:      -7.1      3.420      6.686
REMARK  Name = 
REMARK  9 active torsions:
REMARK  status: ('A' for Active; 'I' for Inactive)
REMARK    1  A    between atoms: C_2  and  C_3
REMARK    2  A    between atoms: C_3  and  C_4
REMARK    3  A    between atoms: N_6  and  C_7
REMARK    4  A    between atoms: C_7  and  C_8
REMARK    5  A    between atoms: C_8  and  C_9
REMARK    6  A    between atoms: C_10  and  C_11
REMARK    7  A    between atoms: C_11  and  N_12
REMARK    8  A    between atoms: C_25  and  O_26
REMARK    9  A    between atoms: O_26  and  C_27
REMARK                            x       y       z     vdW  Elec       q    Type
REMARK                         _______ _______ _______ _____ _____    ______ ____
ROOT
ATOM      1  C   UNL     1       6.234   5.612  16.734  0.00  0.00    +0.000 A 
ATOM      2  C   UNL     1       6.481   6.896  17.219  0.00  0.00    +0.000 A 
ATOM      3  N   UNL     1       5.309   7.372  17.756  0.00  0.00    +0.000 N 
ATOM      4  C   UNL     1       4.335   6.405  17.744  0.00  0.00    +0.000 A 
ATOM      5  C   UNL     1       3.025   6.427  18.240  0.00  0.00    +0.000 A 
ATOM      6  C   UNL     1       2.229   5.281  18.090  0.00  0.00    +0.000 A 
ATOM      7  C   UNL     1       2.729   4.154  17.455  0.00  0.00    +0.000 A 
ATOM      8  C   UNL     1       4.035   4.163  16.960  0.00  0.00    +0.000 A 
ATOM      9  C   UNL     1       4.875   5.291  17.102  0.00  0.00    +0.000 A 
ATOM     10  H   UNL     1       5.211   8.298  18.152  0.00  0.00    +0.000 HD
ENDROOT
BRANCH   7  11
ATOM     11  O   UNL     1       2.079   2.970  17.238  0.00  0.00    +0.000 OA
ATOM     12  C   UNL     1       2.074   2.025  18.294  0.00  0.00    +0.000 C 
ENDBRANCH   7  11
BRANCH   1  13
ATOM     13  C   UNL     1       7.235   4.764  15.979  0.00  0.00    +0.000 C 
BRANCH  13  14
ATOM     14  C   UNL     1       7.180   4.890  14.456  0.00  0.00    +0.000 C 
BRANCH  14  17
ATOM     15  C   UNL     1       6.539   3.652  12.433  0.00  0.00    +0.000 C 
ATOM     16  O   UNL     1       7.385   4.206  11.738  0.00  0.00    +0.000 OA
ATOM     17  N   UNL     1       6.404   3.862  13.792  0.00  0.00    +0.000 N 
ATOM     18  H   UNL     1       5.523   3.599  14.214  0.00  0.00    +0.000 HD
BRANCH  15  19
ATOM     19  C   UNL     1       5.518   2.680  11.859  0.00  0.00    +0.000 C 
BRANCH  19  21
ATOM     20  C   UNL     1       3.438   3.180  10.542  0.00  0.00    +0.000 C 
ATOM     21  C   UNL     1       4.207   3.369  11.621  0.00  0.00    +0.000 C 
ENDBRANCH  19  21
ENDBRANCH  15  19
ENDBRANCH  14  17
ENDBRANCH  13  14
ENDBRANCH   1  13
BRANCH   2  22
ATOM     22  C   UNL     1       7.725   7.740  17.185  0.00  0.00    +0.000 C 
BRANCH  22  23
ATOM     23  N   UNL     1       7.680   8.873  18.123  0.00  0.00    +0.000 NA
ATOM     24  C   UNL     1       8.905   8.958  18.966  0.00  0.00    +0.000 C 
ATOM     25  C   UNL     1       9.421  10.352  18.830  0.00  0.00    +0.000 A 
ATOM     26  C   UNL     1      10.496  10.949  19.468  0.00  0.00    +0.000 A 
ATOM     27  C   UNL     1      10.804  12.275  19.151  0.00  0.00    +0.000 A 
ATOM     28  C   UNL     1      10.039  12.976  18.206  0.00  0.00    +0.000 A 
ATOM     29  C   UNL     1       8.954  12.361  17.574  0.00  0.00    +0.000 A 
ATOM     30  C   UNL     1       8.655  11.048  17.904  0.00  0.00    +0.000 A 
ATOM     31  C   UNL     1       7.572  10.163  17.380  0.00  0.00    +0.000 C 
ENDBRANCH  22  23
ENDBRANCH   2  22
TORSDOF 8
ENDMDL
MODEL 6
REMARK VINA RESULT:      -7.1      4.074      7.460
REMARK  Name = 
REMARK  9 active torsions:
REMARK  status: ('A' for Active; 'I' for Inactive)
REMARK    1  A    between atoms: C_2  and  C_3
REMARK    2  A    between atoms: C_3  and  C_4
REMARK    3  A    between atoms: N_6  and  C_7
REMARK    4  A    between atoms: C_7  and  C_8
REMARK    5  A    between atoms: C_8  and  C_9
REMARK    6  A    between atoms: C_10  and  C_11
REMARK    7  A    between atoms: C_11  and  N_12
REMARK    8  A    between atoms: C_25  and  O_26
REMARK    9  A    between atoms: O_26  and  C_27
REMARK                            x       y       z     vdW  Elec       q    Type
REMARK                         _______ _______ _______ _____ _____    ______ ____
ROOT
ATOM      1  C   UNL     1       2.748   6.444  18.972  0.00  0.00    +0.000 A 
ATOM      2  C   UNL     1       2.081   7.211  19.927  0.00  0.00    +0.000 A 
ATOM      3  N   UNL     1       1.684   6.367  20.937  0.00  0.00    +0.000 N 
ATOM      4  C   UNL     1       2.166   5.099  20.734  0.00  0.00    +0.000 A 
ATOM      5  C   UNL     1       2.065   3.949  21.528  0.00  0.00    +0.000 A 
ATOM      6  C   UNL     1       2.659   2.762  21.073  0.00  0.00    +0.000 A 
ATOM      7  C   UNL     1       3.325   2.727  19.857  0.00  0.00    +0.000 A 
ATOM      8  C   UNL     1       3.403   3.886  19.080  0.00  0.00    +0.000 A 
ATOM      9  C   UNL     1       2.830   5.105  19.507  0.00  0.00    +0.000 A 
ATOM     10  H   UNL     1       1.153   6.670  21.743  0.00  0.00    +0.000 HD
ENDROOT
BRANCH   7  11
ATOM     11  O   UNL     1       3.953   1.654  19.287  0.00  0.00    +0.000 OA
ATOM     12  C   UNL     1       3.742   1.434  17.903  0.00  0.00    +0.000 C 
ENDBRANCH   7  11
BRANCH   1  13
ATOM     13  C   UNL     1       3.267   6.968  17.650  0.00  0.00    +0.000 C 
BRANCH  13  14
ATOM     14  C   UNL     1       4.789   6.992  17.510  0.00  0.00    +0.000 C 
BRANCH  14  17
ATOM     15  C   UNL     1       6.669   5.773  16.501  0.00  0.00    +0.000 C 
ATOM     16  O   UNL     1       7.448   6.711  16.642  0.00  0.00    +0.000 OA
ATOM     17  N   UNL     1       5.365   5.782  16.958  0.00  0.00    +0.000 N 
ATOM     18  H   UNL     1       4.729   5.108  16.553  0.00  0.00    +0.000 HD
BRANCH  15  19
ATOM     19  C   UNL     1       7.055   4.493  15.775  0.00  0.00    +0.000 C 
BRANCH  19  21
ATOM     20  C   UNL     1       5.712   3.986  13.713  0.00  0.00    +0.000 C 
ATOM     21  C   UNL     1       6.741   4.599  14.312  0.00  0.00    +0.000 C 
ENDBRANCH  19  21
ENDBRANCH  15  19
ENDBRANCH  14  17
ENDBRANCH  13  14
ENDBRANCH   1  13
BRANCH   2  22
ATOM     22  C   UNL     1       1.743   8.676  19.955  0.00  0.00    +0.000 C 
BRANCH  22  23
ATOM     23  N   UNL     1       0.342   8.939  20.322  0.00  0.00    +0.000 NA
ATOM     24  C   UNL     1       0.177   9.191  21.780  0.00  0.00    +0.000 C 
ATOM     25  C   UNL     1      -0.567  10.478  21.909  0.00  0.00    +0.000 A 
ATOM     26  C   UNL     1      -1.025  11.109  23.055  0.00  0.00    +0.000 A 
ATOM     27  C   UNL     1      -1.679  12.336  22.922  0.00  0.00    +0.000 A 
ATOM     28  C   UNL     1      -1.861  12.911  21.654  0.00  0.00    +0.000 A 
ATOM     29  C   UNL     1      -1.397  12.260  20.506  0.00  0.00    +0.000 A 
ATOM     30  C   UNL     1      -0.757  11.039  20.654  0.00  0.00    +0.000 A 
ATOM     31  C   UNL     1      -0.165  10.149  19.610  0.00  0.00    +0.000 C 
ENDBRANCH  22  23
ENDBRANCH   2  22
TORSDOF 8
ENDMDL
MODEL 7
REMARK VINA RESULT:      -7.1      2.670      6.436
REMARK  Name = 
REMARK  9 active torsions:
REMARK  status: ('A' for Active; 'I' for Inactive)
REMARK    1  A    between atoms: C_2  and  C_3
REMARK    2  A    between atoms: C_3  and  C_4
REMARK    3  A    between atoms: N_6  and  C_7
REMARK    4  A    between atoms: C_7  and  C_8
REMARK    5  A    between atoms: C_8  and  C_9
REMARK    6  A    between atoms: C_10  and  C_11
REMARK    7  A    between atoms: C_11  and  N_12
REMARK    8  A    between atoms: C_25  and  O_26
REMARK    9  A    between atoms: O_26  and  C_27
REMARK                            x       y       z     vdW  Elec       q    Type
REMARK                         _______ _______ _______ _____ _____    ______ ____
ROOT
ATOM      1  C   UNL     1       6.113   5.131  16.350  0.00  0.00    +0.000 A 
ATOM      2  C   UNL     1       5.792   3.992  17.088  0.00  0.00    +0.000 A 
ATOM      3  N   UNL     1       6.418   4.095  18.308  0.00  0.00    +0.000 N 
ATOM      4  C   UNL     1       7.042   5.311  18.437  0.00  0.00    +0.000 A 
ATOM      5  C   UNL     1       7.738   5.865  19.520  0.00  0.00    +0.000 A 
ATOM      6  C   UNL     1       8.287   7.149  19.380  0.00  0.00    +0.000 A 
ATOM      7  C   UNL     1       8.151   7.849  18.191  0.00  0.00    +0.000 A 
ATOM      8  C   UNL     1       7.460   7.268  17.123  0.00  0.00    +0.000 A 
ATOM      9  C   UNL     1       6.880   5.984  17.227  0.00  0.00    +0.000 A 
ATOM     10  H   UNL     1       6.371   3.381  19.023  0.00  0.00    +0.000 HD
ENDROOT
BRANCH   7  11
ATOM     11  O   UNL     1       8.625   9.100  17.908  0.00  0.00    +0.000 OA
ATOM     12  C   UNL     1       9.096   9.881  18.992  0.00  0.00    +0.000 C 
ENDBRANCH   7  11
BRANCH   1  13
ATOM     13  C   UNL     1       5.704   5.374  14.913  0.00  0.00    +0.000 C 
BRANCH  13  14
ATOM     14  C   UNL     1       6.592   4.709  13.861  0.00  0.00    +0.000 C 
BRANCH  14  17
ATOM     15  C   UNL     1       6.294   3.164  11.974  0.00  0.00    +0.000 C 
ATOM     16  O   UNL     1       7.065   3.785  11.249  0.00  0.00    +0.000 OA
ATOM     17  N   UNL     1       6.049   3.491  13.294  0.00  0.00    +0.000 N 
ATOM     18  H   UNL     1       5.207   3.118  13.713  0.00  0.00    +0.000 HD
BRANCH  15  19
ATOM     19  C   UNL     1       5.496   1.966  11.481  0.00  0.00    +0.000 C 
BRANCH  19  21
ATOM     20  C   UNL     1       6.178  -0.447  11.312  0.00  0.00    +0.000 C 
ATOM     21  C   UNL     1       6.414   0.850  11.075  0.00  0.00    +0.000 C 
ENDBRANCH  19  21
ENDBRANCH  15  19
ENDBRANCH  14  17
ENDBRANCH  13  14
ENDBRANCH   1  13
BRANCH   2  22
ATOM     22  C   UNL     1       4.974   2.782  16.730  0.00  0.00    +0.000 C 
BRANCH  22  23
ATOM     23  N   UNL     1       3.557   2.911  17.107  0.00  0.00    +0.000 NA
ATOM     24  C   UNL     1       3.193   2.028  18.250  0.00  0.00    +0.000 C 
ATOM     25  C   UNL     1       2.534   2.897  19.268  0.00  0.00    +0.000 A 
ATOM     26  C   UNL     1       1.957   2.541  20.476  0.00  0.00    +0.000 A 
ATOM     27  C   UNL     1       1.422   3.550  21.281  0.00  0.00    +0.000 A 
ATOM     28  C   UNL     1       1.475   4.891  20.868  0.00  0.00    +0.000 A 
ATOM     29  C   UNL     1       2.056   5.235  19.644  0.00  0.00    +0.000 A 
ATOM     30  C   UNL     1       2.577   4.221  18.853  0.00  0.00    +0.000 A 
ATOM     31  C   UNL     1       3.251   4.311  17.524  0.00  0.00    +0.000 C 
ENDBRANCH  22  23
ENDBRANCH   2  22
TORSDOF 8
ENDMDL
MODEL 8
REMARK VINA RESULT:      -6.9      5.620      9.806
REMARK  Name = 
REMARK  9 active torsions:
REMARK  status: ('A' for Active; 'I' for Inactive)
REMARK    1  A    between atoms: C_2  and  C_3
REMARK    2  A    between atoms: C_3  and  C_4
REMARK    3  A    between atoms: N_6  and  C_7
REMARK    4  A    between atoms: C_7  and  C_8
REMARK    5  A    between atoms: C_8  and  C_9
REMARK    6  A    between atoms: C_10  and  C_11
REMARK    7  A    between atoms: C_11  and  N_12
REMARK    8  A    between atoms: C_25  and  O_26
REMARK    9  A    between atoms: O_26  and  C_27
REMARK                            x       y       z     vdW  Elec       q    Type
REMARK                         _______ _______ _______ _____ _____    ______ ____
ROOT
ATOM      1  C   UNL     1       0.703  10.758  19.443  0.00  0.00    +0.000 A 
ATOM      2  C   UNL     1       1.137   9.446  19.258  0.00  0.00    +0.000 A 
ATOM      3  N   UNL     1       0.921   8.766  20.434  0.00  0.00    +0.000 N 
ATOM      4  C   UNL     1       0.258   9.553  21.341  0.00  0.00    +0.000 A 
ATOM      5  C   UNL     1      -0.217   9.258  22.626  0.00  0.00    +0.000 A 
ATOM      6  C   UNL     1      -0.870  10.267  23.350  0.00  0.00    +0.000 A 
ATOM      7  C   UNL     1      -1.032  11.533  22.808  0.00  0.00    +0.000 A 
ATOM      8  C   UNL     1      -0.540  11.803  21.528  0.00  0.00    +0.000 A 
ATOM      9  C   UNL     1       0.111  10.812  20.759  0.00  0.00    +0.000 A 
ATOM     10  H   UNL     1       1.178   7.797  20.575  0.00  0.00    +0.000 HD
ENDROOT
BRANCH   7  11
ATOM     11  O   UNL     1      -1.645  12.609  23.387  0.00  0.00    +0.000 OA
ATOM     12  C   UNL     1      -1.101  13.891  23.124  0.00  0.00    +0.000 C 
ENDBRANCH   7  11
BRANCH   1  13
ATOM     13  C   UNL     1       0.845  11.868  18.423  0.00  0.00    +0.000 C 
BRANCH  13  14
ATOM     14  C   UNL     1      -0.432  12.659  18.137  0.00  0.00    +0.000 C 
BRANCH  14  17
ATOM     15  C   UNL     1      -2.589  11.530  17.810  0.00  0.00    +0.000 C 
ATOM     16  O   UNL     1      -2.977  11.784  18.947  0.00  0.00    +0.000 OA
ATOM     17  N   UNL     1      -1.389  11.975  17.291  0.00  0.00    +0.000 N 
ATOM     18  H   UNL     1      -1.029  11.489  16.480  0.00  0.00    +0.000 HD
BRANCH  15  19
ATOM     19  C   UNL     1      -3.390  10.664  16.849  0.00  0.00    +0.000 C 
BRANCH  19  21
ATOM     20  C   UNL     1      -3.365  10.156  14.388  0.00  0.00    +0.000 C 
ATOM     21  C   UNL     1      -2.878  10.816  15.447  0.00  0.00    +0.000 C 
ENDBRANCH  19  21
ENDBRANCH  15  19
ENDBRANCH  14  17
ENDBRANCH  13  14
ENDBRANCH   1  13
BRANCH   2  22
ATOM     22  C   UNL     1       1.782   8.777  18.076  0.00  0.00    +0.000 C 
BRANCH  22  23
ATOM     23  N   UNL     1       2.877   7.869  18.452  0.00  0.00    +0.000 NA
ATOM     24  C   UNL     1       2.431   6.451  18.543  0.00  0.00    +0.000 C 
ATOM     25  C   UNL     1       3.365   5.654  17.695  0.00  0.00    +0.000 A 
ATOM     26  C   UNL     1       3.414   4.283  17.505  0.00  0.00    +0.000 A 
ATOM     27  C   UNL     1       4.373   3.767  16.630  0.00  0.00    +0.000 A 
ATOM     28  C   UNL     1       5.261   4.625  15.962  0.00  0.00    +0.000 A 
ATOM     29  C   UNL     1       5.202   6.007  16.169  0.00  0.00    +0.000 A 
ATOM     30  C   UNL     1       4.249   6.504  17.045  0.00  0.00    +0.000 A 
ATOM     31  C   UNL     1       3.969   7.918  17.435  0.00  0.00    +0.000 C 
ENDBRANCH  22  23
ENDBRANCH   2  22
TORSDOF 8
ENDMDL
MODEL 9
REMARK VINA RESULT:      -6.8      4.189      7.628
REMARK  Name = 
REMARK  9 active torsions:
REMARK  status: ('A' for Active; 'I' for Inactive)
REMARK    1  A    between atoms: C_2  and  C_3
REMARK    2  A    between atoms: C_3  and  C_4
REMARK    3  A    between atoms: N_6  and  C_7
REMARK    4  A    between atoms: C_7  and  C_8
REMARK    5  A    between atoms: C_8  and  C_9
REMARK    6  A    between atoms: C_10  and  C_11
REMARK    7  A    between atoms: C_11  and  N_12
REMARK    8  A    between atoms: C_25  and  O_26
REMARK    9  A    between atoms: O_26  and  C_27
REMARK                            x       y       z     vdW  Elec       q    Type
REMARK                         _______ _______ _______ _____ _____    ______ ____
ROOT
ATOM      1  C   UNL     1       2.574   6.522  19.073  0.00  0.00    +0.000 A 
ATOM      2  C   UNL     1       2.015   7.243  20.128  0.00  0.00    +0.000 A 
ATOM      3  N   UNL     1       1.676   6.345  21.113  0.00  0.00    +0.000 N 
ATOM      4  C   UNL     1       2.095   5.080  20.788  0.00  0.00    +0.000 A 
ATOM      5  C   UNL     1       2.021   3.883  21.514  0.00  0.00    +0.000 A 
ATOM      6  C   UNL     1       2.535   2.713  20.934  0.00  0.00    +0.000 A 
ATOM      7  C   UNL     1       3.096   2.740  19.667  0.00  0.00    +0.000 A 
ATOM      8  C   UNL     1       3.148   3.945  18.961  0.00  0.00    +0.000 A 
ATOM      9  C   UNL     1       2.655   5.149  19.513  0.00  0.00    +0.000 A 
ATOM     10  H   UNL     1       1.223   6.609  21.978  0.00  0.00    +0.000 HD
ENDROOT
BRANCH   7  11
ATOM     11  O   UNL     1       3.637   1.690  18.978  0.00  0.00    +0.000 OA
ATOM     12  C   UNL     1       3.818   1.848  17.581  0.00  0.00    +0.000 C 
ENDBRANCH   7  11
BRANCH   1  13
ATOM     13  C   UNL     1       2.999   7.118  17.748  0.00  0.00    +0.000 C 
BRANCH  13  14
ATOM     14  C   UNL     1       4.270   6.522  17.142  0.00  0.00    +0.000 C 
BRANCH  14  17
ATOM     15  C   UNL     1       6.721   6.571  17.294  0.00  0.00    +0.000 C 
ATOM     16  O   UNL     1       6.858   5.590  16.568  0.00  0.00    +0.000 OA
ATOM     17  N   UNL     1       5.500   7.150  17.578  0.00  0.00    +0.000 N 
ATOM     18  H   UNL     1       5.452   7.750  18.391  0.00  0.00    +0.000 HD
BRANCH  15  19
ATOM     19  C   UNL     1       7.897   7.244  17.986  0.00  0.00    +0.000 C 
BRANCH  19  21
ATOM     20  C   UNL     1       8.689   9.602  18.341  0.00  0.00    +0.000 C 
ATOM     21  C   UNL     1       7.886   8.722  17.729  0.00  0.00    +0.000 C 
ENDBRANCH  19  21
ENDBRANCH  15  19
ENDBRANCH  14  17
ENDBRANCH  13  14
ENDBRANCH   1  13
BRANCH   2  22
ATOM     22  C   UNL     1       1.731   8.712  20.279  0.00  0.00    +0.000 C 
BRANCH  22  23
ATOM     23  N   UNL     1       0.316   9.001  20.563  0.00  0.00    +0.000 NA
ATOM     24  C   UNL     1       0.095   9.404  21.979  0.00  0.00    +0.000 C 
ATOM     25  C   UNL     1      -0.659  10.692  21.944  0.00  0.00    +0.000 A 
ATOM     26  C   UNL     1      -1.163  11.436  22.998  0.00  0.00    +0.000 A 
ATOM     27  C   UNL     1      -1.816  12.637  22.711  0.00  0.00    +0.000 A 
ATOM     28  C   UNL     1      -1.953  13.073  21.384  0.00  0.00    +0.000 A 
ATOM     29  C   UNL     1      -1.444  12.308  20.330  0.00  0.00    +0.000 A 
ATOM     30  C   UNL     1      -0.804  11.115  20.629  0.00  0.00    +0.000 A 
ATOM     31  C   UNL     1      -0.170  10.124  19.709  0.00  0.00    +0.000 C 
ENDBRANCH  22  23
ENDBRANCH   2  22
TORSDOF 8
ENDMDL
