MODEL 1
REMARK VINA RESULT:      -8.3      0.000      0.000
REMARK  Name = 
REMARK  7 active torsions:
REMARK  status: ('A' for Active; 'I' for Inactive)
REMARK    1  A    between atoms: C_2  and  C_3
REMARK    2  A    between atoms: C_2  and  C_23
REMARK    3  A    between atoms: C_3  and  O_4
REMARK    4  A    between atoms: O_4  and  C_5
REMARK    5  A    between atoms: C_5  and  C_7
REMARK    6  A    between atoms: C_12  and  S_13
REMARK    7  A    between atoms: S_13  and  N_16
REMARK                            x       y       z     vdW  Elec       q    Type
REMARK                         _______ _______ _______ _____ _____    ______ ____
ROOT
ATOM      1  C   UNL     1       2.200   7.548  19.067  0.00  0.00    +0.000 A 
ATOM      2  C   UNL     1       1.694   7.140  20.309  0.00  0.00    +0.000 A 
ATOM      3  C   UNL     1       1.940   5.853  20.768  0.00  0.00    +0.000 A 
ATOM      4  C   UNL     1       2.726   4.994  20.010  0.00  0.00    +0.000 A 
ATOM      5  F   UNL     1       2.878   3.741  20.456  0.00  0.00    +0.000 F 
ATOM      6  C   UNL     1       3.355   5.438  18.856  0.00  0.00    +0.000 A 
ATOM      7  C   UNL     1       3.056   6.708  18.338  0.00  0.00    +0.000 A 
ENDROOT
BRANCH   6   8
ATOM      8  S   UNL     1       4.462   4.329  18.020  0.00  0.00    +0.000 S 
ATOM      9  O   UNL     1       5.587   4.110  18.903  0.00  0.00    +0.000 OA
ATOM     10  O   UNL     1       3.656   3.211  17.569  0.00  0.00    +0.000 OA
BRANCH   8  11
ATOM     11  N   UNL     1       5.015   5.122  16.635  0.00  0.00    +0.000 NA
ATOM     12  C   UNL     1       5.381   4.389  15.396  0.00  0.00    +0.000 C 
ATOM     13  C   UNL     1       6.908   4.239  15.250  0.00  0.00    +0.000 C 
ATOM     14  O   UNL     1       7.636   5.453  15.488  0.00  0.00    +0.000 OA
ATOM     15  C   UNL     1       7.264   6.100  16.713  0.00  0.00    +0.000 C 
ATOM     16  C   UNL     1       5.768   6.390  16.739  0.00  0.00    +0.000 C 
ENDBRANCH   8  11
ENDBRANCH   6   8
BRANCH   1  17
ATOM     17  C   UNL     1       1.703   8.851  18.566  0.00  0.00    +0.000 C 
ATOM     18  O   UNL     1       2.044   9.337  17.498  0.00  0.00    +0.000 OA
BRANCH  17  19
ATOM     19  O   UNL     1       1.023   9.489  19.550  0.00  0.00    +0.000 OA
BRANCH  19  20
ATOM     20  C   UNL     1       0.619  10.814  19.182  0.00  0.00    +0.000 C 
BRANCH  20  22
ATOM     21  O   UNL     1      -1.220  11.247  20.701  0.00  0.00    +0.000 OA
ATOM     22  C   UNL     1      -0.854  11.031  19.549  0.00  0.00    +0.000 C 
BRANCH  22  23
ATOM     23  C   UNL     1      -1.880  10.919  18.470  0.00  0.00    +0.000 A 
ATOM     24  C   UNL     1      -3.098  11.606  18.524  0.00  0.00    +0.000 A 
ATOM     25  C   UNL     1      -4.027  11.468  17.489  0.00  0.00    +0.000 A 
ATOM     26  C   UNL     1      -3.745  10.649  16.397  0.00  0.00    +0.000 A 
ATOM     27  C   UNL     1      -2.538   9.955  16.339  0.00  0.00    +0.000 A 
ATOM     28  C   UNL     1      -1.609  10.084  17.375  0.00  0.00    +0.000 A 
ENDBRANCH  22  23
ENDBRANCH  20  22
ENDBRANCH  19  20
ENDBRANCH  17  19
ENDBRANCH   1  17
TORSDOF 7
ENDMDL
MODEL 2
REMARK VINA RESULT:      -8.3      4.763      8.801
REMARK  Name = 
REMARK  7 active torsions:
REMARK  status: ('A' for Active; 'I' for Inactive)
REMARK    1  A    between atoms: C_2  and  C_3
REMARK    2  A    between atoms: C_2  and  C_23
REMARK    3  A    between atoms: C_3  and  O_4
REMARK    4  A    between atoms: O_4  and  C_5
REMARK    5  A    between atoms: C_5  and  C_7
REMARK    6  A    between atoms: C_12  and  S_13
REMARK    7  A    between atoms: S_13  and  N_16
REMARK                            x       y       z     vdW  Elec       q    Type
REMARK                         _______ _______ _______ _____ _____    ______ ____
ROOT
ATOM      1  C   UNL     1       5.769   5.352  17.205  0.00  0.00    +0.000 A 
ATOM      2  C   UNL     1       5.547   6.730  17.347  0.00  0.00    +0.000 A 
ATOM      3  C   UNL     1       4.261   7.204  17.567  0.00  0.00    +0.000 A 
ATOM      4  C   UNL     1       3.210   6.304  17.690  0.00  0.00    +0.000 A 
ATOM      5  F   UNL     1       1.978   6.807  17.831  0.00  0.00    +0.000 F 
ATOM      6  C   UNL     1       3.444   4.936  17.703  0.00  0.00    +0.000 A 
ATOM      7  C   UNL     1       4.723   4.440  17.405  0.00  0.00    +0.000 A 
ENDROOT
BRANCH   6   8
ATOM      8  S   UNL     1       2.072   3.850  18.012  0.00  0.00    +0.000 S 
ATOM      9  O   UNL     1       1.055   4.166  17.035  0.00  0.00    +0.000 OA
ATOM     10  O   UNL     1       2.623   2.511  18.091  0.00  0.00    +0.000 OA
BRANCH   8  11
ATOM     11  N   UNL     1       1.475   4.223  19.547  0.00  0.00    +0.000 NA
ATOM     12  C   UNL     1       2.250   5.029  20.525  0.00  0.00    +0.000 C 
ATOM     13  C   UNL     1       2.910   4.144  21.601  0.00  0.00    +0.000 C 
ATOM     14  O   UNL     1       2.027   3.165  22.169  0.00  0.00    +0.000 OA
ATOM     15  C   UNL     1       1.329   2.396  21.179  0.00  0.00    +0.000 C 
ATOM     16  C   UNL     1       0.545   3.306  20.241  0.00  0.00    +0.000 C 
ENDBRANCH   8  11
ENDBRANCH   6   8
BRANCH   1  17
ATOM     17  C   UNL     1       7.127   4.963  16.756  0.00  0.00    +0.000 C 
ATOM     18  O   UNL     1       7.937   4.395  17.472  0.00  0.00    +0.000 OA
BRANCH  17  19
ATOM     19  O   UNL     1       7.387   5.523  15.549  0.00  0.00    +0.000 OA
BRANCH  19  20
ATOM     20  C   UNL     1       6.456   5.124  14.534  0.00  0.00    +0.000 C 
BRANCH  20  22
ATOM     21  O   UNL     1       8.092   5.581  12.806  0.00  0.00    +0.000 OA
ATOM     22  C   UNL     1       7.202   4.847  13.224  0.00  0.00    +0.000 C 
BRANCH  22  23
ATOM     23  C   UNL     1       6.787   3.669  12.405  0.00  0.00    +0.000 A 
ATOM     24  C   UNL     1       7.714   2.845  11.757  0.00  0.00    +0.000 A 
ATOM     25  C   UNL     1       7.276   1.755  11.002  0.00  0.00    +0.000 A 
ATOM     26  C   UNL     1       5.915   1.480  10.890  0.00  0.00    +0.000 A 
ATOM     27  C   UNL     1       4.983   2.299  11.525  0.00  0.00    +0.000 A 
ATOM     28  C   UNL     1       5.416   3.395  12.275  0.00  0.00    +0.000 A 
ENDBRANCH  22  23
ENDBRANCH  20  22
ENDBRANCH  19  20
ENDBRANCH  17  19
ENDBRANCH   1  17
TORSDOF 7
ENDMDL
MODEL 3
REMARK VINA RESULT:      -8.2      2.523      3.385
REMARK  Name = 
REMARK  7 active torsions:
REMARK  status: ('A' for Active; 'I' for Inactive)
REMARK    1  A    between atoms: C_2  and  C_3
REMARK    2  A    between atoms: C_2  and  C_23
REMARK    3  A    between atoms: C_3  and  O_4
REMARK    4  A    between atoms: O_4  and  C_5
REMARK    5  A    between atoms: C_5  and  C_7
REMARK    6  A    between atoms: C_12  and  S_13
REMARK    7  A    between atoms: S_13  and  N_16
REMARK                            x       y       z     vdW  Elec       q    Type
REMARK                         _______ _______ _______ _____ _____    ______ ____
ROOT
ATOM      1  C   UNL     1       1.239   9.176  19.983  0.00  0.00    +0.000 A 
ATOM      2  C   UNL     1       1.437   9.687  18.692  0.00  0.00    +0.000 A 
ATOM      3  C   UNL     1       2.193   8.971  17.773  0.00  0.00    +0.000 A 
ATOM      4  C   UNL     1       2.707   7.731  18.127  0.00  0.00    +0.000 A 
ATOM      5  F   UNL     1       3.488   7.108  17.235  0.00  0.00    +0.000 F 
ATOM      6  C   UNL     1       2.389   7.151  19.346  0.00  0.00    +0.000 A 
ATOM      7  C   UNL     1       1.693   7.891  20.315  0.00  0.00    +0.000 A 
ENDROOT
BRANCH   6   8
ATOM      8  S   UNL     1       2.961   5.500  19.669  0.00  0.00    +0.000 S 
ATOM      9  O   UNL     1       4.406   5.538  19.623  0.00  0.00    +0.000 OA
ATOM     10  O   UNL     1       2.277   5.059  20.870  0.00  0.00    +0.000 OA
BRANCH   8  11
ATOM     11  N   UNL     1       2.411   4.523  18.408  0.00  0.00    +0.000 NA
ATOM     12  C   UNL     1       1.209   3.660  18.540  0.00  0.00    +0.000 C 
ATOM     13  C   UNL     1       1.587   2.185  18.783  0.00  0.00    +0.000 C 
ATOM     14  O   UNL     1       2.606   1.695  17.898  0.00  0.00    +0.000 OA
ATOM     15  C   UNL     1       3.755   2.551  17.833  0.00  0.00    +0.000 C 
ATOM     16  C   UNL     1       3.354   3.962  17.417  0.00  0.00    +0.000 C 
ENDBRANCH   8  11
ENDBRANCH   6   8
BRANCH   1  17
ATOM     17  C   UNL     1       0.614  10.105  20.953  0.00  0.00    +0.000 C 
ATOM     18  O   UNL     1       1.203  10.569  21.918  0.00  0.00    +0.000 OA
BRANCH  17  19
ATOM     19  O   UNL     1      -0.722  10.166  20.732  0.00  0.00    +0.000 OA
BRANCH  19  20
ATOM     20  C   UNL     1      -1.239  11.502  20.796  0.00  0.00    +0.000 C 
BRANCH  20  22
ATOM     21  O   UNL     1      -0.665  13.104  19.070  0.00  0.00    +0.000 OA
ATOM     22  C   UNL     1      -1.302  12.103  19.386  0.00  0.00    +0.000 C 
BRANCH  22  23
ATOM     23  C   UNL     1      -2.215  11.476  18.386  0.00  0.00    +0.000 A 
ATOM     24  C   UNL     1      -3.592  11.727  18.370  0.00  0.00    +0.000 A 
ATOM     25  C   UNL     1      -4.406  11.116  17.414  0.00  0.00    +0.000 A 
ATOM     26  C   UNL     1      -3.852  10.255  16.468  0.00  0.00    +0.000 A 
ATOM     27  C   UNL     1      -2.483   9.992  16.481  0.00  0.00    +0.000 A 
ATOM     28  C   UNL     1      -1.667  10.595  17.440  0.00  0.00    +0.000 A 
ENDBRANCH  22  23
ENDBRANCH  20  22
ENDBRANCH  19  20
ENDBRANCH  17  19
ENDBRANCH   1  17
TORSDOF 7
ENDMDL
MODEL 4
REMARK VINA RESULT:      -8.2      5.452      8.261
REMARK  Name = 
REMARK  7 active torsions:
REMARK  status: ('A' for Active; 'I' for Inactive)
REMARK    1  A    between atoms: C_2  and  C_3
REMARK    2  A    between atoms: C_2  and  C_23
REMARK    3  A    between atoms: C_3  and  O_4
REMARK    4  A    between atoms: O_4  and  C_5
REMARK    5  A    between atoms: C_5  and  C_7
REMARK    6  A    between atoms: C_12  and  S_13
REMARK    7  A    between atoms: S_13  and  N_16
REMARK                            x       y       z     vdW  Elec       q    Type
REMARK                         _______ _______ _______ _____ _____    ______ ____
ROOT
ATOM      1  C   UNL     1       6.214   5.321  18.094  0.00  0.00    +0.000 A 
ATOM      2  C   UNL     1       6.417   4.719  16.843  0.00  0.00    +0.000 A 
ATOM      3  C   UNL     1       5.377   4.037  16.226  0.00  0.00    +0.000 A 
ATOM      4  C   UNL     1       4.129   3.996  16.833  0.00  0.00    +0.000 A 
ATOM      5  F   UNL     1       3.176   3.268  16.238  0.00  0.00    +0.000 F 
ATOM      6  C   UNL     1       3.879   4.714  17.993  0.00  0.00    +0.000 A 
ATOM      7  C   UNL     1       4.935   5.344  18.670  0.00  0.00    +0.000 A 
ENDROOT
BRANCH   6   8
ATOM      8  S   UNL     1       2.221   4.734  18.631  0.00  0.00    +0.000 S 
ATOM      9  O   UNL     1       2.155   5.802  19.603  0.00  0.00    +0.000 OA
ATOM     10  O   UNL     1       1.341   4.735  17.478  0.00  0.00    +0.000 OA
BRANCH   8  11
ATOM     11  N   UNL     1       1.974   3.267  19.431  0.00  0.00    +0.000 NA
ATOM     12  C   UNL     1       1.062   3.144  20.597  0.00  0.00    +0.000 C 
ATOM     13  C   UNL     1       1.837   3.108  21.928  0.00  0.00    +0.000 C 
ATOM     14  O   UNL     1       2.958   2.211  21.923  0.00  0.00    +0.000 OA
ATOM     15  C   UNL     1       3.821   2.396  20.792  0.00  0.00    +0.000 C 
ATOM     16  C   UNL     1       3.044   2.248  19.490  0.00  0.00    +0.000 C 
ENDBRANCH   8  11
ENDBRANCH   6   8
BRANCH   1  17
ATOM     17  C   UNL     1       7.431   5.829  18.769  0.00  0.00    +0.000 C 
ATOM     18  O   UNL     1       7.804   5.443  19.866  0.00  0.00    +0.000 OA
BRANCH  17  19
ATOM     19  O   UNL     1       7.908   6.908  18.100  0.00  0.00    +0.000 OA
BRANCH  19  20
ATOM     20  C   UNL     1       8.510   7.880  18.965  0.00  0.00    +0.000 C 
BRANCH  20  22
ATOM     21  O   UNL     1       7.675   9.510  17.377  0.00  0.00    +0.000 OA
ATOM     22  C   UNL     1       8.409   9.273  18.332  0.00  0.00    +0.000 C 
BRANCH  22  23
ATOM     23  C   UNL     1       9.278  10.362  18.868  0.00  0.00    +0.000 A 
ATOM     24  C   UNL     1       9.388  10.625  20.238  0.00  0.00    +0.000 A 
ATOM     25  C   UNL     1      10.215  11.655  20.691  0.00  0.00    +0.000 A 
ATOM     26  C   UNL     1      10.938  12.426  19.782  0.00  0.00    +0.000 A 
ATOM     27  C   UNL     1      10.830  12.177  18.416  0.00  0.00    +0.000 A 
ATOM     28  C   UNL     1       9.998  11.152  17.957  0.00  0.00    +0.000 A 
ENDBRANCH  22  23
ENDBRANCH  20  22
ENDBRANCH  19  20
ENDBRANCH  17  19
ENDBRANCH   1  17
TORSDOF 7
ENDMDL
MODEL 5
REMARK VINA RESULT:      -8.1      2.530      3.515
REMARK  Name = 
REMARK  7 active torsions:
REMARK  status: ('A' for Active; 'I' for Inactive)
REMARK    1  A    between atoms: C_2  and  C_3
REMARK    2  A    between atoms: C_2  and  C_23
REMARK    3  A    between atoms: C_3  and  O_4
REMARK    4  A    between atoms: O_4  and  C_5
REMARK    5  A    between atoms: C_5  and  C_7
REMARK    6  A    between atoms: C_12  and  S_13
REMARK    7  A    between atoms: S_13  and  N_16
REMARK                            x       y       z     vdW  Elec       q    Type
REMARK                         _______ _______ _______ _____ _____    ______ ____
ROOT
ATOM      1  C   UNL     1       1.130   9.146  20.126  0.00  0.00    +0.000 A 
ATOM      2  C   UNL     1       1.284   9.695  18.845  0.00  0.00    +0.000 A 
ATOM      3  C   UNL     1       2.048   9.030  17.894  0.00  0.00    +0.000 A 
ATOM      4  C   UNL     1       2.616   7.803  18.208  0.00  0.00    +0.000 A 
ATOM      5  F   UNL     1       3.402   7.232  17.288  0.00  0.00    +0.000 F 
ATOM      6  C   UNL     1       2.344   7.182  19.419  0.00  0.00    +0.000 A 
ATOM      7  C   UNL     1       1.640   7.872  20.419  0.00  0.00    +0.000 A 
ENDROOT
BRANCH   6   8
ATOM      8  S   UNL     1       2.985   5.548  19.692  0.00  0.00    +0.000 S 
ATOM      9  O   UNL     1       4.423   5.632  19.567  0.00  0.00    +0.000 OA
ATOM     10  O   UNL     1       2.382   5.074  20.922  0.00  0.00    +0.000 OA
BRANCH   8  11
ATOM     11  N   UNL     1       2.397   4.566  18.451  0.00  0.00    +0.000 NA
ATOM     12  C   UNL     1       1.239   3.655  18.642  0.00  0.00    +0.000 C 
ATOM     13  C   UNL     1       1.687   2.193  18.840  0.00  0.00    +0.000 C 
ATOM     14  O   UNL     1       2.668   1.754  17.889  0.00  0.00    +0.000 OA
ATOM     15  C   UNL     1       3.778   2.655  17.768  0.00  0.00    +0.000 C 
ATOM     16  C   UNL     1       3.299   4.054  17.398  0.00  0.00    +0.000 C 
ENDBRANCH   8  11
ENDBRANCH   6   8
BRANCH   1  17
ATOM     17  C   UNL     1       0.489  10.027  21.130  0.00  0.00    +0.000 C 
ATOM     18  O   UNL     1       0.946  10.220  22.247  0.00  0.00    +0.000 OA
BRANCH  17  19
ATOM     19  O   UNL     1      -0.749  10.381  20.704  0.00  0.00    +0.000 OA
BRANCH  19  20
ATOM     20  C   UNL     1      -0.840  11.763  20.337  0.00  0.00    +0.000 C 
BRANCH  20  22
ATOM     21  O   UNL     1      -3.053  12.716  20.602  0.00  0.00    +0.000 OA
ATOM     22  C   UNL     1      -2.271  12.091  19.892  0.00  0.00    +0.000 C 
BRANCH  22  23
ATOM     23  C   UNL     1      -2.738  11.578  18.570  0.00  0.00    +0.000 A 
ATOM     24  C   UNL     1      -1.868  10.984  17.649  0.00  0.00    +0.000 A 
ATOM     25  C   UNL     1      -2.354  10.520  16.424  0.00  0.00    +0.000 A 
ATOM     26  C   UNL     1      -3.706  10.644  16.113  0.00  0.00    +0.000 A 
ATOM     27  C   UNL     1      -4.579  11.242  17.020  0.00  0.00    +0.000 A 
ATOM     28  C   UNL     1      -4.097  11.714  18.243  0.00  0.00    +0.000 A 
ENDBRANCH  22  23
ENDBRANCH  20  22
ENDBRANCH  19  20
ENDBRANCH  17  19
ENDBRANCH   1  17
TORSDOF 7
ENDMDL
MODEL 6
REMARK VINA RESULT:      -8.0      1.026      1.427
REMARK  Name = 
REMARK  7 active torsions:
REMARK  status: ('A' for Active; 'I' for Inactive)
REMARK    1  A    between atoms: C_2  and  C_3
REMARK    2  A    between atoms: C_2  and  C_23
REMARK    3  A    between atoms: C_3  and  O_4
REMARK    4  A    between atoms: O_4  and  C_5
REMARK    5  A    between atoms: C_5  and  C_7
REMARK    6  A    between atoms: C_12  and  S_13
REMARK    7  A    between atoms: S_13  and  N_16
REMARK                            x       y       z     vdW  Elec       q    Type
REMARK                         _______ _______ _______ _____ _____    ______ ____
ROOT
ATOM      1  C   UNL     1       2.111   6.679  20.089  0.00  0.00    +0.000 A 
ATOM      2  C   UNL     1       1.397   5.776  20.890  0.00  0.00    +0.000 A 
ATOM      3  C   UNL     1       1.628   4.412  20.771  0.00  0.00    +0.000 A 
ATOM      4  C   UNL     1       2.600   3.957  19.889  0.00  0.00    +0.000 A 
ATOM      5  F   UNL     1       2.740   2.632  19.754  0.00  0.00    +0.000 F 
ATOM      6  C   UNL     1       3.414   4.848  19.206  0.00  0.00    +0.000 A 
ATOM      7  C   UNL     1       3.143   6.225  19.255  0.00  0.00    +0.000 A 
ENDROOT
BRANCH   6   8
ATOM      8  S   UNL     1       4.731   4.193  18.210  0.00  0.00    +0.000 S 
ATOM      9  O   UNL     1       5.864   3.995  19.086  0.00  0.00    +0.000 OA
ATOM     10  O   UNL     1       4.169   3.077  17.474  0.00  0.00    +0.000 OA
BRANCH   8  11
ATOM     11  N   UNL     1       5.134   5.374  17.072  0.00  0.00    +0.000 NA
ATOM     12  C   UNL     1       5.358   5.050  15.640  0.00  0.00    +0.000 C 
ATOM     13  C   UNL     1       6.859   4.990  15.295  0.00  0.00    +0.000 C 
ATOM     14  O   UNL     1       7.617   6.099  15.804  0.00  0.00    +0.000 OA
ATOM     15  C   UNL     1       7.384   6.345  17.198  0.00  0.00    +0.000 C 
ATOM     16  C   UNL     1       5.902   6.574  17.467  0.00  0.00    +0.000 C 
ENDBRANCH   8  11
ENDBRANCH   6   8
BRANCH   1  17
ATOM     17  C   UNL     1       1.641   8.084  20.127  0.00  0.00    +0.000 C 
ATOM     18  O   UNL     1       0.804   8.493  20.918  0.00  0.00    +0.000 OA
BRANCH  17  19
ATOM     19  O   UNL     1       2.102   8.750  19.040  0.00  0.00    +0.000 OA
BRANCH  19  20
ATOM     20  C   UNL     1       1.068   9.071  18.101  0.00  0.00    +0.000 C 
BRANCH  20  22
ATOM     21  O   UNL     1       1.107  11.343  18.945  0.00  0.00    +0.000 OA
ATOM     22  C   UNL     1       0.451  10.431  18.452  0.00  0.00    +0.000 C 
BRANCH  22  23
ATOM     23  C   UNL     1      -1.014  10.624  18.234  0.00  0.00    +0.000 A 
ATOM     24  C   UNL     1      -1.761  11.556  18.963  0.00  0.00    +0.000 A 
ATOM     25  C   UNL     1      -3.129  11.701  18.723  0.00  0.00    +0.000 A 
ATOM     26  C   UNL     1      -3.758  10.920  17.755  0.00  0.00    +0.000 A 
ATOM     27  C   UNL     1      -3.024   9.984  17.029  0.00  0.00    +0.000 A 
ATOM     28  C   UNL     1      -1.657   9.831  17.271  0.00  0.00    +0.000 A 
ENDBRANCH  22  23
ENDBRANCH  20  22
ENDBRANCH  19  20
ENDBRANCH  17  19
ENDBRANCH   1  17
TORSDOF 7
ENDMDL
MODEL 7
REMARK VINA RESULT:      -8.0      0.610      1.099
REMARK  Name = 
REMARK  7 active torsions:
REMARK  status: ('A' for Active; 'I' for Inactive)
REMARK    1  A    between atoms: C_2  and  C_3
REMARK    2  A    between atoms: C_2  and  C_23
REMARK    3  A    between atoms: C_3  and  O_4
REMARK    4  A    between atoms: O_4  and  C_5
REMARK    5  A    between atoms: C_5  and  C_7
REMARK    6  A    between atoms: C_12  and  S_13
REMARK    7  A    between atoms: S_13  and  N_16
REMARK                            x       y       z     vdW  Elec       q    Type
REMARK                         _______ _______ _______ _____ _____    ______ ____
ROOT
ATOM      1  C   UNL     1       2.133   7.332  19.472  0.00  0.00    +0.000 A 
ATOM      2  C   UNL     1       1.577   6.733  20.611  0.00  0.00    +0.000 A 
ATOM      3  C   UNL     1       1.880   5.413  20.916  0.00  0.00    +0.000 A 
ATOM      4  C   UNL     1       2.769   4.710  20.114  0.00  0.00    +0.000 A 
ATOM      5  F   UNL     1       2.978   3.420  20.403  0.00  0.00    +0.000 F 
ATOM      6  C   UNL     1       3.439   5.340  19.074  0.00  0.00    +0.000 A 
ATOM      7  C   UNL     1       3.088   6.648  18.705  0.00  0.00    +0.000 A 
ENDROOT
BRANCH   6   8
ATOM      8  S   UNL     1       4.671   4.420  18.185  0.00  0.00    +0.000 S 
ATOM      9  O   UNL     1       5.815   4.290  19.060  0.00  0.00    +0.000 OA
ATOM     10  O   UNL     1       4.004   3.240  17.669  0.00  0.00    +0.000 OA
BRANCH   8  11
ATOM     11  N   UNL     1       5.122   5.347  16.848  0.00  0.00    +0.000 NA
ATOM     12  C   UNL     1       5.408   4.741  15.523  0.00  0.00    +0.000 C 
ATOM     13  C   UNL     1       6.923   4.627  15.261  0.00  0.00    +0.000 C 
ATOM     14  O   UNL     1       7.656   5.823  15.565  0.00  0.00    +0.000 OA
ATOM     15  C   UNL     1       7.363   6.346  16.868  0.00  0.00    +0.000 C 
ATOM     16  C   UNL     1       5.870   6.611  17.021  0.00  0.00    +0.000 C 
ENDBRANCH   8  11
ENDBRANCH   6   8
BRANCH   1  17
ATOM     17  C   UNL     1       1.582   8.658  19.109  0.00  0.00    +0.000 C 
ATOM     18  O   UNL     1       1.678   9.146  17.992  0.00  0.00    +0.000 OA
BRANCH  17  19
ATOM     19  O   UNL     1       1.178   9.307  20.228  0.00  0.00    +0.000 OA
BRANCH  19  20
ATOM     20  C   UNL     1      -0.231   9.573  20.243  0.00  0.00    +0.000 C 
BRANCH  20  22
ATOM     21  O   UNL     1       0.079  11.884  19.583  0.00  0.00    +0.000 OA
ATOM     22  C   UNL     1      -0.532  10.832  19.422  0.00  0.00    +0.000 C 
BRANCH  22  23
ATOM     23  C   UNL     1      -1.648  10.785  18.431  0.00  0.00    +0.000 A 
ATOM     24  C   UNL     1      -1.617   9.946  17.311  0.00  0.00    +0.000 A 
ATOM     25  C   UNL     1      -2.687   9.938  16.412  0.00  0.00    +0.000 A 
ATOM     26  C   UNL     1      -3.790  10.761  16.626  0.00  0.00    +0.000 A 
ATOM     27  C   UNL     1      -3.826  11.605  17.734  0.00  0.00    +0.000 A 
ATOM     28  C   UNL     1      -2.756  11.623  18.632  0.00  0.00    +0.000 A 
ENDBRANCH  22  23
ENDBRANCH  20  22
ENDBRANCH  19  20
ENDBRANCH  17  19
ENDBRANCH   1  17
TORSDOF 7
ENDMDL
MODEL 8
REMARK VINA RESULT:      -8.0      5.198      8.575
REMARK  Name = 
REMARK  7 active torsions:
REMARK  status: ('A' for Active; 'I' for Inactive)
REMARK    1  A    between atoms: C_2  and  C_3
REMARK    2  A    between atoms: C_2  and  C_23
REMARK    3  A    between atoms: C_3  and  O_4
REMARK    4  A    between atoms: O_4  and  C_5
REMARK    5  A    between atoms: C_5  and  C_7
REMARK    6  A    between atoms: C_12  and  S_13
REMARK    7  A    between atoms: S_13  and  N_16
REMARK                            x       y       z     vdW  Elec       q    Type
REMARK                         _______ _______ _______ _____ _____    ______ ____
ROOT
ATOM      1  C   UNL     1       6.663   5.806  17.563  0.00  0.00    +0.000 A 
ATOM      2  C   UNL     1       6.848   5.877  16.175  0.00  0.00    +0.000 A 
ATOM      3  C   UNL     1       6.056   5.109  15.331  0.00  0.00    +0.000 A 
ATOM      4  C   UNL     1       5.056   4.311  15.869  0.00  0.00    +0.000 A 
ATOM      5  F   UNL     1       4.364   3.534  15.026  0.00  0.00    +0.000 F 
ATOM      6  C   UNL     1       4.767   4.349  17.226  0.00  0.00    +0.000 A 
ATOM      7  C   UNL     1       5.605   5.058  18.101  0.00  0.00    +0.000 A 
ENDROOT
BRANCH   6   8
ATOM      8  S   UNL     1       3.379   3.414  17.819  0.00  0.00    +0.000 S 
ATOM      9  O   UNL     1       2.219   3.868  17.086  0.00  0.00    +0.000 OA
ATOM     10  O   UNL     1       3.777   2.020  17.773  0.00  0.00    +0.000 OA
BRANCH   8  11
ATOM     11  N   UNL     1       3.169   3.806  19.448  0.00  0.00    +0.000 NA
ATOM     12  C   UNL     1       3.480   2.848  20.541  0.00  0.00    +0.000 C 
ATOM     13  C   UNL     1       2.205   2.190  21.104  0.00  0.00    +0.000 C 
ATOM     14  O   UNL     1       1.146   3.119  21.379  0.00  0.00    +0.000 OA
ATOM     15  C   UNL     1       0.868   3.997  20.280  0.00  0.00    +0.000 C 
ATOM     16  C   UNL     1       2.122   4.761  19.868  0.00  0.00    +0.000 C 
ENDBRANCH   8  11
ENDBRANCH   6   8
BRANCH   1  17
ATOM     17  C   UNL     1       7.693   6.484  18.385  0.00  0.00    +0.000 C 
ATOM     18  O   UNL     1       8.111   6.041  19.443  0.00  0.00    +0.000 OA
BRANCH  17  19
ATOM     19  O   UNL     1       7.912   7.733  17.903  0.00  0.00    +0.000 OA
BRANCH  19  20
ATOM     20  C   UNL     1       8.710   8.538  18.780  0.00  0.00    +0.000 C 
BRANCH  20  22
ATOM     21  O   UNL     1       7.824  10.432  17.554  0.00  0.00    +0.000 OA
ATOM     22  C   UNL     1       8.687   9.998  18.312  0.00  0.00    +0.000 C 
BRANCH  22  23
ATOM     23  C   UNL     1       9.789  10.904  18.754  0.00  0.00    +0.000 A 
ATOM     24  C   UNL     1      10.697  11.470  17.852  0.00  0.00    +0.000 A 
ATOM     25  C   UNL     1      11.711  12.312  18.314  0.00  0.00    +0.000 A 
ATOM     26  C   UNL     1      11.823  12.596  19.673  0.00  0.00    +0.000 A 
ATOM     27  C   UNL     1      10.928  12.031  20.580  0.00  0.00    +0.000 A 
ATOM     28  C   UNL     1       9.917  11.182  20.124  0.00  0.00    +0.000 A 
ENDBRANCH  22  23
ENDBRANCH  20  22
ENDBRANCH  19  20
ENDBRANCH  17  19
ENDBRANCH   1  17
TORSDOF 7
ENDMDL
MODEL 9
REMARK VINA RESULT:      -7.9      1.699      2.607
REMARK  Name = 
REMARK  7 active torsions:
REMARK  status: ('A' for Active; 'I' for Inactive)
REMARK    1  A    between atoms: C_2  and  C_3
REMARK    2  A    between atoms: C_2  and  C_23
REMARK    3  A    between atoms: C_3  and  O_4
REMARK    4  A    between atoms: O_4  and  C_5
REMARK    5  A    between atoms: C_5  and  C_7
REMARK    6  A    between atoms: C_12  and  S_13
REMARK    7  A    between atoms: S_13  and  N_16
REMARK                            x       y       z     vdW  Elec       q    Type
REMARK                         _______ _______ _______ _____ _____    ______ ____
ROOT
ATOM      1  C   UNL     1       2.141   7.718  19.128  0.00  0.00    +0.000 A 
ATOM      2  C   UNL     1       1.515   7.395  20.341  0.00  0.00    +0.000 A 
ATOM      3  C   UNL     1       1.648   6.117  20.869  0.00  0.00    +0.000 A 
ATOM      4  C   UNL     1       2.439   5.184  20.214  0.00  0.00    +0.000 A 
ATOM      5  F   UNL     1       2.482   3.945  20.720  0.00  0.00    +0.000 F 
ATOM      6  C   UNL     1       3.183   5.540  19.097  0.00  0.00    +0.000 A 
ATOM      7  C   UNL     1       3.000   6.800  18.506  0.00  0.00    +0.000 A 
ENDROOT
BRANCH   6   8
ATOM      8  S   UNL     1       4.286   4.335  18.400  0.00  0.00    +0.000 S 
ATOM      9  O   UNL     1       5.058   3.787  19.492  0.00  0.00    +0.000 OA
ATOM     10  O   UNL     1       3.471   3.468  17.571  0.00  0.00    +0.000 OA
BRANCH   8  11
ATOM     11  N   UNL     1       5.334   5.157  17.362  0.00  0.00    +0.000 NA
ATOM     12  C   UNL     1       5.370   4.893  15.900  0.00  0.00    +0.000 C 
ATOM     13  C   UNL     1       6.565   4.002  15.508  0.00  0.00    +0.000 C 
ATOM     14  O   UNL     1       7.810   4.412  16.094  0.00  0.00    +0.000 OA
ATOM     15  C   UNL     1       7.724   4.621  17.510  0.00  0.00    +0.000 C 
ATOM     16  C   UNL     1       6.645   5.645  17.840  0.00  0.00    +0.000 C 
ENDBRANCH   8  11
ENDBRANCH   6   8
BRANCH   1  17
ATOM     17  C   UNL     1       1.762   9.023  18.537  0.00  0.00    +0.000 C 
ATOM     18  O   UNL     1       2.154   9.407  17.446  0.00  0.00    +0.000 OA
BRANCH  17  19
ATOM     19  O   UNL     1       1.128   9.779  19.466  0.00  0.00    +0.000 OA
BRANCH  19  20
ATOM     20  C   UNL     1      -0.148  10.257  19.022  0.00  0.00    +0.000 C 
BRANCH  20  22
ATOM     21  O   UNL     1       0.043  12.673  19.054  0.00  0.00    +0.000 OA
ATOM     22  C   UNL     1      -0.404  11.661  19.585  0.00  0.00    +0.000 C 
BRANCH  22  23
ATOM     23  C   UNL     1      -1.178  11.787  20.855  0.00  0.00    +0.000 A 
ATOM     24  C   UNL     1      -0.774  11.164  22.041  0.00  0.00    +0.000 A 
ATOM     25  C   UNL     1      -1.532  11.312  23.205  0.00  0.00    +0.000 A 
ATOM     26  C   UNL     1      -2.693  12.082  23.192  0.00  0.00    +0.000 A 
ATOM     27  C   UNL     1      -3.108  12.701  22.014  0.00  0.00    +0.000 A 
ATOM     28  C   UNL     1      -2.357  12.549  20.846  0.00  0.00    +0.000 A 
ENDBRANCH  22  23
ENDBRANCH  20  22
ENDBRANCH  19  20
ENDBRANCH  17  19
ENDBRANCH   1  17
TORSDOF 7
ENDMDL
