MODEL 1
REMARK VINA RESULT:      -6.2      0.000      0.000
REMARK  Name = 
REMARK  3 active torsions:
REMARK  status: ('A' for Active; 'I' for Inactive)
REMARK    1  A    between atoms: C_1  and  N_2
REMARK    2  A    between atoms: C_6  and  C_7
REMARK    3  A    between atoms: C_13  and  C_14
REMARK                            x       y       z     vdW  Elec       q    Type
REMARK                         _______ _______ _______ _____ _____    ______ ____
ROOT
ATOM      1  C   UNL     1       3.823   4.402  17.785  0.00  0.00    +0.000 C 
ATOM      2  O   UNL     1       3.547   3.402  17.134  0.00  0.00    +0.000 OA
ATOM      3  N   UNL     1       4.853   5.269  17.499  0.00  0.00    +0.000 N 
ATOM      4  C   UNL     1       5.710   5.204  16.430  0.00  0.00    +0.000 A 
ATOM      5  N   UNL     1       6.800   5.935  16.361  0.00  0.00    +0.000 NA
ATOM      6  N   UNL     1       7.540   5.659  15.226  0.00  0.00    +0.000 NA
ATOM      7  C   UNL     1       6.940   4.769  14.463  0.00  0.00    +0.000 A 
ATOM      8  S   UNL     1       5.432   4.228  15.062  0.00  0.00    +0.000 S 
ATOM      9  H   UNL     1       5.127   5.960  18.182  0.00  0.00    +0.000 HD
ENDROOT
BRANCH   1  15
ATOM     10  C   UNL     1       3.629   2.675  20.347  0.00  0.00    +0.000 C 
ATOM     11  N   UNL     1       3.010   3.961  20.119  0.00  0.00    +0.000 N 
ATOM     12  N   UNL     1       2.260   4.497  21.103  0.00  0.00    +0.000 NA
ATOM     13  C   UNL     1       1.826   5.647  20.592  0.00  0.00    +0.000 A 
ATOM     14  C   UNL     1       2.302   5.857  19.288  0.00  0.00    +0.000 A 
ATOM     15  C   UNL     1       3.084   4.750  18.988  0.00  0.00    +0.000 A 
ENDBRANCH   1  15
BRANCH   7  16
ATOM     16  C   UNL     1       7.542   4.235  13.167  0.00  0.00    +0.000 C 
ATOM     17  C   UNL     1       6.631   3.639  12.112  0.00  0.00    +0.000 C 
ATOM     18  C   UNL     1       7.234   4.983  11.885  0.00  0.00    +0.000 C 
ENDBRANCH   7  16
TORSDOF 2
ENDMDL
MODEL 2
REMARK VINA RESULT:      -6.1      3.276      7.177
REMARK  Name = 
REMARK  3 active torsions:
REMARK  status: ('A' for Active; 'I' for Inactive)
REMARK    1  A    between atoms: C_1  and  N_2
REMARK    2  A    between atoms: C_6  and  C_7
REMARK    3  A    between atoms: C_13  and  C_14
REMARK                            x       y       z     vdW  Elec       q    Type
REMARK                         _______ _______ _______ _____ _____    ______ ____
ROOT
ATOM      1  C   UNL     1       4.230   5.781  17.696  0.00  0.00    +0.000 C 
ATOM      2  O   UNL     1       3.741   5.141  18.619  0.00  0.00    +0.000 OA
ATOM      3  N   UNL     1       3.856   7.055  17.336  0.00  0.00    +0.000 N 
ATOM      4  C   UNL     1       2.924   7.845  17.958  0.00  0.00    +0.000 A 
ATOM      5  N   UNL     1       2.467   8.951  17.413  0.00  0.00    +0.000 NA
ATOM      6  N   UNL     1       1.492   9.550  18.189  0.00  0.00    +0.000 NA
ATOM      7  C   UNL     1       1.301   8.892  19.315  0.00  0.00    +0.000 A 
ATOM      8  S   UNL     1       2.304   7.522  19.511  0.00  0.00    +0.000 S 
ATOM      9  H   UNL     1       4.176   7.439  16.458  0.00  0.00    +0.000 HD
ENDROOT
BRANCH   1  15
ATOM     10  C   UNL     1       7.276   6.251  17.985  0.00  0.00    +0.000 C 
ATOM     11  N   UNL     1       6.614   5.438  16.989  0.00  0.00    +0.000 N 
ATOM     12  N   UNL     1       7.371   4.802  16.072  0.00  0.00    +0.000 NA
ATOM     13  C   UNL     1       6.488   4.166  15.305  0.00  0.00    +0.000 A 
ATOM     14  C   UNL     1       5.168   4.382  15.732  0.00  0.00    +0.000 A 
ATOM     15  C   UNL     1       5.260   5.211  16.842  0.00  0.00    +0.000 A 
ENDBRANCH   1  15
BRANCH   7  16
ATOM     16  C   UNL     1       0.253   9.292  20.350  0.00  0.00    +0.000 C 
ATOM     17  C   UNL     1       0.451   8.898  21.799  0.00  0.00    +0.000 C 
ATOM     18  C   UNL     1       0.649  10.318  21.394  0.00  0.00    +0.000 C 
ENDBRANCH   7  16
TORSDOF 2
ENDMDL
MODEL 3
REMARK VINA RESULT:      -5.9      3.501      4.109
REMARK  Name = 
REMARK  3 active torsions:
REMARK  status: ('A' for Active; 'I' for Inactive)
REMARK    1  A    between atoms: C_1  and  N_2
REMARK    2  A    between atoms: C_6  and  C_7
REMARK    3  A    between atoms: C_13  and  C_14
REMARK                            x       y       z     vdW  Elec       q    Type
REMARK                         _______ _______ _______ _____ _____    ______ ____
ROOT
ATOM      1  C   UNL     1       3.435   4.726  18.201  0.00  0.00    +0.000 C 
ATOM      2  O   UNL     1       3.216   5.568  17.339  0.00  0.00    +0.000 OA
ATOM      3  N   UNL     1       4.630   4.571  18.865  0.00  0.00    +0.000 N 
ATOM      4  C   UNL     1       5.755   5.343  18.724  0.00  0.00    +0.000 A 
ATOM      5  N   UNL     1       6.917   4.985  19.224  0.00  0.00    +0.000 NA
ATOM      6  N   UNL     1       7.919   5.883  18.907  0.00  0.00    +0.000 NA
ATOM      7  C   UNL     1       7.449   6.909  18.228  0.00  0.00    +0.000 A 
ATOM      8  S   UNL     1       5.763   6.860  17.950  0.00  0.00    +0.000 S 
ATOM      9  H   UNL     1       4.787   3.744  19.423  0.00  0.00    +0.000 HD
ENDROOT
BRANCH   1  15
ATOM     10  C   UNL     1       1.511   4.975  20.612  0.00  0.00    +0.000 C 
ATOM     11  N   UNL     1       1.578   3.884  19.666  0.00  0.00    +0.000 N 
ATOM     12  N   UNL     1       0.730   2.848  19.818  0.00  0.00    +0.000 NA
ATOM     13  C   UNL     1       1.045   2.020  18.824  0.00  0.00    +0.000 A 
ATOM     14  C   UNL     1       2.086   2.526  18.029  0.00  0.00    +0.000 A 
ATOM     15  C   UNL     1       2.424   3.752  18.583  0.00  0.00    +0.000 A 
ENDBRANCH   1  15
BRANCH   7  16
ATOM     16  C   UNL     1       8.330   8.038  17.700  0.00  0.00    +0.000 C 
ATOM     17  C   UNL     1       7.776   9.447  17.636  0.00  0.00    +0.000 C 
ATOM     18  C   UNL     1       8.778   9.102  18.683  0.00  0.00    +0.000 C 
ENDBRANCH   7  16
TORSDOF 2
ENDMDL
MODEL 4
REMARK VINA RESULT:      -5.9      2.208      7.049
REMARK  Name = 
REMARK  3 active torsions:
REMARK  status: ('A' for Active; 'I' for Inactive)
REMARK    1  A    between atoms: C_1  and  N_2
REMARK    2  A    between atoms: C_6  and  C_7
REMARK    3  A    between atoms: C_13  and  C_14
REMARK                            x       y       z     vdW  Elec       q    Type
REMARK                         _______ _______ _______ _____ _____    ______ ____
ROOT
ATOM      1  C   UNL     1       5.371   4.254  16.760  0.00  0.00    +0.000 C 
ATOM      2  O   UNL     1       5.906   4.220  17.861  0.00  0.00    +0.000 OA
ATOM      3  N   UNL     1       4.028   4.055  16.530  0.00  0.00    +0.000 N 
ATOM      4  C   UNL     1       3.056   3.836  17.473  0.00  0.00    +0.000 A 
ATOM      5  N   UNL     1       1.848   3.430  17.151  0.00  0.00    +0.000 NA
ATOM      6  N   UNL     1       1.057   3.217  18.265  0.00  0.00    +0.000 NA
ATOM      7  C   UNL     1       1.694   3.529  19.375  0.00  0.00    +0.000 A 
ATOM      8  S   UNL     1       3.281   4.119  19.137  0.00  0.00    +0.000 S 
ATOM      9  H   UNL     1       3.700   3.918  15.585  0.00  0.00    +0.000 HD
ENDROOT
BRANCH   1  15
ATOM     10  C   UNL     1       7.460   6.499  16.338  0.00  0.00    +0.000 C 
ATOM     11  N   UNL     1       7.070   5.487  15.383  0.00  0.00    +0.000 N 
ATOM     12  N   UNL     1       7.655   5.489  14.168  0.00  0.00    +0.000 NA
ATOM     13  C   UNL     1       7.084   4.471  13.529  0.00  0.00    +0.000 A 
ATOM     14  C   UNL     1       6.142   3.808  14.332  0.00  0.00    +0.000 A 
ATOM     15  C   UNL     1       6.144   4.475  15.548  0.00  0.00    +0.000 A 
ENDBRANCH   1  15
BRANCH   7  16
ATOM     16  C   UNL     1       1.089   3.353  20.765  0.00  0.00    +0.000 C 
ATOM     17  C   UNL     1       1.512   2.175  21.618  0.00  0.00    +0.000 C 
ATOM     18  C   UNL     1       2.002   3.540  21.961  0.00  0.00    +0.000 C 
ENDBRANCH   7  16
TORSDOF 2
ENDMDL
MODEL 5
REMARK VINA RESULT:      -5.9      1.499      1.719
REMARK  Name = 
REMARK  3 active torsions:
REMARK  status: ('A' for Active; 'I' for Inactive)
REMARK    1  A    between atoms: C_1  and  N_2
REMARK    2  A    between atoms: C_6  and  C_7
REMARK    3  A    between atoms: C_13  and  C_14
REMARK                            x       y       z     vdW  Elec       q    Type
REMARK                         _______ _______ _______ _____ _____    ______ ____
ROOT
ATOM      1  C   UNL     1       3.254   5.991  17.973  0.00  0.00    +0.000 C 
ATOM      2  O   UNL     1       2.799   4.927  17.570  0.00  0.00    +0.000 OA
ATOM      3  N   UNL     1       4.443   6.547  17.558  0.00  0.00    +0.000 N 
ATOM      4  C   UNL     1       5.294   6.051  16.603  0.00  0.00    +0.000 A 
ATOM      5  N   UNL     1       6.509   6.522  16.436  0.00  0.00    +0.000 NA
ATOM      6  N   UNL     1       7.206   5.831  15.461  0.00  0.00    +0.000 NA
ATOM      7  C   UNL     1       6.457   4.904  14.899  0.00  0.00    +0.000 A 
ATOM      8  S   UNL     1       4.858   4.827  15.502  0.00  0.00    +0.000 S 
ATOM      9  H   UNL     1       4.833   7.326  18.068  0.00  0.00    +0.000 HD
ENDROOT
BRANCH   1  15
ATOM     10  C   UNL     1       2.257   4.908  20.695  0.00  0.00    +0.000 C 
ATOM     11  N   UNL     1       2.133   6.261  20.203  0.00  0.00    +0.000 N 
ATOM     12  N   UNL     1       1.525   7.177  20.983  0.00  0.00    +0.000 NA
ATOM     13  C   UNL     1       1.554   8.293  20.259  0.00  0.00    +0.000 A 
ATOM     14  C   UNL     1       2.188   8.101  19.021  0.00  0.00    +0.000 A 
ATOM     15  C   UNL     1       2.572   6.768  18.996  0.00  0.00    +0.000 A 
ENDBRANCH   1  15
BRANCH   7  16
ATOM     16  C   UNL     1       6.970   3.953  13.823  0.00  0.00    +0.000 C 
ATOM     17  C   UNL     1       6.028   3.484  12.732  0.00  0.00    +0.000 C 
ATOM     18  C   UNL     1       7.084   4.484  12.407  0.00  0.00    +0.000 C 
ENDBRANCH   7  16
TORSDOF 2
ENDMDL
MODEL 6
REMARK VINA RESULT:      -5.8      4.136      5.798
REMARK  Name = 
REMARK  3 active torsions:
REMARK  status: ('A' for Active; 'I' for Inactive)
REMARK    1  A    between atoms: C_1  and  N_2
REMARK    2  A    between atoms: C_6  and  C_7
REMARK    3  A    between atoms: C_13  and  C_14
REMARK                            x       y       z     vdW  Elec       q    Type
REMARK                         _______ _______ _______ _____ _____    ______ ____
ROOT
ATOM      1  C   UNL     1       1.272   8.734  20.119  0.00  0.00    +0.000 C 
ATOM      2  O   UNL     1       1.260   9.212  18.991  0.00  0.00    +0.000 OA
ATOM      3  N   UNL     1       1.882   7.550  20.466  0.00  0.00    +0.000 N 
ATOM      4  C   UNL     1       2.614   6.730  19.644  0.00  0.00    +0.000 A 
ATOM      5  N   UNL     1       2.962   5.513  19.999  0.00  0.00    +0.000 NA
ATOM      6  N   UNL     1       3.639   4.851  18.992  0.00  0.00    +0.000 NA
ATOM      7  C   UNL     1       3.818   5.625  17.941  0.00  0.00    +0.000 A 
ATOM      8  S   UNL     1       3.196   7.209  18.117  0.00  0.00    +0.000 S 
ATOM      9  H   UNL     1       1.693   7.137  21.367  0.00  0.00    +0.000 HD
ENDROOT
BRANCH   1  15
ATOM     10  C   UNL     1       1.165  11.783  20.642  0.00  0.00    +0.000 C 
ATOM     11  N   UNL     1       0.550  10.744  21.438  0.00  0.00    +0.000 N 
ATOM     12  N   UNL     1      -0.152  11.102  22.532  0.00  0.00    +0.000 NA
ATOM     13  C   UNL     1      -0.567   9.947  23.046  0.00  0.00    +0.000 A 
ATOM     14  C   UNL     1      -0.143   8.848  22.280  0.00  0.00    +0.000 A 
ATOM     15  C   UNL     1       0.582   9.380  21.224  0.00  0.00    +0.000 A 
ENDBRANCH   1  15
BRANCH   7  16
ATOM     16  C   UNL     1       4.493   5.152  16.657  0.00  0.00    +0.000 C 
ATOM     17  C   UNL     1       5.271   6.143  15.816  0.00  0.00    +0.000 C 
ATOM     18  C   UNL     1       6.009   5.132  16.624  0.00  0.00    +0.000 C 
ENDBRANCH   7  16
TORSDOF 2
ENDMDL
MODEL 7
REMARK VINA RESULT:      -5.8      1.863      6.855
REMARK  Name = 
REMARK  3 active torsions:
REMARK  status: ('A' for Active; 'I' for Inactive)
REMARK    1  A    between atoms: C_1  and  N_2
REMARK    2  A    between atoms: C_6  and  C_7
REMARK    3  A    between atoms: C_13  and  C_14
REMARK                            x       y       z     vdW  Elec       q    Type
REMARK                         _______ _______ _______ _____ _____    ______ ____
ROOT
ATOM      1  C   UNL     1       5.073   4.096  16.262  0.00  0.00    +0.000 C 
ATOM      2  O   UNL     1       4.778   2.931  16.497  0.00  0.00    +0.000 OA
ATOM      3  N   UNL     1       4.569   5.187  16.933  0.00  0.00    +0.000 N 
ATOM      4  C   UNL     1       3.701   5.169  17.995  0.00  0.00    +0.000 A 
ATOM      5  N   UNL     1       3.096   6.256  18.423  0.00  0.00    +0.000 NA
ATOM      6  N   UNL     1       2.222   5.990  19.461  0.00  0.00    +0.000 NA
ATOM      7  C   UNL     1       2.254   4.719  19.804  0.00  0.00    +0.000 A 
ATOM      8  S   UNL     1       3.358   3.772  18.906  0.00  0.00    +0.000 S 
ATOM      9  H   UNL     1       4.720   6.113  16.563  0.00  0.00    +0.000 HD
ENDROOT
BRANCH   1  15
ATOM     10  C   UNL     1       7.452   6.064  16.482  0.00  0.00    +0.000 C 
ATOM     11  N   UNL     1       7.041   5.329  15.307  0.00  0.00    +0.000 N 
ATOM     12  N   UNL     1       7.743   5.492  14.168  0.00  0.00    +0.000 NA
ATOM     13  C   UNL     1       7.120   4.711  13.288  0.00  0.00    +0.000 A 
ATOM     14  C   UNL     1       6.027   4.040  13.859  0.00  0.00    +0.000 A 
ATOM     15  C   UNL     1       5.987   4.444  15.186  0.00  0.00    +0.000 A 
ENDBRANCH   1  15
BRANCH   7  16
ATOM     16  C   UNL     1       1.362   4.123  20.890  0.00  0.00    +0.000 C 
ATOM     17  C   UNL     1       1.137   2.625  20.929  0.00  0.00    +0.000 C 
ATOM     18  C   UNL     1       2.020   3.259  21.948  0.00  0.00    +0.000 C 
ENDBRANCH   7  16
TORSDOF 2
ENDMDL
MODEL 8
REMARK VINA RESULT:      -5.8      4.541      7.797
REMARK  Name = 
REMARK  3 active torsions:
REMARK  status: ('A' for Active; 'I' for Inactive)
REMARK    1  A    between atoms: C_1  and  N_2
REMARK    2  A    between atoms: C_6  and  C_7
REMARK    3  A    between atoms: C_13  and  C_14
REMARK                            x       y       z     vdW  Elec       q    Type
REMARK                         _______ _______ _______ _____ _____    ______ ____
ROOT
ATOM      1  C   UNL     1       2.252   6.485  19.695  0.00  0.00    +0.000 C 
ATOM      2  O   UNL     1       2.367   7.055  18.617  0.00  0.00    +0.000 OA
ATOM      3  N   UNL     1       1.822   7.080  20.859  0.00  0.00    +0.000 N 
ATOM      4  C   UNL     1       1.406   8.378  21.013  0.00  0.00    +0.000 A 
ATOM      5  N   UNL     1       1.234   8.922  22.197  0.00  0.00    +0.000 NA
ATOM      6  N   UNL     1       0.872  10.254  22.111  0.00  0.00    +0.000 NA
ATOM      7  C   UNL     1       0.734  10.635  20.857  0.00  0.00    +0.000 A 
ATOM      8  S   UNL     1       1.013   9.400  19.708  0.00  0.00    +0.000 S 
ATOM      9  H   UNL     1       1.930   6.594  21.737  0.00  0.00    +0.000 HD
ENDROOT
BRANCH   1  15
ATOM     10  C   UNL     1       5.053   5.274  19.175  0.00  0.00    +0.000 C 
ATOM     11  N   UNL     1       3.871   4.567  19.614  0.00  0.00    +0.000 N 
ATOM     12  N   UNL     1       3.958   3.239  19.829  0.00  0.00    +0.000 NA
ATOM     13  C   UNL     1       2.729   2.888  20.199  0.00  0.00    +0.000 A 
ATOM     14  C   UNL     1       1.854   3.986  20.232  0.00  0.00    +0.000 A 
ATOM     15  C   UNL     1       2.613   5.085  19.854  0.00  0.00    +0.000 A 
ENDBRANCH   1  15
BRANCH   7  16
ATOM     16  C   UNL     1       0.386  12.065  20.451  0.00  0.00    +0.000 C 
ATOM     17  C   UNL     1      -0.229  12.323  19.091  0.00  0.00    +0.000 C 
ATOM     18  C   UNL     1      -1.081  12.420  20.310  0.00  0.00    +0.000 C 
ENDBRANCH   7  16
TORSDOF 2
ENDMDL
MODEL 9
REMARK VINA RESULT:      -5.8      3.574      5.161
REMARK  Name = 
REMARK  3 active torsions:
REMARK  status: ('A' for Active; 'I' for Inactive)
REMARK    1  A    between atoms: C_1  and  N_2
REMARK    2  A    between atoms: C_6  and  C_7
REMARK    3  A    between atoms: C_13  and  C_14
REMARK                            x       y       z     vdW  Elec       q    Type
REMARK                         _______ _______ _______ _____ _____    ______ ____
ROOT
ATOM      1  C   UNL     1       1.778   8.161  19.689  0.00  0.00    +0.000 C 
ATOM      2  O   UNL     1       1.862   8.608  18.552  0.00  0.00    +0.000 OA
ATOM      3  N   UNL     1       2.291   6.952  20.100  0.00  0.00    +0.000 N 
ATOM      4  C   UNL     1       3.016   6.067  19.343  0.00  0.00    +0.000 A 
ATOM      5  N   UNL     1       3.266   4.841  19.747  0.00  0.00    +0.000 NA
ATOM      6  N   UNL     1       3.958   4.111  18.798  0.00  0.00    +0.000 NA
ATOM      7  C   UNL     1       4.246   4.845  17.742  0.00  0.00    +0.000 A 
ATOM      8  S   UNL     1       3.716   6.467  17.843  0.00  0.00    +0.000 S 
ATOM      9  H   UNL     1       2.023   6.576  20.997  0.00  0.00    +0.000 HD
ENDROOT
BRANCH   1  15
ATOM     10  C   UNL     1      -0.555  10.147  19.246  0.00  0.00    +0.000 C 
ATOM     11  N   UNL     1       0.028   9.763  20.512  0.00  0.00    +0.000 N 
ATOM     12  N   UNL     1      -0.469  10.306  21.641  0.00  0.00    +0.000 NA
ATOM     13  C   UNL     1       0.272   9.777  22.612  0.00  0.00    +0.000 A 
ATOM     14  C   UNL     1       1.237   8.888  22.112  0.00  0.00    +0.000 A 
ATOM     15  C   UNL     1       1.065   8.878  20.735  0.00  0.00    +0.000 A 
ENDBRANCH   1  15
BRANCH   7  16
ATOM     16  C   UNL     1       4.965   4.295  16.513  0.00  0.00    +0.000 C 
ATOM     17  C   UNL     1       5.584   5.258  15.521  0.00  0.00    +0.000 C 
ATOM     18  C   UNL     1       6.467   4.480  16.434  0.00  0.00    +0.000 C 
ENDBRANCH   7  16
TORSDOF 2
ENDMDL
