MODEL 1
REMARK VINA RESULT:      -7.2      0.000      0.000
REMARK  Name = 
REMARK  11 active torsions:
REMARK  status: ('A' for Active; 'I' for Inactive)
REMARK    1  A    between atoms: C_1  and  C_2
REMARK    2  A    between atoms: C_2  and  C_3
REMARK    3  A    between atoms: C_2  and  N_4
REMARK    4  A    between atoms: N_4  and  C_22
REMARK    5  A    between atoms: C_5  and  C_7
REMARK    6  A    between atoms: C_7  and  N_8
REMARK    7  A    between atoms: C_10  and  S_11
REMARK    8  A    between atoms: S_11  and  C_12
REMARK    9  A    between atoms: C_12  and  C_13
REMARK   10  A    between atoms: C_22  and  C_23
REMARK   11  A    between atoms: C_22  and  C_24
REMARK                            x       y       z     vdW  Elec       q    Type
REMARK                         _______ _______ _______ _____ _____    ______ ____
ROOT
ATOM      1  N   UNL     1       2.713   6.016  18.933  0.00  0.00    +0.000 N 
ATOM      2  C   UNL     1       3.743   5.957  18.015  0.00  0.00    +0.000 A 
ATOM      3  C   UNL     1       3.776   4.687  17.492  0.00  0.00    +0.000 A 
ATOM      4  C   UNL     1       2.762   3.924  18.139  0.00  0.00    +0.000 A 
ATOM      5  C   UNL     1       2.314   2.589  18.023  0.00  0.00    +0.000 A 
ATOM      6  C   UNL     1       1.285   2.126  18.846  0.00  0.00    +0.000 A 
ATOM      7  C   UNL     1       0.711   2.966  19.792  0.00  0.00    +0.000 A 
ATOM      8  C   UNL     1       1.129   4.295  19.928  0.00  0.00    +0.000 A 
ATOM      9  C   UNL     1       2.144   4.762  19.078  0.00  0.00    +0.000 A 
ENDROOT
BRANCH   1  10
ATOM     10  C   UNL     1       2.431   7.206  19.742  0.00  0.00    +0.000 C 
BRANCH  10  12
ATOM     11  N   UNL     1       1.057   9.313  19.788  0.00  0.00    +0.000 N 
ATOM     12  C   UNL     1       1.820   8.411  19.011  0.00  0.00    +0.000 C 
ATOM     13  O   UNL     1       1.946   8.546  17.793  0.00  0.00    +0.000 OA
BRANCH  11  15
ATOM     14  C   UNL     1       1.385  11.523  18.527  0.00  0.00    +0.000 C 
ATOM     15  C   UNL     1       0.420  10.495  19.131  0.00  0.00    +0.000 C 
ATOM     16  C   UNL     1      -0.623  10.074  18.090  0.00  0.00    +0.000 C 
ENDBRANCH  11  15
BRANCH  11  17
ATOM     17  C   UNL     1       0.763   9.077  21.230  0.00  0.00    +0.000 C 
ATOM     18  C   UNL     1       0.684  10.394  22.007  0.00  0.00    +0.000 C 
ATOM     19  C   UNL     1      -0.470   8.211  21.502  0.00  0.00    +0.000 C 
ENDBRANCH  11  17
ENDBRANCH  10  12
ENDBRANCH   1  10
BRANCH   3  20
ATOM     20  S   UNL     1       4.818   4.075  16.228  0.00  0.00    +0.000 S 
BRANCH  20  21
ATOM     21  C   UNL     1       5.763   5.545  15.730  0.00  0.00    +0.000 C 
BRANCH  21  22
ATOM     22  C   UNL     1       7.125   5.592  16.407  0.00  0.00    +0.000 C 
ATOM     23  N   UNL     1       7.604   6.821  16.766  0.00  0.00    +0.000 N 
ATOM     24  O   UNL     1       7.825   4.595  16.554  0.00  0.00    +0.000 OA
ATOM     25  H   UNL     1       6.960   7.595  16.887  0.00  0.00    +0.000 HD
ATOM     26  H   UNL     1       8.469   6.839  17.292  0.00  0.00    +0.000 HD
ENDBRANCH  21  22
ENDBRANCH  20  21
ENDBRANCH   3  20
TORSDOF 7
ENDMDL
MODEL 2
REMARK VINA RESULT:      -7.0      0.825      1.280
REMARK  Name = 
REMARK  11 active torsions:
REMARK  status: ('A' for Active; 'I' for Inactive)
REMARK    1  A    between atoms: C_1  and  C_2
REMARK    2  A    between atoms: C_2  and  C_3
REMARK    3  A    between atoms: C_2  and  N_4
REMARK    4  A    between atoms: N_4  and  C_22
REMARK    5  A    between atoms: C_5  and  C_7
REMARK    6  A    between atoms: C_7  and  N_8
REMARK    7  A    between atoms: C_10  and  S_11
REMARK    8  A    between atoms: S_11  and  C_12
REMARK    9  A    between atoms: C_12  and  C_13
REMARK   10  A    between atoms: C_22  and  C_23
REMARK   11  A    between atoms: C_22  and  C_24
REMARK                            x       y       z     vdW  Elec       q    Type
REMARK                         _______ _______ _______ _____ _____    ______ ____
ROOT
ATOM      1  N   UNL     1       2.587   6.189  19.059  0.00  0.00    +0.000 N 
ATOM      2  C   UNL     1       3.618   6.138  18.141  0.00  0.00    +0.000 A 
ATOM      3  C   UNL     1       3.714   4.848  17.679  0.00  0.00    +0.000 A 
ATOM      4  C   UNL     1       2.741   4.066  18.366  0.00  0.00    +0.000 A 
ATOM      5  C   UNL     1       2.361   2.707  18.316  0.00  0.00    +0.000 A 
ATOM      6  C   UNL     1       1.358   2.232  19.164  0.00  0.00    +0.000 A 
ATOM      7  C   UNL     1       0.744   3.087  20.071  0.00  0.00    +0.000 A 
ATOM      8  C   UNL     1       1.094   4.440  20.142  0.00  0.00    +0.000 A 
ATOM      9  C   UNL     1       2.083   4.917  19.266  0.00  0.00    +0.000 A 
ENDROOT
BRANCH   1  10
ATOM     10  C   UNL     1       2.247   7.401  19.811  0.00  0.00    +0.000 C 
BRANCH  10  12
ATOM     11  N   UNL     1       0.824   9.475  19.712  0.00  0.00    +0.000 N 
ATOM     12  C   UNL     1       1.653   8.569  19.009  0.00  0.00    +0.000 C 
ATOM     13  O   UNL     1       1.848   8.671  17.797  0.00  0.00    +0.000 OA
BRANCH  11  15
ATOM     14  C   UNL     1      -1.170  10.345  18.354  0.00  0.00    +0.000 C 
ATOM     15  C   UNL     1       0.201  10.621  18.983  0.00  0.00    +0.000 C 
ATOM     16  C   UNL     1       0.142  11.882  19.851  0.00  0.00    +0.000 C 
ENDBRANCH  11  15
BRANCH  11  17
ATOM     17  C   UNL     1       0.452   9.274  21.141  0.00  0.00    +0.000 C 
ATOM     18  C   UNL     1      -0.458   8.055  21.316  0.00  0.00    +0.000 C 
ATOM     19  C   UNL     1       1.635   9.212  22.111  0.00  0.00    +0.000 C 
ENDBRANCH  11  17
ENDBRANCH  10  12
ENDBRANCH   1  10
BRANCH   3  20
ATOM     20  S   UNL     1       4.785   4.229  16.443  0.00  0.00    +0.000 S 
BRANCH  20  21
ATOM     21  C   UNL     1       5.675   5.715  15.893  0.00  0.00    +0.000 C 
BRANCH  21  22
ATOM     22  C   UNL     1       7.068   5.792  16.503  0.00  0.00    +0.000 C 
ATOM     23  N   UNL     1       7.614   4.628  16.968  0.00  0.00    +0.000 N 
ATOM     24  O   UNL     1       7.659   6.855  16.667  0.00  0.00    +0.000 OA
ATOM     25  H   UNL     1       7.270   3.740  16.622  0.00  0.00    +0.000 HD
ATOM     26  H   UNL     1       8.571   4.671  17.293  0.00  0.00    +0.000 HD
ENDBRANCH  21  22
ENDBRANCH  20  21
ENDBRANCH   3  20
TORSDOF 7
ENDMDL
MODEL 3
REMARK VINA RESULT:      -7.0      1.594      2.587
REMARK  Name = 
REMARK  11 active torsions:
REMARK  status: ('A' for Active; 'I' for Inactive)
REMARK    1  A    between atoms: C_1  and  C_2
REMARK    2  A    between atoms: C_2  and  C_3
REMARK    3  A    between atoms: C_2  and  N_4
REMARK    4  A    between atoms: N_4  and  C_22
REMARK    5  A    between atoms: C_5  and  C_7
REMARK    6  A    between atoms: C_7  and  N_8
REMARK    7  A    between atoms: C_10  and  S_11
REMARK    8  A    between atoms: S_11  and  C_12
REMARK    9  A    between atoms: C_12  and  C_13
REMARK   10  A    between atoms: C_22  and  C_23
REMARK   11  A    between atoms: C_22  and  C_24
REMARK                            x       y       z     vdW  Elec       q    Type
REMARK                         _______ _______ _______ _____ _____    ______ ____
ROOT
ATOM      1  N   UNL     1       3.206   6.553  17.790  0.00  0.00    +0.000 N 
ATOM      2  C   UNL     1       4.564   6.561  17.535  0.00  0.00    +0.000 A 
ATOM      3  C   UNL     1       4.978   5.259  17.392  0.00  0.00    +0.000 A 
ATOM      4  C   UNL     1       3.850   4.417  17.608  0.00  0.00    +0.000 A 
ATOM      5  C   UNL     1       3.650   3.019  17.586  0.00  0.00    +0.000 A 
ATOM      6  C   UNL     1       2.390   2.490  17.878  0.00  0.00    +0.000 A 
ATOM      7  C   UNL     1       1.335   3.332  18.208  0.00  0.00    +0.000 A 
ATOM      8  C   UNL     1       1.499   4.722  18.233  0.00  0.00    +0.000 A 
ATOM      9  C   UNL     1       2.762   5.248  17.911  0.00  0.00    +0.000 A 
ENDROOT
BRANCH   1  10
ATOM     10  C   UNL     1       2.440   7.771  18.070  0.00  0.00    +0.000 C 
BRANCH  10  12
ATOM     11  N   UNL     1       1.103   9.076  19.757  0.00  0.00    +0.000 N 
ATOM     12  C   UNL     1       1.905   7.940  19.500  0.00  0.00    +0.000 C 
ATOM     13  O   UNL     1       2.214   7.147  20.391  0.00  0.00    +0.000 OA
BRANCH  11  15
ATOM     14  C   UNL     1      -0.551   8.359  21.582  0.00  0.00    +0.000 C 
ATOM     15  C   UNL     1       0.570   9.306  21.134  0.00  0.00    +0.000 C 
ATOM     16  C   UNL     1       1.689   9.333  22.180  0.00  0.00    +0.000 C 
ENDBRANCH  11  15
BRANCH  11  17
ATOM     17  C   UNL     1       0.853  10.126  18.729  0.00  0.00    +0.000 C 
ATOM     18  C   UNL     1      -0.619  10.160  18.311  0.00  0.00    +0.000 C 
ATOM     19  C   UNL     1       1.342  11.527  19.110  0.00  0.00    +0.000 C 
ENDBRANCH  11  17
ENDBRANCH  10  12
ENDBRANCH   1  10
BRANCH   3  20
ATOM     20  S   UNL     1       6.575   4.682  16.973  0.00  0.00    +0.000 S 
BRANCH  20  21
ATOM     21  C   UNL     1       6.278   3.716  15.464  0.00  0.00    +0.000 C 
BRANCH  21  22
ATOM     22  C   UNL     1       6.844   4.409  14.233  0.00  0.00    +0.000 C 
ATOM     23  N   UNL     1       7.638   5.503  14.440  0.00  0.00    +0.000 N 
ATOM     24  O   UNL     1       6.543   4.078  13.090  0.00  0.00    +0.000 OA
ATOM     25  H   UNL     1       8.091   5.631  15.337  0.00  0.00    +0.000 HD
ATOM     26  H   UNL     1       8.080   5.907  13.624  0.00  0.00    +0.000 HD
ENDBRANCH  21  22
ENDBRANCH  20  21
ENDBRANCH   3  20
TORSDOF 7
ENDMDL
MODEL 4
REMARK VINA RESULT:      -6.9      1.038      1.077
REMARK  Name = 
REMARK  11 active torsions:
REMARK  status: ('A' for Active; 'I' for Inactive)
REMARK    1  A    between atoms: C_1  and  C_2
REMARK    2  A    between atoms: C_2  and  C_3
REMARK    3  A    between atoms: C_2  and  N_4
REMARK    4  A    between atoms: N_4  and  C_22
REMARK    5  A    between atoms: C_5  and  C_7
REMARK    6  A    between atoms: C_7  and  N_8
REMARK    7  A    between atoms: C_10  and  S_11
REMARK    8  A    between atoms: S_11  and  C_12
REMARK    9  A    between atoms: C_12  and  C_13
REMARK   10  A    between atoms: C_22  and  C_23
REMARK   11  A    between atoms: C_22  and  C_24
REMARK                            x       y       z     vdW  Elec       q    Type
REMARK                         _______ _______ _______ _____ _____    ______ ____
ROOT
ATOM      1  N   UNL     1       2.418   6.815  19.321  0.00  0.00    +0.000 N 
ATOM      2  C   UNL     1       3.369   6.860  18.320  0.00  0.00    +0.000 A 
ATOM      3  C   UNL     1       3.578   5.578  17.872  0.00  0.00    +0.000 A 
ATOM      4  C   UNL     1       2.763   4.707  18.652  0.00  0.00    +0.000 A 
ATOM      5  C   UNL     1       2.543   3.312  18.656  0.00  0.00    +0.000 A 
ATOM      6  C   UNL     1       1.676   2.746  19.594  0.00  0.00    +0.000 A 
ATOM      7  C   UNL     1       1.043   3.548  20.537  0.00  0.00    +0.000 A 
ATOM      8  C   UNL     1       1.236   4.934  20.555  0.00  0.00    +0.000 A 
ATOM      9  C   UNL     1       2.086   5.499  19.590  0.00  0.00    +0.000 A 
ENDROOT
BRANCH   1  10
ATOM     10  C   UNL     1       2.002   7.998  20.079  0.00  0.00    +0.000 C 
BRANCH  10  12
ATOM     11  N   UNL     1       0.371   9.915  20.083  0.00  0.00    +0.000 N 
ATOM     12  C   UNL     1       1.198   9.062  19.316  0.00  0.00    +0.000 C 
ATOM     13  O   UNL     1       1.234   9.124  18.086  0.00  0.00    +0.000 OA
BRANCH  11  15
ATOM     14  C   UNL     1       0.336  12.071  18.693  0.00  0.00    +0.000 C 
ATOM     15  C   UNL     1      -0.451  10.958  19.396  0.00  0.00    +0.000 C 
ATOM     16  C   UNL     1      -1.466  10.337  18.430  0.00  0.00    +0.000 C 
ENDBRANCH  11  15
BRANCH  11  17
ATOM     17  C   UNL     1       0.195   9.749  21.553  0.00  0.00    +0.000 C 
ATOM     18  C   UNL     1      -0.371  11.017  22.196  0.00  0.00    +0.000 C 
ATOM     19  C   UNL     1      -0.619   8.520  21.968  0.00  0.00    +0.000 C 
ENDBRANCH  11  17
ENDBRANCH  10  12
ENDBRANCH   1  10
BRANCH   3  20
ATOM     20  S   UNL     1       4.607   5.055  16.559  0.00  0.00    +0.000 S 
BRANCH  20  21
ATOM     21  C   UNL     1       6.220   5.769  16.996  0.00  0.00    +0.000 C 
BRANCH  21  22
ATOM     22  C   UNL     1       7.366   5.013  16.338  0.00  0.00    +0.000 C 
ATOM     23  N   UNL     1       7.538   5.184  14.993  0.00  0.00    +0.000 N 
ATOM     24  O   UNL     1       8.063   4.208  16.948  0.00  0.00    +0.000 OA
ATOM     25  H   UNL     1       7.158   6.007  14.538  0.00  0.00    +0.000 HD
ATOM     26  H   UNL     1       8.351   4.748  14.577  0.00  0.00    +0.000 HD
ENDBRANCH  21  22
ENDBRANCH  20  21
ENDBRANCH   3  20
TORSDOF 7
ENDMDL
MODEL 5
REMARK VINA RESULT:      -6.9      2.276      4.575
REMARK  Name = 
REMARK  11 active torsions:
REMARK  status: ('A' for Active; 'I' for Inactive)
REMARK    1  A    between atoms: C_1  and  C_2
REMARK    2  A    between atoms: C_2  and  C_3
REMARK    3  A    between atoms: C_2  and  N_4
REMARK    4  A    between atoms: N_4  and  C_22
REMARK    5  A    between atoms: C_5  and  C_7
REMARK    6  A    between atoms: C_7  and  N_8
REMARK    7  A    between atoms: C_10  and  S_11
REMARK    8  A    between atoms: S_11  and  C_12
REMARK    9  A    between atoms: C_12  and  C_13
REMARK   10  A    between atoms: C_22  and  C_23
REMARK   11  A    between atoms: C_22  and  C_24
REMARK                            x       y       z     vdW  Elec       q    Type
REMARK                         _______ _______ _______ _____ _____    ______ ____
ROOT
ATOM      1  N   UNL     1       2.927   6.429  18.058  0.00  0.00    +0.000 N 
ATOM      2  C   UNL     1       2.104   5.367  18.379  0.00  0.00    +0.000 A 
ATOM      3  C   UNL     1       2.696   4.215  17.920  0.00  0.00    +0.000 A 
ATOM      4  C   UNL     1       3.902   4.581  17.257  0.00  0.00    +0.000 A 
ATOM      5  C   UNL     1       4.923   3.854  16.604  0.00  0.00    +0.000 A 
ATOM      6  C   UNL     1       5.992   4.531  16.013  0.00  0.00    +0.000 A 
ATOM      7  C   UNL     1       6.048   5.920  16.048  0.00  0.00    +0.000 A 
ATOM      8  C   UNL     1       5.056   6.668  16.691  0.00  0.00    +0.000 A 
ATOM      9  C   UNL     1       3.999   5.979  17.308  0.00  0.00    +0.000 A 
ENDROOT
BRANCH   1  10
ATOM     10  C   UNL     1       2.572   7.825  18.333  0.00  0.00    +0.000 C 
BRANCH  10  12
ATOM     11  N   UNL     1       0.939   9.190  19.677  0.00  0.00    +0.000 N 
ATOM     12  C   UNL     1       1.848   8.107  19.659  0.00  0.00    +0.000 C 
ATOM     13  O   UNL     1       2.098   7.450  20.671  0.00  0.00    +0.000 OA
BRANCH  11  15
ATOM     14  C   UNL     1      -0.648   8.409  21.534  0.00  0.00    +0.000 C 
ATOM     15  C   UNL     1       0.219   9.527  20.942  0.00  0.00    +0.000 C 
ATOM     16  C   UNL     1       1.171  10.079  22.009  0.00  0.00    +0.000 C 
ENDBRANCH  11  15
BRANCH  11  17
ATOM     17  C   UNL     1       0.746  10.092  18.505  0.00  0.00    +0.000 C 
ATOM     18  C   UNL     1      -0.737  10.256  18.165  0.00  0.00    +0.000 C 
ATOM     19  C   UNL     1       1.431  11.456  18.625  0.00  0.00    +0.000 C 
ENDBRANCH  11  17
ENDBRANCH  10  12
ENDBRANCH   1  10
BRANCH   3  20
ATOM     20  S   UNL     1       2.142   2.569  18.125  0.00  0.00    +0.000 S 
BRANCH  20  21
ATOM     21  C   UNL     1       2.746   2.138  19.784  0.00  0.00    +0.000 C 
BRANCH  21  22
ATOM     22  C   UNL     1       1.798   2.625  20.871  0.00  0.00    +0.000 C 
ATOM     23  N   UNL     1       0.541   2.998  20.484  0.00  0.00    +0.000 N 
ATOM     24  O   UNL     1       2.150   2.772  22.037  0.00  0.00    +0.000 OA
ATOM     25  H   UNL     1       0.162   2.653  19.610  0.00  0.00    +0.000 HD
ATOM     26  H   UNL     1      -0.110   3.238  21.221  0.00  0.00    +0.000 HD
ENDBRANCH  21  22
ENDBRANCH  20  21
ENDBRANCH   3  20
TORSDOF 7
ENDMDL
MODEL 6
REMARK VINA RESULT:      -6.9      0.815      1.106
REMARK  Name = 
REMARK  11 active torsions:
REMARK  status: ('A' for Active; 'I' for Inactive)
REMARK    1  A    between atoms: C_1  and  C_2
REMARK    2  A    between atoms: C_2  and  C_3
REMARK    3  A    between atoms: C_2  and  N_4
REMARK    4  A    between atoms: N_4  and  C_22
REMARK    5  A    between atoms: C_5  and  C_7
REMARK    6  A    between atoms: C_7  and  N_8
REMARK    7  A    between atoms: C_10  and  S_11
REMARK    8  A    between atoms: S_11  and  C_12
REMARK    9  A    between atoms: C_12  and  C_13
REMARK   10  A    between atoms: C_22  and  C_23
REMARK   11  A    between atoms: C_22  and  C_24
REMARK                            x       y       z     vdW  Elec       q    Type
REMARK                         _______ _______ _______ _____ _____    ______ ____
ROOT
ATOM      1  N   UNL     1       2.804   6.061  18.859  0.00  0.00    +0.000 N 
ATOM      2  C   UNL     1       3.859   5.946  17.975  0.00  0.00    +0.000 A 
ATOM      3  C   UNL     1       3.912   4.644  17.541  0.00  0.00    +0.000 A 
ATOM      4  C   UNL     1       2.885   3.920  18.212  0.00  0.00    +0.000 A 
ATOM      5  C   UNL     1       2.447   2.578  18.176  0.00  0.00    +0.000 A 
ATOM      6  C   UNL     1       1.398   2.165  19.001  0.00  0.00    +0.000 A 
ATOM      7  C   UNL     1       0.795   3.064  19.872  0.00  0.00    +0.000 A 
ATOM      8  C   UNL     1       1.202   4.402  19.927  0.00  0.00    +0.000 A 
ATOM      9  C   UNL     1       2.238   4.817  19.074  0.00  0.00    +0.000 A 
ENDROOT
BRANCH   1  10
ATOM     10  C   UNL     1       2.495   7.302  19.575  0.00  0.00    +0.000 C 
BRANCH  10  12
ATOM     11  N   UNL     1       1.048   9.360  19.505  0.00  0.00    +0.000 N 
ATOM     12  C   UNL     1       1.797   8.411  18.773  0.00  0.00    +0.000 C 
ATOM     13  O   UNL     1       1.847   8.430  17.542  0.00  0.00    +0.000 OA
BRANCH  11  15
ATOM     14  C   UNL     1      -1.168  10.581  19.081  0.00  0.00    +0.000 C 
ATOM     15  C   UNL     1       0.330  10.452  18.779  0.00  0.00    +0.000 C 
ATOM     16  C   UNL     1       1.025  11.806  18.957  0.00  0.00    +0.000 C 
ENDBRANCH  11  15
BRANCH  11  17
ATOM     17  C   UNL     1       0.849   9.257  20.979  0.00  0.00    +0.000 C 
ATOM     18  C   UNL     1       0.845  10.637  21.641  0.00  0.00    +0.000 C 
ATOM     19  C   UNL     1      -0.378   8.447  21.406  0.00  0.00    +0.000 C 
ENDBRANCH  11  17
ENDBRANCH  10  12
ENDBRANCH   1  10
BRANCH   3  20
ATOM     20  S   UNL     1       4.991   3.953  16.351  0.00  0.00    +0.000 S 
BRANCH  20  21
ATOM     21  C   UNL     1       6.632   4.457  16.946  0.00  0.00    +0.000 C 
BRANCH  21  22
ATOM     22  C   UNL     1       7.216   5.580  16.100  0.00  0.00    +0.000 C 
ATOM     23  N   UNL     1       7.481   5.302  14.788  0.00  0.00    +0.000 N 
ATOM     24  O   UNL     1       7.530   6.668  16.572  0.00  0.00    +0.000 OA
ATOM     25  H   UNL     1       7.009   4.529  14.334  0.00  0.00    +0.000 HD
ATOM     26  H   UNL     1       7.787   6.075  14.211  0.00  0.00    +0.000 HD
ENDBRANCH  21  22
ENDBRANCH  20  21
ENDBRANCH   3  20
TORSDOF 7
ENDMDL
MODEL 7
REMARK VINA RESULT:      -6.9      1.561      2.551
REMARK  Name = 
REMARK  11 active torsions:
REMARK  status: ('A' for Active; 'I' for Inactive)
REMARK    1  A    between atoms: C_1  and  C_2
REMARK    2  A    between atoms: C_2  and  C_3
REMARK    3  A    between atoms: C_2  and  N_4
REMARK    4  A    between atoms: N_4  and  C_22
REMARK    5  A    between atoms: C_5  and  C_7
REMARK    6  A    between atoms: C_7  and  N_8
REMARK    7  A    between atoms: C_10  and  S_11
REMARK    8  A    between atoms: S_11  and  C_12
REMARK    9  A    between atoms: C_12  and  C_13
REMARK   10  A    between atoms: C_22  and  C_23
REMARK   11  A    between atoms: C_22  and  C_24
REMARK                            x       y       z     vdW  Elec       q    Type
REMARK                         _______ _______ _______ _____ _____    ______ ____
ROOT
ATOM      1  N   UNL     1       3.246   6.704  17.479  0.00  0.00    +0.000 N 
ATOM      2  C   UNL     1       4.555   6.905  17.087  0.00  0.00    +0.000 A 
ATOM      3  C   UNL     1       5.144   5.675  16.917  0.00  0.00    +0.000 A 
ATOM      4  C   UNL     1       4.182   4.682  17.259  0.00  0.00    +0.000 A 
ATOM      5  C   UNL     1       4.193   3.270  17.275  0.00  0.00    +0.000 A 
ATOM      6  C   UNL     1       3.062   2.569  17.700  0.00  0.00    +0.000 A 
ATOM      7  C   UNL     1       1.930   3.255  18.125  0.00  0.00    +0.000 A 
ATOM      8  C   UNL     1       1.886   4.653  18.116  0.00  0.00    +0.000 A 
ATOM      9  C   UNL     1       3.017   5.351  17.660  0.00  0.00    +0.000 A 
ENDROOT
BRANCH   1  10
ATOM     10  C   UNL     1       2.338   7.802  17.820  0.00  0.00    +0.000 C 
BRANCH  10  12
ATOM     11  N   UNL     1       1.206   9.106  19.651  0.00  0.00    +0.000 N 
ATOM     12  C   UNL     1       2.022   8.003  19.310  0.00  0.00    +0.000 C 
ATOM     13  O   UNL     1       2.510   7.264  20.167  0.00  0.00    +0.000 OA
BRANCH  11  15
ATOM     14  C   UNL     1       0.686  10.838  21.471  0.00  0.00    +0.000 C 
ATOM     15  C   UNL     1       0.880   9.365  21.087  0.00  0.00    +0.000 C 
ATOM     16  C   UNL     1      -0.318   8.534  21.557  0.00  0.00    +0.000 C 
ENDBRANCH  11  15
BRANCH  11  17
ATOM     17  C   UNL     1       0.740  10.098  18.642  0.00  0.00    +0.000 C 
ATOM     18  C   UNL     1      -0.777  10.291  18.706  0.00  0.00    +0.000 C 
ATOM     19  C   UNL     1       1.461  11.448  18.687  0.00  0.00    +0.000 C 
ENDBRANCH  11  17
ENDBRANCH  10  12
ENDBRANCH   1  10
BRANCH   3  20
ATOM     20  S   UNL     1       6.760   5.330  16.346  0.00  0.00    +0.000 S 
BRANCH  20  21
ATOM     21  C   UNL     1       7.585   4.674  17.826  0.00  0.00    +0.000 C 
BRANCH  21  22
ATOM     22  C   UNL     1       7.493   5.644  18.996  0.00  0.00    +0.000 C 
ATOM     23  N   UNL     1       8.256   6.776  18.932  0.00  0.00    +0.000 N 
ATOM     24  O   UNL     1       6.840   5.401  20.006  0.00  0.00    +0.000 OA
ATOM     25  H   UNL     1       8.585   7.109  18.033  0.00  0.00    +0.000 HD
ATOM     26  H   UNL     1       8.126   7.457  19.670  0.00  0.00    +0.000 HD
ENDBRANCH  21  22
ENDBRANCH  20  21
ENDBRANCH   3  20
TORSDOF 7
ENDMDL
MODEL 8
REMARK VINA RESULT:      -6.7      1.420      1.534
REMARK  Name = 
REMARK  11 active torsions:
REMARK  status: ('A' for Active; 'I' for Inactive)
REMARK    1  A    between atoms: C_1  and  C_2
REMARK    2  A    between atoms: C_2  and  C_3
REMARK    3  A    between atoms: C_2  and  N_4
REMARK    4  A    between atoms: N_4  and  C_22
REMARK    5  A    between atoms: C_5  and  C_7
REMARK    6  A    between atoms: C_7  and  N_8
REMARK    7  A    between atoms: C_10  and  S_11
REMARK    8  A    between atoms: S_11  and  C_12
REMARK    9  A    between atoms: C_12  and  C_13
REMARK   10  A    between atoms: C_22  and  C_23
REMARK   11  A    between atoms: C_22  and  C_24
REMARK                            x       y       z     vdW  Elec       q    Type
REMARK                         _______ _______ _______ _____ _____    ______ ____
ROOT
ATOM      1  N   UNL     1       2.949   6.507  18.803  0.00  0.00    +0.000 N 
ATOM      2  C   UNL     1       4.207   6.795  18.308  0.00  0.00    +0.000 A 
ATOM      3  C   UNL     1       4.660   5.691  17.628  0.00  0.00    +0.000 A 
ATOM      4  C   UNL     1       3.672   4.672  17.743  0.00  0.00    +0.000 A 
ATOM      5  C   UNL     1       3.565   3.349  17.260  0.00  0.00    +0.000 A 
ATOM      6  C   UNL     1       2.446   2.577  17.582  0.00  0.00    +0.000 A 
ATOM      7  C   UNL     1       1.444   3.099  18.392  0.00  0.00    +0.000 A 
ATOM      8  C   UNL     1       1.518   4.408  18.882  0.00  0.00    +0.000 A 
ATOM      9  C   UNL     1       2.632   5.187  18.531  0.00  0.00    +0.000 A 
ENDROOT
BRANCH   1  10
ATOM     10  C   UNL     1       2.191   7.436  19.645  0.00  0.00    +0.000 C 
BRANCH  10  12
ATOM     11  N   UNL     1       0.898   9.592  19.769  0.00  0.00    +0.000 N 
ATOM     12  C   UNL     1       1.604   8.676  18.954  0.00  0.00    +0.000 C 
ATOM     13  O   UNL     1       1.698   8.827  17.735  0.00  0.00    +0.000 OA
BRANCH  11  15
ATOM     14  C   UNL     1       1.265  11.779  18.480  0.00  0.00    +0.000 C 
ATOM     15  C   UNL     1       0.286  10.807  19.151  0.00  0.00    +0.000 C 
ATOM     16  C   UNL     1      -0.846  10.446  18.185  0.00  0.00    +0.000 C 
ENDBRANCH  11  15
BRANCH  11  17
ATOM     17  C   UNL     1       0.640   9.341  21.215  0.00  0.00    +0.000 C 
ATOM     18  C   UNL     1       0.372  10.645  21.970  0.00  0.00    +0.000 C 
ATOM     19  C   UNL     1      -0.457   8.312  21.503  0.00  0.00    +0.000 C 
ENDBRANCH  11  17
ENDBRANCH  10  12
ENDBRANCH   1  10
BRANCH   3  20
ATOM     20  S   UNL     1       6.150   5.524  16.727  0.00  0.00    +0.000 S 
BRANCH  20  21
ATOM     21  C   UNL     1       5.571   5.287  15.021  0.00  0.00    +0.000 C 
BRANCH  21  22
ATOM     22  C   UNL     1       6.688   4.792  14.113  0.00  0.00    +0.000 C 
ATOM     23  N   UNL     1       6.473   3.624  13.436  0.00  0.00    +0.000 N 
ATOM     24  O   UNL     1       7.779   5.350  14.043  0.00  0.00    +0.000 OA
ATOM     25  H   UNL     1       5.525   3.299  13.283  0.00  0.00    +0.000 HD
ATOM     26  H   UNL     1       7.182   3.345  12.770  0.00  0.00    +0.000 HD
ENDBRANCH  21  22
ENDBRANCH  20  21
ENDBRANCH   3  20
TORSDOF 7
ENDMDL
MODEL 9
REMARK VINA RESULT:      -6.7      1.560      2.448
REMARK  Name = 
REMARK  11 active torsions:
REMARK  status: ('A' for Active; 'I' for Inactive)
REMARK    1  A    between atoms: C_1  and  C_2
REMARK    2  A    between atoms: C_2  and  C_3
REMARK    3  A    between atoms: C_2  and  N_4
REMARK    4  A    between atoms: N_4  and  C_22
REMARK    5  A    between atoms: C_5  and  C_7
REMARK    6  A    between atoms: C_7  and  N_8
REMARK    7  A    between atoms: C_10  and  S_11
REMARK    8  A    between atoms: S_11  and  C_12
REMARK    9  A    between atoms: C_12  and  C_13
REMARK   10  A    between atoms: C_22  and  C_23
REMARK   11  A    between atoms: C_22  and  C_24
REMARK                            x       y       z     vdW  Elec       q    Type
REMARK                         _______ _______ _______ _____ _____    ______ ____
ROOT
ATOM      1  N   UNL     1       3.094   6.302  17.868  0.00  0.00    +0.000 N 
ATOM      2  C   UNL     1       4.466   6.423  17.762  0.00  0.00    +0.000 A 
ATOM      3  C   UNL     1       5.002   5.160  17.698  0.00  0.00    +0.000 A 
ATOM      4  C   UNL     1       3.932   4.227  17.813  0.00  0.00    +0.000 A 
ATOM      5  C   UNL     1       3.854   2.817  17.806  0.00  0.00    +0.000 A 
ATOM      6  C   UNL     1       2.619   2.186  17.973  0.00  0.00    +0.000 A 
ATOM      7  C   UNL     1       1.467   2.939  18.164  0.00  0.00    +0.000 A 
ATOM      8  C   UNL     1       1.510   4.338  18.171  0.00  0.00    +0.000 A 
ATOM      9  C   UNL     1       2.751   4.966  17.974  0.00  0.00    +0.000 A 
ENDROOT
BRANCH   1  10
ATOM     10  C   UNL     1       2.202   7.453  18.031  0.00  0.00    +0.000 C 
BRANCH  10  12
ATOM     11  N   UNL     1       1.188   9.101  19.641  0.00  0.00    +0.000 N 
ATOM     12  C   UNL     1       1.868   7.873  19.471  0.00  0.00    +0.000 C 
ATOM     13  O   UNL     1       2.232   7.192  20.431  0.00  0.00    +0.000 OA
BRANCH  11  15
ATOM     14  C   UNL     1       0.650  11.085  21.175  0.00  0.00    +0.000 C 
ATOM     15  C   UNL     1       0.853   9.573  21.019  0.00  0.00    +0.000 C 
ATOM     16  C   UNL     1      -0.344   8.816  21.604  0.00  0.00    +0.000 C 
ENDBRANCH  11  15
BRANCH  11  17
ATOM     17  C   UNL     1       0.883  10.011  18.500  0.00  0.00    +0.000 C 
ATOM     18  C   UNL     1      -0.618  10.291  18.394  0.00  0.00    +0.000 C 
ATOM     19  C   UNL     1       1.681  11.317  18.489  0.00  0.00    +0.000 C 
ENDBRANCH  11  17
ENDBRANCH  10  12
ENDBRANCH   1  10
BRANCH   3  20
ATOM     20  S   UNL     1       6.679   4.717  17.471  0.00  0.00    +0.000 S 
BRANCH  20  21
ATOM     21  C   UNL     1       7.544   5.762  18.679  0.00  0.00    +0.000 C 
BRANCH  21  22
ATOM     22  C   UNL     1       7.942   7.103  18.078  0.00  0.00    +0.000 C 
ATOM     23  N   UNL     1       7.745   7.270  16.736  0.00  0.00    +0.000 N 
ATOM     24  O   UNL     1       8.501   7.979  18.730  0.00  0.00    +0.000 OA
ATOM     25  H   UNL     1       7.075   6.685  16.250  0.00  0.00    +0.000 HD
ATOM     26  H   UNL     1       7.931   8.191  16.359  0.00  0.00    +0.000 HD
ENDBRANCH  21  22
ENDBRANCH  20  21
ENDBRANCH   3  20
TORSDOF 7
ENDMDL
