MODEL 1
REMARK VINA RESULT:      -8.6      0.000      0.000
REMARK  Name = 
REMARK  7 active torsions:
REMARK  status: ('A' for Active; 'I' for Inactive)
REMARK    1  A    between atoms: C_2  and  C_3
REMARK    2  A    between atoms: C_3  and  C_4
REMARK    3  A    between atoms: C_4  and  C_5
REMARK    4  A    between atoms: C_7  and  C_8
REMARK    5  A    between atoms: N_17  and  C_18
REMARK    6  A    between atoms: C_22  and  C_23
REMARK    7  A    between atoms: N_25  and  C_26
REMARK                            x       y       z     vdW  Elec       q    Type
REMARK                         _______ _______ _______ _____ _____    ______ ____
ROOT
ATOM      1  O   UNL     1       4.440   1.894  19.764  0.00  0.00    +0.000 OA
ATOM      2  C   UNL     1       3.545   2.346  19.055  0.00  0.00    +0.000 C 
ATOM      3  N   UNL     1       3.657   3.408  18.171  0.00  0.00    +0.000 N 
ATOM      4  H   UNL     1       2.794   3.832  17.849  0.00  0.00    +0.000 HD
ENDROOT
BRANCH   3   5
ATOM      5  C   UNL     1       4.857   4.060  17.795  0.00  0.00    +0.000 A 
ATOM      6  C   UNL     1       5.681   4.706  18.719  0.00  0.00    +0.000 A 
ATOM      7  C   UNL     1       6.879   5.300  18.320  0.00  0.00    +0.000 A 
ATOM      8  C   UNL     1       7.263   5.269  16.982  0.00  0.00    +0.000 A 
ATOM      9  C   UNL     1       6.439   4.650  16.035  0.00  0.00    +0.000 A 
ATOM     10  C   UNL     1       5.249   4.022  16.449  0.00  0.00    +0.000 A 
BRANCH   9  11
ATOM     11  C   UNL     1       6.816   4.620  14.589  0.00  0.00    +0.000 C 
ATOM     12  O   UNL     1       7.723   5.334  14.182  0.00  0.00    +0.000 OA
ATOM     13  N   UNL     1       6.093   3.742  13.799  0.00  0.00    +0.000 N 
ATOM     14  H   UNL     1       5.452   3.093  14.235  0.00  0.00    +0.000 HD
BRANCH  13  15
ATOM     15  C   UNL     1       6.300   3.611  12.391  0.00  0.00    +0.000 C 
ATOM     16  C   UNL     1       6.478   2.263  11.753  0.00  0.00    +0.000 C 
ATOM     17  C   UNL     1       5.213   3.034  11.521  0.00  0.00    +0.000 C 
ENDBRANCH  13  15
ENDBRANCH   9  11
ENDBRANCH   3   5
BRANCH   2  18
ATOM     18  C   UNL     1       2.157   1.734  19.118  0.00  0.00    +0.000 C 
BRANCH  18  19
ATOM     19  C   UNL     1       1.363   2.329  20.279  0.00  0.00    +0.000 C 
BRANCH  19  20
ATOM     20  C   UNL     1       1.632   3.778  20.409  0.00  0.00    +0.000 A 
ATOM     21  N   UNL     1       1.391   4.738  19.549  0.00  0.00    +0.000 NA
ATOM     22  C   UNL     1       1.921   5.841  20.179  0.00  0.00    +0.000 A 
ATOM     23  N   UNL     1       2.441   5.581  21.390  0.00  0.00    +0.000 NA
ATOM     24  O   UNL     1       2.252   4.207  21.543  0.00  0.00    +0.000 OA
BRANCH  22  25
ATOM     25  C   UNL     1       1.923   7.152  19.542  0.00  0.00    +0.000 A 
ATOM     26  C   UNL     1       2.506   7.312  18.272  0.00  0.00    +0.000 A 
ATOM     27  C   UNL     1       2.534   8.564  17.656  0.00  0.00    +0.000 A 
ATOM     28  C   UNL     1       1.979   9.657  18.307  0.00  0.00    +0.000 A 
ATOM     29  F   UNL     1       2.006  10.858  17.717  0.00  0.00    +0.000 F 
ATOM     30  C   UNL     1       1.394   9.524  19.562  0.00  0.00    +0.000 A 
ATOM     31  C   UNL     1       1.366   8.271  20.180  0.00  0.00    +0.000 A 
ENDBRANCH  22  25
ENDBRANCH  19  20
ENDBRANCH  18  19
ENDBRANCH   2  18
TORSDOF 7
ENDMDL
MODEL 2
REMARK VINA RESULT:      -8.4      6.670      8.643
REMARK  Name = 
REMARK  7 active torsions:
REMARK  status: ('A' for Active; 'I' for Inactive)
REMARK    1  A    between atoms: C_2  and  C_3
REMARK    2  A    between atoms: C_3  and  C_4
REMARK    3  A    between atoms: C_4  and  C_5
REMARK    4  A    between atoms: C_7  and  C_8
REMARK    5  A    between atoms: N_17  and  C_18
REMARK    6  A    between atoms: C_22  and  C_23
REMARK    7  A    between atoms: N_25  and  C_26
REMARK                            x       y       z     vdW  Elec       q    Type
REMARK                         _______ _______ _______ _____ _____    ______ ____
ROOT
ATOM      1  O   UNL     1       8.266   7.185  18.737  0.00  0.00    +0.000 OA
ATOM      2  C   UNL     1       7.862   7.947  17.863  0.00  0.00    +0.000 C 
ATOM      3  N   UNL     1       6.990   7.628  16.834  0.00  0.00    +0.000 N 
ATOM      4  H   UNL     1       6.945   8.271  16.051  0.00  0.00    +0.000 HD
ENDROOT
BRANCH   3   5
ATOM      5  C   UNL     1       6.272   6.415  16.694  0.00  0.00    +0.000 A 
ATOM      6  C   UNL     1       6.791   5.309  16.017  0.00  0.00    +0.000 A 
ATOM      7  C   UNL     1       6.073   4.115  15.936  0.00  0.00    +0.000 A 
ATOM      8  C   UNL     1       4.815   4.015  16.522  0.00  0.00    +0.000 A 
ATOM      9  C   UNL     1       4.264   5.120  17.182  0.00  0.00    +0.000 A 
ATOM     10  C   UNL     1       5.007   6.310  17.291  0.00  0.00    +0.000 A 
BRANCH   9  11
ATOM     11  C   UNL     1       2.905   5.046  17.802  0.00  0.00    +0.000 C 
ATOM     12  O   UNL     1       2.263   6.073  17.983  0.00  0.00    +0.000 OA
ATOM     13  N   UNL     1       2.459   3.775  18.119  0.00  0.00    +0.000 N 
ATOM     14  H   UNL     1       2.993   2.971  17.817  0.00  0.00    +0.000 HD
BRANCH  13  15
ATOM     15  C   UNL     1       1.199   3.526  18.748  0.00  0.00    +0.000 C 
ATOM     16  C   UNL     1       0.701   2.126  18.962  0.00  0.00    +0.000 C 
ATOM     17  C   UNL     1       1.153   2.942  20.136  0.00  0.00    +0.000 C 
ENDBRANCH  13  15
ENDBRANCH   9  11
ENDBRANCH   3   5
BRANCH   2  18
ATOM     18  C   UNL     1       8.338   9.389  17.847  0.00  0.00    +0.000 C 
BRANCH  18  19
ATOM     19  C   UNL     1       9.223   9.673  19.059  0.00  0.00    +0.000 C 
BRANCH  19  20
ATOM     20  C   UNL     1       9.370  11.130  19.269  0.00  0.00    +0.000 A 
ATOM     21  N   UNL     1       9.438  12.085  18.372  0.00  0.00    +0.000 NA
ATOM     22  C   UNL     1       9.651  13.204  19.146  0.00  0.00    +0.000 A 
ATOM     23  N   UNL     1       9.683  12.957  20.467  0.00  0.00    +0.000 NA
ATOM     24  O   UNL     1       9.500  11.575  20.549  0.00  0.00    +0.000 OA
BRANCH  22  25
ATOM     25  C   UNL     1       9.846  14.517  18.546  0.00  0.00    +0.000 A 
ATOM     26  C   UNL     1       8.996  15.581  18.898  0.00  0.00    +0.000 A 
ATOM     27  C   UNL     1       9.157  16.840  18.318  0.00  0.00    +0.000 A 
ATOM     28  C   UNL     1      10.168  17.039  17.387  0.00  0.00    +0.000 A 
ATOM     29  F   UNL     1      10.322  18.246  16.831  0.00  0.00    +0.000 F 
ATOM     30  C   UNL     1      11.023  16.004  17.025  0.00  0.00    +0.000 A 
ATOM     31  C   UNL     1      10.863  14.742  17.604  0.00  0.00    +0.000 A 
ENDBRANCH  22  25
ENDBRANCH  19  20
ENDBRANCH  18  19
ENDBRANCH   2  18
TORSDOF 7
ENDMDL
MODEL 3
REMARK VINA RESULT:      -8.4      6.592      8.828
REMARK  Name = 
REMARK  7 active torsions:
REMARK  status: ('A' for Active; 'I' for Inactive)
REMARK    1  A    between atoms: C_2  and  C_3
REMARK    2  A    between atoms: C_3  and  C_4
REMARK    3  A    between atoms: C_4  and  C_5
REMARK    4  A    between atoms: C_7  and  C_8
REMARK    5  A    between atoms: N_17  and  C_18
REMARK    6  A    between atoms: C_22  and  C_23
REMARK    7  A    between atoms: N_25  and  C_26
REMARK                            x       y       z     vdW  Elec       q    Type
REMARK                         _______ _______ _______ _____ _____    ______ ____
ROOT
ATOM      1  O   UNL     1       8.291   7.189  18.656  0.00  0.00    +0.000 OA
ATOM      2  C   UNL     1       7.818   7.975  17.840  0.00  0.00    +0.000 C 
ATOM      3  N   UNL     1       6.865   7.682  16.878  0.00  0.00    +0.000 N 
ATOM      4  H   UNL     1       6.756   8.346  16.119  0.00  0.00    +0.000 HD
ENDROOT
BRANCH   3   5
ATOM      5  C   UNL     1       6.136   6.472  16.763  0.00  0.00    +0.000 A 
ATOM      6  C   UNL     1       6.543   5.427  15.931  0.00  0.00    +0.000 A 
ATOM      7  C   UNL     1       5.825   4.232  15.877  0.00  0.00    +0.000 A 
ATOM      8  C   UNL     1       4.676   4.071  16.647  0.00  0.00    +0.000 A 
ATOM      9  C   UNL     1       4.235   5.116  17.467  0.00  0.00    +0.000 A 
ATOM     10  C   UNL     1       4.983   6.306  17.544  0.00  0.00    +0.000 A 
BRANCH   9  11
ATOM     11  C   UNL     1       2.993   4.979  18.288  0.00  0.00    +0.000 C 
ATOM     12  O   UNL     1       1.897   5.098  17.757  0.00  0.00    +0.000 OA
ATOM     13  N   UNL     1       3.189   4.703  19.630  0.00  0.00    +0.000 N 
ATOM     14  H   UNL     1       4.121   4.489  19.963  0.00  0.00    +0.000 HD
BRANCH  13  15
ATOM     15  C   UNL     1       2.115   4.573  20.564  0.00  0.00    +0.000 C 
ATOM     16  C   UNL     1       1.165   3.412  20.499  0.00  0.00    +0.000 C 
ATOM     17  C   UNL     1       2.159   3.498  21.618  0.00  0.00    +0.000 C 
ENDBRANCH  13  15
ENDBRANCH   9  11
ENDBRANCH   3   5
BRANCH   2  18
ATOM     18  C   UNL     1       8.293   9.417  17.824  0.00  0.00    +0.000 C 
BRANCH  18  19
ATOM     19  C   UNL     1       9.117   9.722  19.073  0.00  0.00    +0.000 C 
BRANCH  19  20
ATOM     20  C   UNL     1       9.707  11.077  18.993  0.00  0.00    +0.000 A 
ATOM     21  N   UNL     1       9.094  12.235  18.941  0.00  0.00    +0.000 NA
ATOM     22  C   UNL     1      10.142  13.117  18.798  0.00  0.00    +0.000 A 
ATOM     23  N   UNL     1      11.352  12.532  18.791  0.00  0.00    +0.000 NA
ATOM     24  O   UNL     1      11.062  11.173  18.918  0.00  0.00    +0.000 OA
BRANCH  22  25
ATOM     25  C   UNL     1       9.914  14.548  18.641  0.00  0.00    +0.000 A 
ATOM     26  C   UNL     1       8.682  15.011  18.145  0.00  0.00    +0.000 A 
ATOM     27  C   UNL     1       8.454  16.376  17.970  0.00  0.00    +0.000 A 
ATOM     28  C   UNL     1       9.456  17.282  18.293  0.00  0.00    +0.000 A 
ATOM     29  F   UNL     1       9.238  18.592  18.125  0.00  0.00    +0.000 F 
ATOM     30  C   UNL     1      10.681  16.850  18.788  0.00  0.00    +0.000 A 
ATOM     31  C   UNL     1      10.912  15.482  18.963  0.00  0.00    +0.000 A 
ENDBRANCH  22  25
ENDBRANCH  19  20
ENDBRANCH  18  19
ENDBRANCH   2  18
TORSDOF 7
ENDMDL
MODEL 4
REMARK VINA RESULT:      -8.3      2.805      7.499
REMARK  Name = 
REMARK  7 active torsions:
REMARK  status: ('A' for Active; 'I' for Inactive)
REMARK    1  A    between atoms: C_2  and  C_3
REMARK    2  A    between atoms: C_3  and  C_4
REMARK    3  A    between atoms: C_4  and  C_5
REMARK    4  A    between atoms: C_7  and  C_8
REMARK    5  A    between atoms: N_17  and  C_18
REMARK    6  A    between atoms: C_22  and  C_23
REMARK    7  A    between atoms: N_25  and  C_26
REMARK                            x       y       z     vdW  Elec       q    Type
REMARK                         _______ _______ _______ _____ _____    ______ ____
ROOT
ATOM      1  O   UNL     1       0.750   4.531  20.185  0.00  0.00    +0.000 OA
ATOM      2  C   UNL     1       1.828   4.711  20.746  0.00  0.00    +0.000 C 
ATOM      3  N   UNL     1       2.746   5.708  20.458  0.00  0.00    +0.000 N 
ATOM      4  H   UNL     1       3.687   5.585  20.815  0.00  0.00    +0.000 HD
ENDROOT
BRANCH   3   5
ATOM      5  C   UNL     1       2.542   6.805  19.585  0.00  0.00    +0.000 A 
ATOM      6  C   UNL     1       3.131   6.876  18.319  0.00  0.00    +0.000 A 
ATOM      7  C   UNL     1       2.872   7.951  17.468  0.00  0.00    +0.000 A 
ATOM      8  C   UNL     1       2.031   8.981  17.878  0.00  0.00    +0.000 A 
ATOM      9  C   UNL     1       1.453   8.943  19.152  0.00  0.00    +0.000 A 
ATOM     10  C   UNL     1       1.688   7.840  19.993  0.00  0.00    +0.000 A 
BRANCH   9  11
ATOM     11  C   UNL     1       0.562  10.047  19.626  0.00  0.00    +0.000 C 
ATOM     12  O   UNL     1       0.408  11.044  18.933  0.00  0.00    +0.000 OA
ATOM     13  N   UNL     1      -0.050   9.839  20.850  0.00  0.00    +0.000 N 
ATOM     14  H   UNL     1       0.025   8.934  21.296  0.00  0.00    +0.000 HD
BRANCH  13  15
ATOM     15  C   UNL     1      -0.905  10.804  21.466  0.00  0.00    +0.000 C 
ATOM     16  C   UNL     1      -1.060  10.865  22.959  0.00  0.00    +0.000 C 
ATOM     17  C   UNL     1      -0.311  11.949  22.243  0.00  0.00    +0.000 C 
ENDBRANCH  13  15
ENDBRANCH   9  11
ENDBRANCH   3   5
BRANCH   2  18
ATOM     18  C   UNL     1       2.258   3.774  21.860  0.00  0.00    +0.000 C 
BRANCH  18  19
ATOM     19  C   UNL     1       2.710   2.433  21.286  0.00  0.00    +0.000 C 
BRANCH  19  20
ATOM     20  C   UNL     1       3.180   2.591  19.892  0.00  0.00    +0.000 A 
ATOM     21  N   UNL     1       4.224   3.249  19.449  0.00  0.00    +0.000 NA
ATOM     22  C   UNL     1       4.105   3.110  18.084  0.00  0.00    +0.000 A 
ATOM     23  N   UNL     1       3.049   2.373  17.701  0.00  0.00    +0.000 NA
ATOM     24  O   UNL     1       2.431   2.030  18.904  0.00  0.00    +0.000 OA
BRANCH  22  25
ATOM     25  C   UNL     1       5.046   3.746  17.170  0.00  0.00    +0.000 A 
ATOM     26  C   UNL     1       6.192   4.383  17.678  0.00  0.00    +0.000 A 
ATOM     27  C   UNL     1       7.093   5.014  16.819  0.00  0.00    +0.000 A 
ATOM     28  C   UNL     1       6.851   5.007  15.452  0.00  0.00    +0.000 A 
ATOM     29  F   UNL     1       7.715   5.612  14.628  0.00  0.00    +0.000 F 
ATOM     30  C   UNL     1       5.726   4.381  14.926  0.00  0.00    +0.000 A 
ATOM     31  C   UNL     1       4.822   3.750  15.785  0.00  0.00    +0.000 A 
ENDBRANCH  22  25
ENDBRANCH  19  20
ENDBRANCH  18  19
ENDBRANCH   2  18
TORSDOF 7
ENDMDL
MODEL 5
REMARK VINA RESULT:      -8.3      3.121      8.347
REMARK  Name = 
REMARK  7 active torsions:
REMARK  status: ('A' for Active; 'I' for Inactive)
REMARK    1  A    between atoms: C_2  and  C_3
REMARK    2  A    between atoms: C_3  and  C_4
REMARK    3  A    between atoms: C_4  and  C_5
REMARK    4  A    between atoms: C_7  and  C_8
REMARK    5  A    between atoms: N_17  and  C_18
REMARK    6  A    between atoms: C_22  and  C_23
REMARK    7  A    between atoms: N_25  and  C_26
REMARK                            x       y       z     vdW  Elec       q    Type
REMARK                         _______ _______ _______ _____ _____    ______ ____
ROOT
ATOM      1  O   UNL     1       0.607   4.542  20.225  0.00  0.00    +0.000 OA
ATOM      2  C   UNL     1       1.771   4.680  20.591  0.00  0.00    +0.000 C 
ATOM      3  N   UNL     1       2.519   5.844  20.525  0.00  0.00    +0.000 N 
ATOM      4  H   UNL     1       3.525   5.752  20.621  0.00  0.00    +0.000 HD
ENDROOT
BRANCH   3   5
ATOM      5  C   UNL     1       2.035   7.131  20.182  0.00  0.00    +0.000 A 
ATOM      6  C   UNL     1       2.058   7.616  18.872  0.00  0.00    +0.000 A 
ATOM      7  C   UNL     1       1.531   8.871  18.564  0.00  0.00    +0.000 A 
ATOM      8  C   UNL     1       0.986   9.667  19.567  0.00  0.00    +0.000 A 
ATOM      9  C   UNL     1       0.978   9.211  20.890  0.00  0.00    +0.000 A 
ATOM     10  C   UNL     1       1.478   7.930  21.191  0.00  0.00    +0.000 A 
BRANCH   9  11
ATOM     11  C   UNL     1       0.418  10.054  21.991  0.00  0.00    +0.000 C 
ATOM     12  O   UNL     1       0.532   9.690  23.154  0.00  0.00    +0.000 OA
ATOM     13  N   UNL     1      -0.195  11.229  21.593  0.00  0.00    +0.000 N 
ATOM     14  H   UNL     1      -0.131  11.521  20.626  0.00  0.00    +0.000 HD
BRANCH  13  15
ATOM     15  C   UNL     1      -0.813  12.135  22.510  0.00  0.00    +0.000 C 
ATOM     16  C   UNL     1      -1.726  13.226  22.029  0.00  0.00    +0.000 C 
ATOM     17  C   UNL     1      -2.294  12.051  22.768  0.00  0.00    +0.000 C 
ENDBRANCH  13  15
ENDBRANCH   9  11
ENDBRANCH   3   5
BRANCH   2  18
ATOM     18  C   UNL     1       2.521   3.493  21.169  0.00  0.00    +0.000 C 
BRANCH  18  19
ATOM     19  C   UNL     1       3.003   2.570  20.051  0.00  0.00    +0.000 C 
BRANCH  19  20
ATOM     20  C   UNL     1       4.054   3.230  19.245  0.00  0.00    +0.000 A 
ATOM     21  N   UNL     1       4.135   3.346  17.941  0.00  0.00    +0.000 NA
ATOM     22  C   UNL     1       5.350   3.973  17.775  0.00  0.00    +0.000 A 
ATOM     23  N   UNL     1       5.979   4.259  18.927  0.00  0.00    +0.000 NA
ATOM     24  O   UNL     1       5.118   3.761  19.906  0.00  0.00    +0.000 OA
BRANCH  22  25
ATOM     25  C   UNL     1       5.882   4.258  16.448  0.00  0.00    +0.000 A 
ATOM     26  C   UNL     1       5.121   3.947  15.307  0.00  0.00    +0.000 A 
ATOM     27  C   UNL     1       5.623   4.195  14.029  0.00  0.00    +0.000 A 
ATOM     28  C   UNL     1       6.886   4.756  13.889  0.00  0.00    +0.000 A 
ATOM     29  F   UNL     1       7.369   4.993  12.664  0.00  0.00    +0.000 F 
ATOM     30  C   UNL     1       7.656   5.075  15.002  0.00  0.00    +0.000 A 
ATOM     31  C   UNL     1       7.155   4.826  16.283  0.00  0.00    +0.000 A 
ENDBRANCH  22  25
ENDBRANCH  19  20
ENDBRANCH  18  19
ENDBRANCH   2  18
TORSDOF 7
ENDMDL
MODEL 6
REMARK VINA RESULT:      -8.2      3.402      8.758
REMARK  Name = 
REMARK  7 active torsions:
REMARK  status: ('A' for Active; 'I' for Inactive)
REMARK    1  A    between atoms: C_2  and  C_3
REMARK    2  A    between atoms: C_3  and  C_4
REMARK    3  A    between atoms: C_4  and  C_5
REMARK    4  A    between atoms: C_7  and  C_8
REMARK    5  A    between atoms: N_17  and  C_18
REMARK    6  A    between atoms: C_22  and  C_23
REMARK    7  A    between atoms: N_25  and  C_26
REMARK                            x       y       z     vdW  Elec       q    Type
REMARK                         _______ _______ _______ _____ _____    ______ ____
ROOT
ATOM      1  O   UNL     1       1.653   4.891  17.871  0.00  0.00    +0.000 OA
ATOM      2  C   UNL     1       2.617   5.033  18.618  0.00  0.00    +0.000 C 
ATOM      3  N   UNL     1       3.030   6.217  19.208  0.00  0.00    +0.000 N 
ATOM      4  H   UNL     1       3.971   6.240  19.586  0.00  0.00    +0.000 HD
ENDROOT
BRANCH   3   5
ATOM      5  C   UNL     1       2.326   7.446  19.196  0.00  0.00    +0.000 A 
ATOM      6  C   UNL     1       2.117   8.181  18.026  0.00  0.00    +0.000 A 
ATOM      7  C   UNL     1       1.381   9.366  18.045  0.00  0.00    +0.000 A 
ATOM      8  C   UNL     1       0.855   9.843  19.242  0.00  0.00    +0.000 A 
ATOM      9  C   UNL     1       1.076   9.137  20.431  0.00  0.00    +0.000 A 
ATOM     10  C   UNL     1       1.789   7.924  20.401  0.00  0.00    +0.000 A 
BRANCH   9  11
ATOM     11  C   UNL     1       0.541   9.638  21.734  0.00  0.00    +0.000 C 
ATOM     12  O   UNL     1       0.900   9.116  22.781  0.00  0.00    +0.000 OA
ATOM     13  N   UNL     1      -0.342  10.702  21.650  0.00  0.00    +0.000 N 
ATOM     14  H   UNL     1      -0.485  11.160  20.759  0.00  0.00    +0.000 HD
BRANCH  13  15
ATOM     15  C   UNL     1      -0.973  11.282  22.794  0.00  0.00    +0.000 C 
ATOM     16  C   UNL     1      -1.103  12.771  22.939  0.00  0.00    +0.000 C 
ATOM     17  C   UNL     1      -2.320  11.942  22.655  0.00  0.00    +0.000 C 
ENDBRANCH  13  15
ENDBRANCH   9  11
ENDBRANCH   3   5
BRANCH   2  18
ATOM     18  C   UNL     1       3.486   3.835  18.956  0.00  0.00    +0.000 C 
BRANCH  18  19
ATOM     19  C   UNL     1       4.874   4.291  19.403  0.00  0.00    +0.000 C 
BRANCH  19  20
ATOM     20  C   UNL     1       5.777   4.436  18.240  0.00  0.00    +0.000 A 
ATOM     21  N   UNL     1       5.473   4.470  16.965  0.00  0.00    +0.000 NA
ATOM     22  C   UNL     1       6.711   4.537  16.367  0.00  0.00    +0.000 A 
ATOM     23  N   UNL     1       7.736   4.575  17.235  0.00  0.00    +0.000 NA
ATOM     24  O   UNL     1       7.114   4.503  18.483  0.00  0.00    +0.000 OA
BRANCH  22  25
ATOM     25  C   UNL     1       6.855   4.539  14.916  0.00  0.00    +0.000 A 
ATOM     26  C   UNL     1       6.027   3.718  14.130  0.00  0.00    +0.000 A 
ATOM     27  C   UNL     1       6.164   3.691  12.742  0.00  0.00    +0.000 A 
ATOM     28  C   UNL     1       7.128   4.487  12.137  0.00  0.00    +0.000 A 
ATOM     29  F   UNL     1       7.260   4.462  10.805  0.00  0.00    +0.000 F 
ATOM     30  C   UNL     1       7.957   5.309  12.892  0.00  0.00    +0.000 A 
ATOM     31  C   UNL     1       7.821   5.336  14.283  0.00  0.00    +0.000 A 
ENDBRANCH  22  25
ENDBRANCH  19  20
ENDBRANCH  18  19
ENDBRANCH   2  18
TORSDOF 7
ENDMDL
MODEL 7
REMARK VINA RESULT:      -8.2      2.938      7.828
REMARK  Name = 
REMARK  7 active torsions:
REMARK  status: ('A' for Active; 'I' for Inactive)
REMARK    1  A    between atoms: C_2  and  C_3
REMARK    2  A    between atoms: C_3  and  C_4
REMARK    3  A    between atoms: C_4  and  C_5
REMARK    4  A    between atoms: C_7  and  C_8
REMARK    5  A    between atoms: N_17  and  C_18
REMARK    6  A    between atoms: C_22  and  C_23
REMARK    7  A    between atoms: N_25  and  C_26
REMARK                            x       y       z     vdW  Elec       q    Type
REMARK                         _______ _______ _______ _____ _____    ______ ____
ROOT
ATOM      1  O   UNL     1       0.595   4.750  20.391  0.00  0.00    +0.000 OA
ATOM      2  C   UNL     1       1.758   4.895  20.758  0.00  0.00    +0.000 C 
ATOM      3  N   UNL     1       2.592   5.955  20.442  0.00  0.00    +0.000 N 
ATOM      4  H   UNL     1       3.586   5.823  20.595  0.00  0.00    +0.000 HD
ENDROOT
BRANCH   3   5
ATOM      5  C   UNL     1       2.212   7.149  19.779  0.00  0.00    +0.000 A 
ATOM      6  C   UNL     1       2.462   7.366  18.422  0.00  0.00    +0.000 A 
ATOM      7  C   UNL     1       2.034   8.535  17.792  0.00  0.00    +0.000 A 
ATOM      8  C   UNL     1       1.361   9.514  18.517  0.00  0.00    +0.000 A 
ATOM      9  C   UNL     1       1.124   9.329  19.884  0.00  0.00    +0.000 A 
ATOM     10  C   UNL     1       1.527   8.132  20.507  0.00  0.00    +0.000 A 
BRANCH   9  11
ATOM     11  C   UNL     1       0.423  10.373  20.692  0.00  0.00    +0.000 C 
ATOM     12  O   UNL     1      -0.447  10.044  21.488  0.00  0.00    +0.000 OA
ATOM     13  N   UNL     1       0.838  11.676  20.478  0.00  0.00    +0.000 N 
ATOM     14  H   UNL     1       1.651  11.850  19.901  0.00  0.00    +0.000 HD
BRANCH  13  15
ATOM     15  C   UNL     1       0.252  12.799  21.139  0.00  0.00    +0.000 C 
ATOM     16  C   UNL     1       1.057  14.031  21.441  0.00  0.00    +0.000 C 
ATOM     17  C   UNL     1       0.001  14.074  20.378  0.00  0.00    +0.000 C 
ENDBRANCH  13  15
ENDBRANCH   9  11
ENDBRANCH   3   5
BRANCH   2  18
ATOM     18  C   UNL     1       2.405   3.837  21.634  0.00  0.00    +0.000 C 
BRANCH  18  19
ATOM     19  C   UNL     1       2.454   2.496  20.904  0.00  0.00    +0.000 C 
BRANCH  19  20
ATOM     20  C   UNL     1       2.974   2.667  19.530  0.00  0.00    +0.000 A 
ATOM     21  N   UNL     1       4.071   3.269  19.137  0.00  0.00    +0.000 NA
ATOM     22  C   UNL     1       3.983   3.180  17.765  0.00  0.00    +0.000 A 
ATOM     23  N   UNL     1       2.894   2.525  17.329  0.00  0.00    +0.000 NA
ATOM     24  O   UNL     1       2.220   2.186  18.504  0.00  0.00    +0.000 OA
BRANCH  22  25
ATOM     25  C   UNL     1       4.989   3.782  16.899  0.00  0.00    +0.000 A 
ATOM     26  C   UNL     1       4.764   3.856  15.512  0.00  0.00    +0.000 A 
ATOM     27  C   UNL     1       5.725   4.411  14.666  0.00  0.00    +0.000 A 
ATOM     28  C   UNL     1       6.911   4.894  15.203  0.00  0.00    +0.000 A 
ATOM     29  F   UNL     1       7.832   5.426  14.392  0.00  0.00    +0.000 F 
ATOM     30  C   UNL     1       7.155   4.835  16.571  0.00  0.00    +0.000 A 
ATOM     31  C   UNL     1       6.194   4.278  17.420  0.00  0.00    +0.000 A 
ENDBRANCH  22  25
ENDBRANCH  19  20
ENDBRANCH  18  19
ENDBRANCH   2  18
TORSDOF 7
ENDMDL
MODEL 8
REMARK VINA RESULT:      -8.1      3.391      4.500
REMARK  Name = 
REMARK  7 active torsions:
REMARK  status: ('A' for Active; 'I' for Inactive)
REMARK    1  A    between atoms: C_2  and  C_3
REMARK    2  A    between atoms: C_3  and  C_4
REMARK    3  A    between atoms: C_4  and  C_5
REMARK    4  A    between atoms: C_7  and  C_8
REMARK    5  A    between atoms: N_17  and  C_18
REMARK    6  A    between atoms: C_22  and  C_23
REMARK    7  A    between atoms: N_25  and  C_26
REMARK                            x       y       z     vdW  Elec       q    Type
REMARK                         _______ _______ _______ _____ _____    ______ ____
ROOT
ATOM      1  O   UNL     1       3.041   5.151  19.117  0.00  0.00    +0.000 OA
ATOM      2  C   UNL     1       3.087   6.238  18.547  0.00  0.00    +0.000 C 
ATOM      3  N   UNL     1       4.140   6.722  17.789  0.00  0.00    +0.000 N 
ATOM      4  H   UNL     1       4.150   7.718  17.595  0.00  0.00    +0.000 HD
ENDROOT
BRANCH   3   5
ATOM      5  C   UNL     1       5.288   5.993  17.390  0.00  0.00    +0.000 A 
ATOM      6  C   UNL     1       6.220   5.500  18.307  0.00  0.00    +0.000 A 
ATOM      7  C   UNL     1       7.315   4.748  17.881  0.00  0.00    +0.000 A 
ATOM      8  C   UNL     1       7.503   4.490  16.527  0.00  0.00    +0.000 A 
ATOM      9  C   UNL     1       6.596   4.997  15.589  0.00  0.00    +0.000 A 
ATOM     10  C   UNL     1       5.474   5.726  16.026  0.00  0.00    +0.000 A 
BRANCH   9  11
ATOM     11  C   UNL     1       6.785   4.754  14.126  0.00  0.00    +0.000 C 
ATOM     12  O   UNL     1       7.597   5.420  13.498  0.00  0.00    +0.000 OA
ATOM     13  N   UNL     1       6.007   3.746  13.581  0.00  0.00    +0.000 N 
ATOM     14  H   UNL     1       5.458   3.156  14.192  0.00  0.00    +0.000 HD
BRANCH  13  15
ATOM     15  C   UNL     1       6.036   3.404  12.193  0.00  0.00    +0.000 C 
ATOM     16  C   UNL     1       5.737   2.007  11.731  0.00  0.00    +0.000 C 
ATOM     17  C   UNL     1       4.752   3.106  11.465  0.00  0.00    +0.000 C 
ENDBRANCH  13  15
ENDBRANCH   9  11
ENDBRANCH   3   5
BRANCH   2  18
ATOM     18  C   UNL     1       1.911   7.192  18.656  0.00  0.00    +0.000 C 
BRANCH  18  19
ATOM     19  C   UNL     1       2.140   8.424  17.785  0.00  0.00    +0.000 C 
BRANCH  19  20
ATOM     20  C   UNL     1       1.783   9.659  18.519  0.00  0.00    +0.000 A 
ATOM     21  N   UNL     1       1.078   9.784  19.617  0.00  0.00    +0.000 NA
ATOM     22  C   UNL     1       1.014  11.151  19.774  0.00  0.00    +0.000 A 
ATOM     23  N   UNL     1       1.677  11.840  18.830  0.00  0.00    +0.000 NA
ATOM     24  O   UNL     1       2.186  10.847  17.992  0.00  0.00    +0.000 OA
BRANCH  22  25
ATOM     25  C   UNL     1       0.260  11.756  20.865  0.00  0.00    +0.000 A 
ATOM     26  C   UNL     1      -0.389  10.937  21.806  0.00  0.00    +0.000 A 
ATOM     27  C   UNL     1      -1.132  11.499  22.845  0.00  0.00    +0.000 A 
ATOM     28  C   UNL     1      -1.224  12.881  22.947  0.00  0.00    +0.000 A 
ATOM     29  F   UNL     1      -1.936  13.421  23.943  0.00  0.00    +0.000 F 
ATOM     30  C   UNL     1      -0.589  13.712  22.030  0.00  0.00    +0.000 A 
ATOM     31  C   UNL     1       0.154  13.150  20.988  0.00  0.00    +0.000 A 
ENDBRANCH  22  25
ENDBRANCH  19  20
ENDBRANCH  18  19
ENDBRANCH   2  18
TORSDOF 7
ENDMDL
MODEL 9
REMARK VINA RESULT:      -8.1      6.321      8.339
REMARK  Name = 
REMARK  7 active torsions:
REMARK  status: ('A' for Active; 'I' for Inactive)
REMARK    1  A    between atoms: C_2  and  C_3
REMARK    2  A    between atoms: C_3  and  C_4
REMARK    3  A    between atoms: C_4  and  C_5
REMARK    4  A    between atoms: C_7  and  C_8
REMARK    5  A    between atoms: N_17  and  C_18
REMARK    6  A    between atoms: C_22  and  C_23
REMARK    7  A    between atoms: N_25  and  C_26
REMARK                            x       y       z     vdW  Elec       q    Type
REMARK                         _______ _______ _______ _____ _____    ______ ____
ROOT
ATOM      1  O   UNL     1       7.641   5.967  19.271  0.00  0.00    +0.000 OA
ATOM      2  C   UNL     1       7.853   6.797  18.391  0.00  0.00    +0.000 C 
ATOM      3  N   UNL     1       7.481   6.694  17.060  0.00  0.00    +0.000 N 
ATOM      4  H   UNL     1       7.937   7.318  16.404  0.00  0.00    +0.000 HD
ENDROOT
BRANCH   3   5
ATOM      5  C   UNL     1       6.641   5.699  16.502  0.00  0.00    +0.000 A 
ATOM      6  C   UNL     1       6.990   4.978  15.357  0.00  0.00    +0.000 A 
ATOM      7  C   UNL     1       6.159   3.973  14.861  0.00  0.00    +0.000 A 
ATOM      8  C   UNL     1       4.954   3.685  15.495  0.00  0.00    +0.000 A 
ATOM      9  C   UNL     1       4.572   4.414  16.628  0.00  0.00    +0.000 A 
ATOM     10  C   UNL     1       5.431   5.402  17.145  0.00  0.00    +0.000 A 
BRANCH   9  11
ATOM     11  C   UNL     1       3.274   4.140  17.317  0.00  0.00    +0.000 C 
ATOM     12  O   UNL     1       2.480   3.348  16.827  0.00  0.00    +0.000 OA
ATOM     13  N   UNL     1       3.072   4.818  18.507  0.00  0.00    +0.000 N 
ATOM     14  H   UNL     1       3.832   5.352  18.910  0.00  0.00    +0.000 HD
BRANCH  13  15
ATOM     15  C   UNL     1       1.874   4.700  19.278  0.00  0.00    +0.000 C 
ATOM     16  C   UNL     1       1.725   3.635  20.326  0.00  0.00    +0.000 C 
ATOM     17  C   UNL     1       1.879   5.068  20.739  0.00  0.00    +0.000 C 
ENDBRANCH  13  15
ENDBRANCH   9  11
ENDBRANCH   3   5
BRANCH   2  18
ATOM     18  C   UNL     1       8.605   8.072  18.728  0.00  0.00    +0.000 C 
BRANCH  18  19
ATOM     19  C   UNL     1       8.064   9.243  17.911  0.00  0.00    +0.000 C 
BRANCH  19  20
ATOM     20  C   UNL     1       8.747  10.502  18.285  0.00  0.00    +0.000 A 
ATOM     21  N   UNL     1       8.758  11.648  17.649  0.00  0.00    +0.000 NA
ATOM     22  C   UNL     1       9.611  12.406  18.419  0.00  0.00    +0.000 A 
ATOM     23  N   UNL     1      10.084  11.766  19.501  0.00  0.00    +0.000 NA
ATOM     24  O   UNL     1       9.512  10.496  19.411  0.00  0.00    +0.000 OA
BRANCH  22  25
ATOM     25  C   UNL     1       9.966  13.769  18.043  0.00  0.00    +0.000 A 
ATOM     26  C   UNL     1      11.033  13.995  17.154  0.00  0.00    +0.000 A 
ATOM     27  C   UNL     1      11.398  15.293  16.799  0.00  0.00    +0.000 A 
ATOM     28  C   UNL     1      10.698  16.369  17.330  0.00  0.00    +0.000 A 
ATOM     29  F   UNL     1      11.049  17.615  16.990  0.00  0.00    +0.000 F 
ATOM     30  C   UNL     1       9.638  16.171  18.208  0.00  0.00    +0.000 A 
ATOM     31  C   UNL     1       9.272  14.871  18.566  0.00  0.00    +0.000 A 
ENDBRANCH  22  25
ENDBRANCH  19  20
ENDBRANCH  18  19
ENDBRANCH   2  18
TORSDOF 7
ENDMDL
