MODEL 1
REMARK VINA RESULT:      -7.2      0.000      0.000
REMARK  Name = 
REMARK  2 active torsions:
REMARK  status: ('A' for Active; 'I' for Inactive)
REMARK    1  A    between atoms: C_1  and  N_2
REMARK    2  A    between atoms: C_4  and  C_5
REMARK                            x       y       z     vdW  Elec       q    Type
REMARK                         _______ _______ _______ _____ _____    ______ ____
ROOT
ATOM      1  C   UNL     1       2.859   6.253  19.403  0.00  0.00    +0.000 C 
ATOM      2  O   UNL     1       2.629   5.610  20.424  0.00  0.00    +0.000 OA
ATOM      3  N   UNL     1       2.322   7.497  19.084  0.00  0.00    +0.000 N 
ATOM      4  C   UNL     1       2.442   8.216  17.800  0.00  0.00    +0.000 C 
ATOM      5  C   UNL     1       1.803   9.597  17.968  0.00  0.00    +0.000 C 
ATOM      6  C   UNL     1       1.189   9.489  19.322  0.00  0.00    +0.000 A 
ATOM      7  C   UNL     1       0.440  10.461  19.972  0.00  0.00    +0.000 A 
ATOM      8  C   UNL     1       0.005  10.201  21.268  0.00  0.00    +0.000 A 
ATOM      9  C   UNL     1       0.320   8.984  21.891  0.00  0.00    +0.000 A 
ATOM     10  C   UNL     1       1.081   8.013  21.227  0.00  0.00    +0.000 A 
ATOM     11  C   UNL     1       1.515   8.278  19.940  0.00  0.00    +0.000 A 
ENDROOT
BRANCH   1  15
ATOM     12  C   UNL     1       7.318   5.961  17.619  0.00  0.00    +0.000 C 
ATOM     13  N   UNL     1       5.969   5.426  17.553  0.00  0.00    +0.000 N 
ATOM     14  N   UNL     1       5.078   5.967  18.423  0.00  0.00    +0.000 NA
ATOM     15  C   UNL     1       3.838   5.604  18.413  0.00  0.00    +0.000 C 
ATOM     16  C   UNL     1       3.273   4.555  17.501  0.00  0.00    +0.000 C 
ATOM     17  C   UNL     1       4.304   3.842  16.657  0.00  0.00    +0.000 C 
ATOM     18  C   UNL     1       5.702   4.400  16.669  0.00  0.00    +0.000 C 
ATOM     19  O   UNL     1       6.559   3.917  15.923  0.00  0.00    +0.000 OA
ENDBRANCH   1  15
TORSDOF 1
ENDMDL
MODEL 2
REMARK VINA RESULT:      -7.0      1.100      1.649
REMARK  Name = 
REMARK  2 active torsions:
REMARK  status: ('A' for Active; 'I' for Inactive)
REMARK    1  A    between atoms: C_1  and  N_2
REMARK    2  A    between atoms: C_4  and  C_5
REMARK                            x       y       z     vdW  Elec       q    Type
REMARK                         _______ _______ _______ _____ _____    ______ ____
ROOT
ATOM      1  C   UNL     1       3.541   5.978  19.322  0.00  0.00    +0.000 C 
ATOM      2  O   UNL     1       3.248   5.258  20.273  0.00  0.00    +0.000 OA
ATOM      3  N   UNL     1       2.891   7.155  18.962  0.00  0.00    +0.000 N 
ATOM      4  C   UNL     1       3.106   7.951  17.736  0.00  0.00    +0.000 C 
ATOM      5  C   UNL     1       2.262   9.223  17.843  0.00  0.00    +0.000 C 
ATOM      6  C   UNL     1       1.469   8.963  19.078  0.00  0.00    +0.000 A 
ATOM      7  C   UNL     1       0.501   9.791  19.630  0.00  0.00    +0.000 A 
ATOM      8  C   UNL     1      -0.089   9.408  20.831  0.00  0.00    +0.000 A 
ATOM      9  C   UNL     1       0.293   8.212  21.458  0.00  0.00    +0.000 A 
ATOM     10  C   UNL     1       1.275   7.388  20.893  0.00  0.00    +0.000 A 
ATOM     11  C   UNL     1       1.861   7.776  19.701  0.00  0.00    +0.000 A 
ENDROOT
BRANCH   1  15
ATOM     12  C   UNL     1       5.255   4.416  15.107  0.00  0.00    +0.000 C 
ATOM     13  N   UNL     1       5.595   4.790  16.468  0.00  0.00    +0.000 N 
ATOM     14  N   UNL     1       4.561   5.214  17.239  0.00  0.00    +0.000 NA
ATOM     15  C   UNL     1       4.741   5.519  18.482  0.00  0.00    +0.000 C 
ATOM     16  C   UNL     1       6.071   5.480  19.175  0.00  0.00    +0.000 C 
ATOM     17  C   UNL     1       7.239   5.171  18.268  0.00  0.00    +0.000 C 
ATOM     18  C   UNL     1       6.918   4.737  16.863  0.00  0.00    +0.000 C 
ATOM     19  O   UNL     1       7.827   4.379  16.110  0.00  0.00    +0.000 OA
ENDBRANCH   1  15
TORSDOF 1
ENDMDL
MODEL 3
REMARK VINA RESULT:      -6.8      3.572      4.877
REMARK  Name = 
REMARK  2 active torsions:
REMARK  status: ('A' for Active; 'I' for Inactive)
REMARK    1  A    between atoms: C_1  and  N_2
REMARK    2  A    between atoms: C_4  and  C_5
REMARK                            x       y       z     vdW  Elec       q    Type
REMARK                         _______ _______ _______ _____ _____    ______ ____
ROOT
ATOM      1  C   UNL     1       3.921   5.170  17.757  0.00  0.00    +0.000 C 
ATOM      2  O   UNL     1       3.032   6.003  17.597  0.00  0.00    +0.000 OA
ATOM      3  N   UNL     1       3.945   4.180  18.734  0.00  0.00    +0.000 N 
ATOM      4  C   UNL     1       5.068   3.277  19.060  0.00  0.00    +0.000 C 
ATOM      5  C   UNL     1       4.581   2.275  20.110  0.00  0.00    +0.000 C 
ATOM      6  C   UNL     1       3.231   2.812  20.445  0.00  0.00    +0.000 A 
ATOM      7  C   UNL     1       2.346   2.299  21.383  0.00  0.00    +0.000 A 
ATOM      8  C   UNL     1       1.096   2.900  21.508  0.00  0.00    +0.000 A 
ATOM      9  C   UNL     1       0.753   3.995  20.702  0.00  0.00    +0.000 A 
ATOM     10  C   UNL     1       1.652   4.499  19.754  0.00  0.00    +0.000 A 
ATOM     11  C   UNL     1       2.892   3.896  19.631  0.00  0.00    +0.000 A 
ENDROOT
BRANCH   1  15
ATOM     12  C   UNL     1       5.890   3.781  13.592  0.00  0.00    +0.000 C 
ATOM     13  N   UNL     1       6.052   4.618  14.768  0.00  0.00    +0.000 N 
ATOM     14  N   UNL     1       5.029   4.585  15.661  0.00  0.00    +0.000 NA
ATOM     15  C   UNL     1       5.093   5.248  16.767  0.00  0.00    +0.000 C 
ATOM     16  C   UNL     1       6.243   6.130  17.157  0.00  0.00    +0.000 C 
ATOM     17  C   UNL     1       7.296   6.293  16.085  0.00  0.00    +0.000 C 
ATOM     18  C   UNL     1       7.181   5.407  14.874  0.00  0.00    +0.000 C 
ATOM     19  O   UNL     1       8.066   5.428  14.015  0.00  0.00    +0.000 OA
ENDBRANCH   1  15
TORSDOF 1
ENDMDL
MODEL 4
REMARK VINA RESULT:      -6.8      4.278      4.777
REMARK  Name = 
REMARK  2 active torsions:
REMARK  status: ('A' for Active; 'I' for Inactive)
REMARK    1  A    between atoms: C_1  and  N_2
REMARK    2  A    between atoms: C_4  and  C_5
REMARK                            x       y       z     vdW  Elec       q    Type
REMARK                         _______ _______ _______ _____ _____    ______ ____
ROOT
ATOM      1  C   UNL     1       5.170   3.883  18.316  0.00  0.00    +0.000 C 
ATOM      2  O   UNL     1       5.895   3.636  19.276  0.00  0.00    +0.000 OA
ATOM      3  N   UNL     1       3.784   3.758  18.287  0.00  0.00    +0.000 N 
ATOM      4  C   UNL     1       2.903   3.882  17.109  0.00  0.00    +0.000 C 
ATOM      5  C   UNL     1       1.453   3.799  17.590  0.00  0.00    +0.000 C 
ATOM      6  C   UNL     1       1.625   3.442  19.027  0.00  0.00    +0.000 A 
ATOM      7  C   UNL     1       0.615   3.205  19.949  0.00  0.00    +0.000 A 
ATOM      8  C   UNL     1       0.973   2.950  21.269  0.00  0.00    +0.000 A 
ATOM      9  C   UNL     1       2.324   2.935  21.647  0.00  0.00    +0.000 A 
ATOM     10  C   UNL     1       3.334   3.181  20.709  0.00  0.00    +0.000 A 
ATOM     11  C   UNL     1       2.973   3.438  19.398  0.00  0.00    +0.000 A 
ENDROOT
BRANCH   1  15
ATOM     12  C   UNL     1       5.986   3.420  13.596  0.00  0.00    +0.000 C 
ATOM     13  N   UNL     1       6.279   4.199  14.787  0.00  0.00    +0.000 N 
ATOM     14  N   UNL     1       5.654   3.795  15.924  0.00  0.00    +0.000 NA
ATOM     15  C   UNL     1       5.885   4.381  17.051  0.00  0.00    +0.000 C 
ATOM     16  C   UNL     1       6.802   5.558  17.218  0.00  0.00    +0.000 C 
ATOM     17  C   UNL     1       7.359   6.103  15.924  0.00  0.00    +0.000 C 
ATOM     18  C   UNL     1       7.111   5.295  14.679  0.00  0.00    +0.000 C 
ATOM     19  O   UNL     1       7.625   5.642  13.612  0.00  0.00    +0.000 OA
ENDBRANCH   1  15
TORSDOF 1
ENDMDL
MODEL 5
REMARK VINA RESULT:      -6.8      3.130      4.543
REMARK  Name = 
REMARK  2 active torsions:
REMARK  status: ('A' for Active; 'I' for Inactive)
REMARK    1  A    between atoms: C_1  and  N_2
REMARK    2  A    between atoms: C_4  and  C_5
REMARK                            x       y       z     vdW  Elec       q    Type
REMARK                         _______ _______ _______ _____ _____    ______ ____
ROOT
ATOM      1  C   UNL     1       4.474   3.375  17.192  0.00  0.00    +0.000 C 
ATOM      2  O   UNL     1       4.433   2.148  17.235  0.00  0.00    +0.000 OA
ATOM      3  N   UNL     1       3.689   4.243  17.945  0.00  0.00    +0.000 N 
ATOM      4  C   UNL     1       3.592   5.710  17.799  0.00  0.00    +0.000 C 
ATOM      5  C   UNL     1       2.708   6.242  18.930  0.00  0.00    +0.000 C 
ATOM      6  C   UNL     1       2.208   4.981  19.548  0.00  0.00    +0.000 A 
ATOM      7  C   UNL     1       1.325   4.876  20.614  0.00  0.00    +0.000 A 
ATOM      8  C   UNL     1       1.025   3.606  21.099  0.00  0.00    +0.000 A 
ATOM      9  C   UNL     1       1.605   2.470  20.516  0.00  0.00    +0.000 A 
ATOM     10  C   UNL     1       2.499   2.590  19.444  0.00  0.00    +0.000 A 
ATOM     11  C   UNL     1       2.797   3.855  18.969  0.00  0.00    +0.000 A 
ENDROOT
BRANCH   1  15
ATOM     12  C   UNL     1       6.217   3.671  12.717  0.00  0.00    +0.000 C 
ATOM     13  N   UNL     1       6.343   4.155  14.082  0.00  0.00    +0.000 N 
ATOM     14  N   UNL     1       5.444   3.655  14.969  0.00  0.00    +0.000 NA
ATOM     15  C   UNL     1       5.499   3.975  16.219  0.00  0.00    +0.000 C 
ATOM     16  C   UNL     1       6.499   4.930  16.803  0.00  0.00    +0.000 C 
ATOM     17  C   UNL     1       7.384   5.607  15.782  0.00  0.00    +0.000 C 
ATOM     18  C   UNL     1       7.310   5.098  14.368  0.00  0.00    +0.000 C 
ATOM     19  O   UNL     1       8.080   5.548  13.514  0.00  0.00    +0.000 OA
ENDBRANCH   1  15
TORSDOF 1
ENDMDL
MODEL 6
REMARK VINA RESULT:      -6.6      1.778      2.663
REMARK  Name = 
REMARK  2 active torsions:
REMARK  status: ('A' for Active; 'I' for Inactive)
REMARK    1  A    between atoms: C_1  and  N_2
REMARK    2  A    between atoms: C_4  and  C_5
REMARK                            x       y       z     vdW  Elec       q    Type
REMARK                         _______ _______ _______ _____ _____    ______ ____
ROOT
ATOM      1  C   UNL     1       2.307   7.904  18.290  0.00  0.00    +0.000 C 
ATOM      2  O   UNL     1       2.527   8.539  17.262  0.00  0.00    +0.000 OA
ATOM      3  N   UNL     1       1.674   8.392  19.429  0.00  0.00    +0.000 N 
ATOM      4  C   UNL     1       1.544   7.715  20.735  0.00  0.00    +0.000 C 
ATOM      5  C   UNL     1       0.657   8.581  21.633  0.00  0.00    +0.000 C 
ATOM      6  C   UNL     1       0.489   9.810  20.806  0.00  0.00    +0.000 A 
ATOM      7  C   UNL     1      -0.209  10.957  21.159  0.00  0.00    +0.000 A 
ATOM      8  C   UNL     1      -0.313  11.981  20.222  0.00  0.00    +0.000 A 
ATOM      9  C   UNL     1       0.280  11.847  18.958  0.00  0.00    +0.000 A 
ATOM     10  C   UNL     1       0.978  10.683  18.611  0.00  0.00    +0.000 A 
ATOM     11  C   UNL     1       1.074   9.665  19.545  0.00  0.00    +0.000 A 
ENDROOT
BRANCH   1  15
ATOM     12  C   UNL     1       5.859   4.719  18.917  0.00  0.00    +0.000 C 
ATOM     13  N   UNL     1       4.452   4.890  18.599  0.00  0.00    +0.000 N 
ATOM     14  N   UNL     1       3.997   6.170  18.606  0.00  0.00    +0.000 NA
ATOM     15  C   UNL     1       2.776   6.442  18.285  0.00  0.00    +0.000 C 
ATOM     16  C   UNL     1       1.750   5.409  17.921  0.00  0.00    +0.000 C 
ATOM     17  C   UNL     1       2.218   3.982  18.079  0.00  0.00    +0.000 C 
ATOM     18  C   UNL     1       3.680   3.769  18.364  0.00  0.00    +0.000 C 
ATOM     19  O   UNL     1       4.135   2.623  18.406  0.00  0.00    +0.000 OA
ENDBRANCH   1  15
TORSDOF 1
ENDMDL
MODEL 7
REMARK VINA RESULT:      -6.6      2.274      3.268
REMARK  Name = 
REMARK  2 active torsions:
REMARK  status: ('A' for Active; 'I' for Inactive)
REMARK    1  A    between atoms: C_1  and  N_2
REMARK    2  A    between atoms: C_4  and  C_5
REMARK                            x       y       z     vdW  Elec       q    Type
REMARK                         _______ _______ _______ _____ _____    ______ ____
ROOT
ATOM      1  C   UNL     1       2.620   7.310  18.575  0.00  0.00    +0.000 C 
ATOM      2  O   UNL     1       3.024   7.829  17.537  0.00  0.00    +0.000 OA
ATOM      3  N   UNL     1       1.862   7.938  19.558  0.00  0.00    +0.000 N 
ATOM      4  C   UNL     1       1.504   7.399  20.886  0.00  0.00    +0.000 C 
ATOM      5  C   UNL     1       0.554   8.392  21.561  0.00  0.00    +0.000 C 
ATOM      6  C   UNL     1       0.585   9.540  20.611  0.00  0.00    +0.000 A 
ATOM      7  C   UNL     1      -0.083  10.749  20.752  0.00  0.00    +0.000 A 
ATOM      8  C   UNL     1       0.014  11.681  19.722  0.00  0.00    +0.000 A 
ATOM      9  C   UNL     1       0.772  11.394  18.577  0.00  0.00    +0.000 A 
ATOM     10  C   UNL     1       1.437  10.169  18.444  0.00  0.00    +0.000 A 
ATOM     11  C   UNL     1       1.334   9.244  19.469  0.00  0.00    +0.000 A 
ENDROOT
BRANCH   1  15
ATOM     12  C   UNL     1       1.280   2.689  18.525  0.00  0.00    +0.000 C 
ATOM     13  N   UNL     1       2.385   3.609  18.733  0.00  0.00    +0.000 N 
ATOM     14  N   UNL     1       2.097   4.924  18.557  0.00  0.00    +0.000 NA
ATOM     15  C   UNL     1       2.991   5.833  18.770  0.00  0.00    +0.000 C 
ATOM     16  C   UNL     1       4.406   5.544  19.180  0.00  0.00    +0.000 C 
ATOM     17  C   UNL     1       4.760   4.076  19.209  0.00  0.00    +0.000 C 
ATOM     18  C   UNL     1       3.630   3.096  19.041  0.00  0.00    +0.000 C 
ATOM     19  O   UNL     1       3.846   1.887  19.154  0.00  0.00    +0.000 OA
ENDBRANCH   1  15
TORSDOF 1
ENDMDL
MODEL 8
REMARK VINA RESULT:      -6.5      1.911      3.070
REMARK  Name = 
REMARK  2 active torsions:
REMARK  status: ('A' for Active; 'I' for Inactive)
REMARK    1  A    between atoms: C_1  and  N_2
REMARK    2  A    between atoms: C_4  and  C_5
REMARK                            x       y       z     vdW  Elec       q    Type
REMARK                         _______ _______ _______ _____ _____    ______ ____
ROOT
ATOM      1  C   UNL     1       2.203   8.251  18.130  0.00  0.00    +0.000 C 
ATOM      2  O   UNL     1       2.247   8.996  17.154  0.00  0.00    +0.000 OA
ATOM      3  N   UNL     1       1.640   8.558  19.365  0.00  0.00    +0.000 N 
ATOM      4  C   UNL     1       1.719   7.757  20.603  0.00  0.00    +0.000 C 
ATOM      5  C   UNL     1       0.840   8.430  21.660  0.00  0.00    +0.000 C 
ATOM      6  C   UNL     1       0.458   9.700  20.980  0.00  0.00    +0.000 A 
ATOM      7  C   UNL     1      -0.320  10.721  21.508  0.00  0.00    +0.000 A 
ATOM      8  C   UNL     1      -0.628  11.806  20.692  0.00  0.00    +0.000 A 
ATOM      9  C   UNL     1      -0.156  11.855  19.372  0.00  0.00    +0.000 A 
ATOM     10  C   UNL     1       0.623  10.816  18.848  0.00  0.00    +0.000 A 
ATOM     11  C   UNL     1       0.922   9.737  19.662  0.00  0.00    +0.000 A 
ENDROOT
BRANCH   1  15
ATOM     12  C   UNL     1       1.671   3.469  18.155  0.00  0.00    +0.000 C 
ATOM     13  N   UNL     1       2.594   4.566  17.917  0.00  0.00    +0.000 N 
ATOM     14  N   UNL     1       2.078   5.813  18.068  0.00  0.00    +0.000 NA
ATOM     15  C   UNL     1       2.823   6.860  17.935  0.00  0.00    +0.000 C 
ATOM     16  C   UNL     1       4.278   6.818  17.571  0.00  0.00    +0.000 C 
ATOM     17  C   UNL     1       4.799   5.439  17.241  0.00  0.00    +0.000 C 
ATOM     18  C   UNL     1       3.884   4.277  17.519  0.00  0.00    +0.000 C 
ATOM     19  O   UNL     1       4.294   3.124  17.360  0.00  0.00    +0.000 OA
ENDBRANCH   1  15
TORSDOF 1
ENDMDL
MODEL 9
REMARK VINA RESULT:      -6.5      3.456      5.061
REMARK  Name = 
REMARK  2 active torsions:
REMARK  status: ('A' for Active; 'I' for Inactive)
REMARK    1  A    between atoms: C_1  and  N_2
REMARK    2  A    between atoms: C_4  and  C_5
REMARK                            x       y       z     vdW  Elec       q    Type
REMARK                         _______ _______ _______ _____ _____    ______ ____
ROOT
ATOM      1  C   UNL     1       4.439   5.093  17.091  0.00  0.00    +0.000 C 
ATOM      2  O   UNL     1       4.265   6.264  17.418  0.00  0.00    +0.000 OA
ATOM      3  N   UNL     1       3.907   3.980  17.734  0.00  0.00    +0.000 N 
ATOM      4  C   UNL     1       4.228   2.562  17.473  0.00  0.00    +0.000 C 
ATOM      5  C   UNL     1       3.300   1.699  18.332  0.00  0.00    +0.000 C 
ATOM      6  C   UNL     1       2.622   2.723  19.177  0.00  0.00    +0.000 A 
ATOM      7  C   UNL     1       1.688   2.486  20.176  0.00  0.00    +0.000 A 
ATOM      8  C   UNL     1       1.112   3.581  20.814  0.00  0.00    +0.000 A 
ATOM      9  C   UNL     1       1.476   4.886  20.449  0.00  0.00    +0.000 A 
ATOM     10  C   UNL     1       2.417   5.112  19.436  0.00  0.00    +0.000 A 
ATOM     11  C   UNL     1       2.983   4.020  18.802  0.00  0.00    +0.000 A 
ENDROOT
BRANCH   1  15
ATOM     12  C   UNL     1       4.847   3.491  12.572  0.00  0.00    +0.000 C 
ATOM     13  N   UNL     1       5.538   4.131  13.678  0.00  0.00    +0.000 N 
ATOM     14  N   UNL     1       4.789   4.356  14.789  0.00  0.00    +0.000 NA
ATOM     15  C   UNL     1       5.316   4.870  15.851  0.00  0.00    +0.000 C 
ATOM     16  C   UNL     1       6.751   5.298  15.958  0.00  0.00    +0.000 C 
ATOM     17  C   UNL     1       7.529   5.200  14.667  0.00  0.00    +0.000 C 
ATOM     18  C   UNL     1       6.858   4.501  13.515  0.00  0.00    +0.000 C 
ATOM     19  O   UNL     1       7.483   4.306  12.469  0.00  0.00    +0.000 OA
ENDBRANCH   1  15
TORSDOF 1
ENDMDL
