MODEL 1
REMARK VINA RESULT:      -7.5      0.000      0.000
REMARK  Name = 
REMARK  1 active torsions:
REMARK  status: ('A' for Active; 'I' for Inactive)
REMARK    1  A    between atoms: C_7  and  C_8
REMARK                            x       y       z     vdW  Elec       q    Type
REMARK                         _______ _______ _______ _____ _____    ______ ____
ROOT
ATOM      1  N   UNL     1       8.156   5.630  19.883  0.00  0.00    +0.000 N 
ATOM      2  C   UNL     1       7.014   5.535  19.119  0.00  0.00    +0.000 A 
ATOM      3  N   UNL     1       7.064   5.970  17.874  0.00  0.00    +0.000 NA
ATOM      4  C   UNL     1       5.911   5.948  17.231  0.00  0.00    +0.000 A 
ATOM      5  N   UNL     1       5.908   6.345  15.909  0.00  0.00    +0.000 N 
ATOM      6  N   UNL     1       4.765   5.525  17.738  0.00  0.00    +0.000 NA
ATOM      7  C   UNL     1       4.825   5.046  18.980  0.00  0.00    +0.000 A 
ATOM      8  N   UNL     1       5.949   5.001  19.693  0.00  0.00    +0.000 NA
ATOM      9  H   UNL     1       8.989   5.673  19.316  0.00  0.00    +0.000 HD
ATOM     10  H   UNL     1       8.134   4.999  20.672  0.00  0.00    +0.000 HD
ATOM     11  H   UNL     1       6.832   6.245  15.511  0.00  0.00    +0.000 HD
ATOM     12  H   UNL     1       5.144   5.902  15.416  0.00  0.00    +0.000 HD
ENDROOT
BRANCH   7  13
ATOM     13  C   UNL     1       3.579   4.549  19.600  0.00  0.00    +0.000 A 
ATOM     14  C   UNL     1       2.504   5.410  19.940  0.00  0.00    +0.000 A 
ATOM     15 CL   UNL     1       2.485   7.112  19.586  0.00  0.00    +0.000 Cl
ATOM     16  C   UNL     1       1.332   4.931  20.555  0.00  0.00    +0.000 A 
ATOM     17  C   UNL     1       1.175   3.582  20.827  0.00  0.00    +0.000 A 
ATOM     18  C   UNL     1       2.197   2.705  20.493  0.00  0.00    +0.000 A 
ATOM     19  C   UNL     1       3.383   3.176  19.904  0.00  0.00    +0.000 A 
ATOM     20 CL   UNL     1       4.583   1.944  19.638  0.00  0.00    +0.000 Cl
ENDBRANCH   7  13
TORSDOF 1
ENDMDL
MODEL 2
REMARK VINA RESULT:      -7.5      0.053      1.994
REMARK  Name = 
REMARK  1 active torsions:
REMARK  status: ('A' for Active; 'I' for Inactive)
REMARK    1  A    between atoms: C_7  and  C_8
REMARK                            x       y       z     vdW  Elec       q    Type
REMARK                         _______ _______ _______ _____ _____    ______ ____
ROOT
ATOM      1  N   UNL     1       5.976   6.302  15.925  0.00  0.00    +0.000 N 
ATOM      2  C   UNL     1       5.960   5.937  17.253  0.00  0.00    +0.000 A 
ATOM      3  N   UNL     1       7.097   5.985  17.922  0.00  0.00    +0.000 NA
ATOM      4  C   UNL     1       7.035   5.524  19.157  0.00  0.00    +0.000 A 
ATOM      5  N   UNL     1       8.180   5.593  19.924  0.00  0.00    +0.000 N 
ATOM      6  N   UNL     1       5.946   5.048  19.738  0.00  0.00    +0.000 NA
ATOM      7  C   UNL     1       4.833   5.098  19.006  0.00  0.00    +0.000 A 
ATOM      8  N   UNL     1       4.795   5.573  17.763  0.00  0.00    +0.000 NA
ATOM      9  H   UNL     1       6.752   6.908  15.707  0.00  0.00    +0.000 HD
ATOM     10  H   UNL     1       5.054   6.550  15.593  0.00  0.00    +0.000 HD
ATOM     11  H   UNL     1       8.796   6.313  19.571  0.00  0.00    +0.000 HD
ATOM     12  H   UNL     1       7.938   5.635  20.905  0.00  0.00    +0.000 HD
ENDROOT
BRANCH   7  13
ATOM     13  C   UNL     1       3.580   4.588  19.603  0.00  0.00    +0.000 A 
ATOM     14  C   UNL     1       2.499   5.441  19.942  0.00  0.00    +0.000 A 
ATOM     15 CL   UNL     1       2.480   7.149  19.615  0.00  0.00    +0.000 Cl
ATOM     16  C   UNL     1       1.321   4.950  20.535  0.00  0.00    +0.000 A 
ATOM     17  C   UNL     1       1.164   3.596  20.784  0.00  0.00    +0.000 A 
ATOM     18  C   UNL     1       2.192   2.728  20.449  0.00  0.00    +0.000 A 
ATOM     19  C   UNL     1       3.384   3.211  19.883  0.00  0.00    +0.000 A 
ATOM     20 CL   UNL     1       4.590   1.985  19.613  0.00  0.00    +0.000 Cl
ENDBRANCH   7  13
TORSDOF 1
ENDMDL
MODEL 3
REMARK VINA RESULT:      -7.5      0.081      2.309
REMARK  Name = 
REMARK  1 active torsions:
REMARK  status: ('A' for Active; 'I' for Inactive)
REMARK    1  A    between atoms: C_7  and  C_8
REMARK                            x       y       z     vdW  Elec       q    Type
REMARK                         _______ _______ _______ _____ _____    ______ ____
ROOT
ATOM      1  N   UNL     1       8.148   5.576  19.960  0.00  0.00    +0.000 N 
ATOM      2  C   UNL     1       7.008   5.525  19.189  0.00  0.00    +0.000 A 
ATOM      3  N   UNL     1       7.067   6.012  17.964  0.00  0.00    +0.000 NA
ATOM      4  C   UNL     1       5.916   6.028  17.317  0.00  0.00    +0.000 A 
ATOM      5  N   UNL     1       5.921   6.480  16.014  0.00  0.00    +0.000 N 
ATOM      6  N   UNL     1       4.764   5.594  17.803  0.00  0.00    +0.000 NA
ATOM      7  C   UNL     1       4.816   5.062  19.023  0.00  0.00    +0.000 A 
ATOM      8  N   UNL     1       5.936   4.977  19.738  0.00  0.00    +0.000 NA
ATOM      9  H   UNL     1       8.984   5.635  19.398  0.00  0.00    +0.000 HD
ATOM     10  H   UNL     1       8.118   4.913  20.721  0.00  0.00    +0.000 HD
ATOM     11  H   UNL     1       6.845   6.388  15.614  0.00  0.00    +0.000 HD
ATOM     12  H   UNL     1       5.154   6.066  15.500  0.00  0.00    +0.000 HD
ENDROOT
BRANCH   7  13
ATOM     13  C   UNL     1       3.562   4.551  19.618  0.00  0.00    +0.000 A 
ATOM     14  C   UNL     1       3.360   3.176  19.898  0.00  0.00    +0.000 A 
ATOM     15 CL   UNL     1       4.578   1.957  19.668  0.00  0.00    +0.000 Cl
ATOM     16  C   UNL     1       2.153   2.695  20.439  0.00  0.00    +0.000 A 
ATOM     17  C   UNL     1       1.119   3.565  20.747  0.00  0.00    +0.000 A 
ATOM     18  C   UNL     1       1.285   4.920  20.503  0.00  0.00    +0.000 A 
ATOM     19  C   UNL     1       2.476   5.407  19.938  0.00  0.00    +0.000 A 
ATOM     20 CL   UNL     1       2.467   7.119  19.626  0.00  0.00    +0.000 Cl
ENDBRANCH   7  13
TORSDOF 1
ENDMDL
MODEL 4
REMARK VINA RESULT:      -7.5      0.165      3.050
REMARK  Name = 
REMARK  1 active torsions:
REMARK  status: ('A' for Active; 'I' for Inactive)
REMARK    1  A    between atoms: C_7  and  C_8
REMARK                            x       y       z     vdW  Elec       q    Type
REMARK                         _______ _______ _______ _____ _____    ______ ____
ROOT
ATOM      1  N   UNL     1       6.050   5.925  15.798  0.00  0.00    +0.000 N 
ATOM      2  C   UNL     1       6.021   5.684  17.154  0.00  0.00    +0.000 A 
ATOM      3  N   UNL     1       7.147   5.813  17.830  0.00  0.00    +0.000 NA
ATOM      4  C   UNL     1       7.073   5.467  19.102  0.00  0.00    +0.000 A 
ATOM      5  N   UNL     1       8.206   5.626  19.875  0.00  0.00    +0.000 N 
ATOM      6  N   UNL     1       5.983   5.028  19.710  0.00  0.00    +0.000 NA
ATOM      7  C   UNL     1       4.881   4.991  18.962  0.00  0.00    +0.000 A 
ATOM      8  N   UNL     1       4.854   5.349  17.680  0.00  0.00    +0.000 NA
ATOM      9  H   UNL     1       6.820   6.521  15.536  0.00  0.00    +0.000 HD
ATOM     10  H   UNL     1       5.130   6.125  15.432  0.00  0.00    +0.000 HD
ATOM     11  H   UNL     1       8.815   6.321  19.465  0.00  0.00    +0.000 HD
ATOM     12  H   UNL     1       7.948   5.755  20.845  0.00  0.00    +0.000 HD
ENDROOT
BRANCH   7  13
ATOM     13  C   UNL     1       3.627   4.518  19.586  0.00  0.00    +0.000 A 
ATOM     14  C   UNL     1       3.413   3.157  19.923  0.00  0.00    +0.000 A 
ATOM     15 CL   UNL     1       4.617   1.917  19.733  0.00  0.00    +0.000 Cl
ATOM     16  C   UNL     1       2.205   2.712  20.492  0.00  0.00    +0.000 A 
ATOM     17  C   UNL     1       1.183   3.604  20.772  0.00  0.00    +0.000 A 
ATOM     18  C   UNL     1       1.361   4.946  20.473  0.00  0.00    +0.000 A 
ATOM     19  C   UNL     1       2.552   5.398  19.879  0.00  0.00    +0.000 A 
ATOM     20 CL   UNL     1       2.558   7.096  19.499  0.00  0.00    +0.000 Cl
ENDBRANCH   7  13
TORSDOF 1
ENDMDL
MODEL 5
REMARK VINA RESULT:      -7.5      1.380      1.380
REMARK  Name = 
REMARK  1 active torsions:
REMARK  status: ('A' for Active; 'I' for Inactive)
REMARK    1  A    between atoms: C_7  and  C_8
REMARK                            x       y       z     vdW  Elec       q    Type
REMARK                         _______ _______ _______ _____ _____    ______ ____
ROOT
ATOM      1  N   UNL     1       7.966   5.128  18.903  0.00  0.00    +0.000 N 
ATOM      2  C   UNL     1       6.879   4.672  18.192  0.00  0.00    +0.000 A 
ATOM      3  N   UNL     1       7.001   4.552  16.883  0.00  0.00    +0.000 NA
ATOM      4  C   UNL     1       5.894   4.211  16.251  0.00  0.00    +0.000 A 
ATOM      5  N   UNL     1       5.969   4.022  14.886  0.00  0.00    +0.000 N 
ATOM      6  N   UNL     1       4.725   3.984  16.829  0.00  0.00    +0.000 NA
ATOM      7  C   UNL     1       4.715   4.069  18.159  0.00  0.00    +0.000 A 
ATOM      8  N   UNL     1       5.789   4.377  18.882  0.00  0.00    +0.000 NA
ATOM      9  H   UNL     1       8.833   4.970  18.413  0.00  0.00    +0.000 HD
ATOM     10  H   UNL     1       7.906   4.882  19.881  0.00  0.00    +0.000 HD
ATOM     11  H   UNL     1       6.918   3.808  14.613  0.00  0.00    +0.000 HD
ATOM     12  H   UNL     1       5.247   3.380  14.585  0.00  0.00    +0.000 HD
ENDROOT
BRANCH   7  13
ATOM     13  C   UNL     1       3.440   3.818  18.866  0.00  0.00    +0.000 A 
ATOM     14  C   UNL     1       2.654   4.865  19.409  0.00  0.00    +0.000 A 
ATOM     15 CL   UNL     1       3.040   6.551  19.230  0.00  0.00    +0.000 Cl
ATOM     16  C   UNL     1       1.457   4.614  20.104  0.00  0.00    +0.000 A 
ATOM     17  C   UNL     1       0.985   3.321  20.258  0.00  0.00    +0.000 A 
ATOM     18  C   UNL     1       1.716   2.270  19.725  0.00  0.00    +0.000 A 
ATOM     19  C   UNL     1       2.928   2.507  19.053  0.00  0.00    +0.000 A 
ATOM     20 CL   UNL     1       3.746   1.062  18.531  0.00  0.00    +0.000 Cl
ENDBRANCH   7  13
TORSDOF 1
ENDMDL
MODEL 6
REMARK VINA RESULT:      -7.5      1.367      2.639
REMARK  Name = 
REMARK  1 active torsions:
REMARK  status: ('A' for Active; 'I' for Inactive)
REMARK    1  A    between atoms: C_7  and  C_8
REMARK                            x       y       z     vdW  Elec       q    Type
REMARK                         _______ _______ _______ _____ _____    ______ ____
ROOT
ATOM      1  N   UNL     1       7.955   5.197  19.059  0.00  0.00    +0.000 N 
ATOM      2  C   UNL     1       6.906   4.713  18.310  0.00  0.00    +0.000 A 
ATOM      3  N   UNL     1       7.079   4.592  17.007  0.00  0.00    +0.000 NA
ATOM      4  C   UNL     1       6.004   4.222  16.336  0.00  0.00    +0.000 A 
ATOM      5  N   UNL     1       6.133   4.030  14.976  0.00  0.00    +0.000 N 
ATOM      6  N   UNL     1       4.821   3.970  16.872  0.00  0.00    +0.000 NA
ATOM      7  C   UNL     1       4.759   4.058  18.201  0.00  0.00    +0.000 A 
ATOM      8  N   UNL     1       5.799   4.394  18.961  0.00  0.00    +0.000 NA
ATOM      9  H   UNL     1       8.843   5.058  18.602  0.00  0.00    +0.000 HD
ATOM     10  H   UNL     1       7.865   4.954  20.035  0.00  0.00    +0.000 HD
ATOM     11  H   UNL     1       7.097   3.839  14.739  0.00  0.00    +0.000 HD
ATOM     12  H   UNL     1       5.439   3.370  14.651  0.00  0.00    +0.000 HD
ENDROOT
BRANCH   7  13
ATOM     13  C   UNL     1       3.466   3.779  18.861  0.00  0.00    +0.000 A 
ATOM     14  C   UNL     1       2.949   2.465  18.994  0.00  0.00    +0.000 A 
ATOM     15 CL   UNL     1       3.805   1.038  18.490  0.00  0.00    +0.000 Cl
ATOM     16  C   UNL     1       1.705   2.212  19.600  0.00  0.00    +0.000 A 
ATOM     17  C   UNL     1       0.946   3.248  20.120  0.00  0.00    +0.000 A 
ATOM     18  C   UNL     1       1.426   4.546  20.025  0.00  0.00    +0.000 A 
ATOM     19  C   UNL     1       2.655   4.813  19.397  0.00  0.00    +0.000 A 
ATOM     20 CL   UNL     1       3.049   6.505  19.295  0.00  0.00    +0.000 Cl
ENDBRANCH   7  13
TORSDOF 1
ENDMDL
MODEL 7
REMARK VINA RESULT:      -7.5      1.356      2.367
REMARK  Name = 
REMARK  1 active torsions:
REMARK  status: ('A' for Active; 'I' for Inactive)
REMARK    1  A    between atoms: C_7  and  C_8
REMARK                            x       y       z     vdW  Elec       q    Type
REMARK                         _______ _______ _______ _____ _____    ______ ____
ROOT
ATOM      1  N   UNL     1       5.712   4.181  14.811  0.00  0.00    +0.000 N 
ATOM      2  C   UNL     1       5.718   4.314  16.181  0.00  0.00    +0.000 A 
ATOM      3  N   UNL     1       6.862   4.609  16.770  0.00  0.00    +0.000 NA
ATOM      4  C   UNL     1       6.821   4.619  18.090  0.00  0.00    +0.000 A 
ATOM      5  N   UNL     1       7.974   4.968  18.763  0.00  0.00    +0.000 N 
ATOM      6  N   UNL     1       5.746   4.371  18.820  0.00  0.00    +0.000 NA
ATOM      7  C   UNL     1       4.624   4.146  18.137  0.00  0.00    +0.000 A 
ATOM      8  N   UNL     1       4.565   4.146  16.807  0.00  0.00    +0.000 NA
ATOM      9  H   UNL     1       6.477   4.676  14.378  0.00  0.00    +0.000 HD
ATOM     10  H   UNL     1       4.784   4.285  14.427  0.00  0.00    +0.000 HD
ATOM     11  H   UNL     1       8.575   5.520  18.166  0.00  0.00    +0.000 HD
ATOM     12  H   UNL     1       7.743   5.355  19.668  0.00  0.00    +0.000 HD
ENDROOT
BRANCH   7  13
ATOM     13  C   UNL     1       3.386   3.871  18.896  0.00  0.00    +0.000 A 
ATOM     14  C   UNL     1       2.609   4.904  19.481  0.00  0.00    +0.000 A 
ATOM     15 CL   UNL     1       2.962   6.596  19.298  0.00  0.00    +0.000 Cl
ATOM     16  C   UNL     1       1.446   4.630  20.225  0.00  0.00    +0.000 A 
ATOM     17  C   UNL     1       1.000   3.328  20.389  0.00  0.00    +0.000 A 
ATOM     18  C   UNL     1       1.723   2.293  19.817  0.00  0.00    +0.000 A 
ATOM     19  C   UNL     1       2.900   2.552  19.095  0.00  0.00    +0.000 A 
ATOM     20 CL   UNL     1       3.716   1.123  18.527  0.00  0.00    +0.000 Cl
ENDBRANCH   7  13
TORSDOF 1
ENDMDL
MODEL 8
REMARK VINA RESULT:      -7.5      1.387      3.265
REMARK  Name = 
REMARK  1 active torsions:
REMARK  status: ('A' for Active; 'I' for Inactive)
REMARK    1  A    between atoms: C_7  and  C_8
REMARK                            x       y       z     vdW  Elec       q    Type
REMARK                         _______ _______ _______ _____ _____    ______ ____
ROOT
ATOM      1  N   UNL     1       6.132   3.993  14.944  0.00  0.00    +0.000 N 
ATOM      2  C   UNL     1       6.007   4.208  16.299  0.00  0.00    +0.000 A 
ATOM      3  N   UNL     1       7.076   4.601  16.965  0.00  0.00    +0.000 NA
ATOM      4  C   UNL     1       6.916   4.688  18.272  0.00  0.00    +0.000 A 
ATOM      5  N   UNL     1       7.984   5.141  19.020  0.00  0.00    +0.000 N 
ATOM      6  N   UNL     1       5.792   4.424  18.920  0.00  0.00    +0.000 NA
ATOM      7  C   UNL     1       4.750   4.096  18.158  0.00  0.00    +0.000 A 
ATOM      8  N   UNL     1       4.811   4.013  16.830  0.00  0.00    +0.000 NA
ATOM      9  H   UNL     1       6.907   4.504  14.549  0.00  0.00    +0.000 HD
ATOM     10  H   UNL     1       5.238   4.021  14.475  0.00  0.00    +0.000 HD
ATOM     11  H   UNL     1       8.608   5.689  18.443  0.00  0.00    +0.000 HD
ATOM     12  H   UNL     1       7.652   5.568  19.874  0.00  0.00    +0.000 HD
ENDROOT
BRANCH   7  13
ATOM     13  C   UNL     1       3.463   3.798  18.822  0.00  0.00    +0.000 A 
ATOM     14  C   UNL     1       2.961   2.478  18.947  0.00  0.00    +0.000 A 
ATOM     15 CL   UNL     1       3.829   1.064  18.428  0.00  0.00    +0.000 Cl
ATOM     16  C   UNL     1       1.722   2.208  19.557  0.00  0.00    +0.000 A 
ATOM     17  C   UNL     1       0.955   3.232  20.088  0.00  0.00    +0.000 A 
ATOM     18  C   UNL     1       1.421   4.536  20.001  0.00  0.00    +0.000 A 
ATOM     19  C   UNL     1       2.644   4.820  19.369  0.00  0.00    +0.000 A 
ATOM     20 CL   UNL     1       3.020   6.517  19.280  0.00  0.00    +0.000 Cl
ENDBRANCH   7  13
TORSDOF 1
ENDMDL
MODEL 9
REMARK VINA RESULT:      -7.4      1.234      3.160
REMARK  Name = 
REMARK  1 active torsions:
REMARK  status: ('A' for Active; 'I' for Inactive)
REMARK    1  A    between atoms: C_7  and  C_8
REMARK                            x       y       z     vdW  Elec       q    Type
REMARK                         _______ _______ _______ _____ _____    ______ ____
ROOT
ATOM      1  N   UNL     1       5.048   6.739  15.373  0.00  0.00    +0.000 N 
ATOM      2  C   UNL     1       5.228   5.936  16.476  0.00  0.00    +0.000 A 
ATOM      3  N   UNL     1       6.460   5.582  16.790  0.00  0.00    +0.000 NA
ATOM      4  C   UNL     1       6.555   4.729  17.793  0.00  0.00    +0.000 A 
ATOM      5  N   UNL     1       7.820   4.358  18.201  0.00  0.00    +0.000 N 
ATOM      6  N   UNL     1       5.532   4.240  18.476  0.00  0.00    +0.000 NA
ATOM      7  C   UNL     1       4.332   4.703  18.128  0.00  0.00    +0.000 A 
ATOM      8  N   UNL     1       4.144   5.586  17.149  0.00  0.00    +0.000 NA
ATOM      9  H   UNL     1       5.878   7.265  15.146  0.00  0.00    +0.000 HD
ATOM     10  H   UNL     1       4.158   7.217  15.396  0.00  0.00    +0.000 HD
ATOM     11  H   UNL     1       8.495   5.060  17.930  0.00  0.00    +0.000 HD
ATOM     12  H   UNL     1       7.804   4.086  19.175  0.00  0.00    +0.000 HD
ENDROOT
BRANCH   7  13
ATOM     13  C   UNL     1       3.149   4.201  18.859  0.00  0.00    +0.000 A 
ATOM     14  C   UNL     1       2.735   2.846  18.795  0.00  0.00    +0.000 A 
ATOM     15 CL   UNL     1       3.611   1.611  17.941  0.00  0.00    +0.000 Cl
ATOM     16  C   UNL     1       1.592   2.384  19.473  0.00  0.00    +0.000 A 
ATOM     17  C   UNL     1       0.839   3.242  20.258  0.00  0.00    +0.000 A 
ATOM     18  C   UNL     1       1.221   4.571  20.359  0.00  0.00    +0.000 A 
ATOM     19  C   UNL     1       2.345   5.050  19.664  0.00  0.00    +0.000 A 
ATOM     20 CL   UNL     1       2.617   6.759  19.844  0.00  0.00    +0.000 Cl
ENDBRANCH   7  13
TORSDOF 1
ENDMDL
