MODEL 1
REMARK VINA RESULT:      -7.6      0.000      0.000
REMARK  Name = 
REMARK  7 active torsions:
REMARK  status: ('A' for Active; 'I' for Inactive)
REMARK    1  A    between atoms: N_2  and  N_3
REMARK    2  A    between atoms: C_7  and  O_8
REMARK    3  A    between atoms: N_13  and  C1*_14
REMARK    4  A    between atoms: C4*_16  and  C5*_17
REMARK    5  A    between atoms: C5*_17  and  O5*_18
REMARK    6  A    between atoms: C3*_19  and  O3*_20
REMARK    7  A    between atoms: C2*_21  and  O2*_22
REMARK                            x       y       z     vdW  Elec       q    Type
REMARK                         _______ _______ _______ _____ _____    ______ ____
ROOT
ATOM      1  N   UNL     1       3.520   6.146  18.482  0.00  0.00    +0.000 N 
ATOM      2  C   UNL     1       2.533   5.718  19.378  0.00  0.00    +0.000 A 
ATOM      3  O   UNL     1       1.857   6.276  20.224  0.00  0.00    +0.000 OA
ATOM      4  C   UNL     1       2.356   4.311  19.114  0.00  0.00    +0.000 A 
ATOM      5  C   UNL     1       1.562   3.371  19.676  0.00  0.00    +0.000 A 
ATOM      6  N   UNL     1       1.611   2.096  19.269  0.00  0.00    +0.000 NA
ATOM      7  C   UNL     1       2.480   1.825  18.270  0.00  0.00    +0.000 A 
ATOM      8  N   UNL     1       3.281   2.711  17.635  0.00  0.00    +0.000 NA
ATOM      9  C   UNL     1       3.178   3.972  18.070  0.00  0.00    +0.000 A 
ATOM     10  N   UNL     1       3.791   5.125  17.528  0.00  0.00    +0.000 N 
ENDROOT
BRANCH  10  11
ATOM     11  C1* UNL     1       5.097   4.979  16.907  0.00  0.00    +0.000 C 
ATOM     12  O4* UNL     1       6.077   4.423  17.810  0.00  0.00    +0.000 OA
ATOM     13  C4* UNL     1       7.322   5.160  17.659  0.00  0.00    +0.000 C 
ATOM     14  C3* UNL     1       7.136   6.117  16.485  0.00  0.00    +0.000 C 
ATOM     15  C2* UNL     1       5.636   6.353  16.473  0.00  0.00    +0.000 C 
BRANCH  14  16
ATOM     16  O3* UNL     1       7.501   5.520  15.228  0.00  0.00    +0.000 OA
ATOM     17  H3* UNL     1       7.964   4.676  15.387  0.00  0.00    +0.000 HD
ENDBRANCH  14  16
BRANCH  15  18
ATOM     18  O2* UNL     1       5.184   6.773  15.187  0.00  0.00    +0.000 OA
ATOM     19  H2* UNL     1       4.396   7.335  15.343  0.00  0.00    +0.000 HD
ENDBRANCH  15  18
BRANCH  13  20
ATOM     20  C5* UNL     1       7.628   5.889  18.969  0.00  0.00    +0.000 C 
BRANCH  20  21
ATOM     21  O5* UNL     1       7.033   5.192  20.059  0.00  0.00    +0.000 OA
ATOM     22  H5* UNL     1       6.709   5.870  20.683  0.00  0.00    +0.000 HD
ENDBRANCH  20  21
ENDBRANCH  13  20
ENDBRANCH  10  11
BRANCH   1  24
ATOM     23  O   UNL     1       2.669   7.964  17.598  0.00  0.00    +0.000 OA
ATOM     24  N   UNL     1       3.665   7.479  18.143  0.00  0.00    +0.000 NA
ENDBRANCH   1  24
BRANCH   5  25
ATOM     25  O   UNL     1       0.658   3.655  20.657  0.00  0.00    +0.000 OA
ATOM     26  H   UNL     1       0.901   4.510  21.061  0.00  0.00    +0.000 HD
ENDBRANCH   5  25
TORSDOF 7
ENDMDL
MODEL 2
REMARK VINA RESULT:      -7.6      2.112      5.845
REMARK  Name = 
REMARK  7 active torsions:
REMARK  status: ('A' for Active; 'I' for Inactive)
REMARK    1  A    between atoms: N_2  and  N_3
REMARK    2  A    between atoms: C_7  and  O_8
REMARK    3  A    between atoms: N_13  and  C1*_14
REMARK    4  A    between atoms: C4*_16  and  C5*_17
REMARK    5  A    between atoms: C5*_17  and  O5*_18
REMARK    6  A    between atoms: C3*_19  and  O3*_20
REMARK    7  A    between atoms: C2*_21  and  O2*_22
REMARK                            x       y       z     vdW  Elec       q    Type
REMARK                         _______ _______ _______ _____ _____    ______ ____
ROOT
ATOM      1  N   UNL     1       3.751   3.868  17.242  0.00  0.00    +0.000 N 
ATOM      2  C   UNL     1       4.797   4.240  16.388  0.00  0.00    +0.000 A 
ATOM      3  O   UNL     1       4.966   4.189  15.183  0.00  0.00    +0.000 OA
ATOM      4  C   UNL     1       5.805   4.820  17.243  0.00  0.00    +0.000 A 
ATOM      5  C   UNL     1       7.031   5.331  16.988  0.00  0.00    +0.000 A 
ATOM      6  N   UNL     1       7.808   5.784  17.981  0.00  0.00    +0.000 NA
ATOM      7  C   UNL     1       7.284   5.707  19.225  0.00  0.00    +0.000 A 
ATOM      8  N   UNL     1       6.058   5.243  19.557  0.00  0.00    +0.000 NA
ATOM      9  C   UNL     1       5.320   4.821  18.525  0.00  0.00    +0.000 A 
ATOM     10  N   UNL     1       3.971   4.400  18.545  0.00  0.00    +0.000 N 
ENDROOT
BRANCH  10  11
ATOM     11  C1* UNL     1       3.477   3.735  19.739  0.00  0.00    +0.000 C 
ATOM     12  O4* UNL     1       2.994   2.401  19.467  0.00  0.00    +0.000 OA
ATOM     13  C4* UNL     1       1.748   2.200  20.190  0.00  0.00    +0.000 C 
ATOM     14  C3* UNL     1       1.542   3.424  21.077  0.00  0.00    +0.000 C 
ATOM     15  C2* UNL     1       2.290   4.514  20.331  0.00  0.00    +0.000 C 
BRANCH  14  16
ATOM     16  O3* UNL     1       2.153   3.272  22.371  0.00  0.00    +0.000 OA
ATOM     17  H3* UNL     1       1.483   2.985  23.018  0.00  0.00    +0.000 HD
ENDBRANCH  14  16
BRANCH  15  18
ATOM     18  O2* UNL     1       2.672   5.576  21.203  0.00  0.00    +0.000 OA
ATOM     19  H2* UNL     1       2.497   5.260  22.114  0.00  0.00    +0.000 HD
ENDBRANCH  15  18
BRANCH  13  20
ATOM     20  C5* UNL     1       0.614   2.008  19.179  0.00  0.00    +0.000 C 
BRANCH  20  21
ATOM     21  O5* UNL     1       1.150   1.593  17.927  0.00  0.00    +0.000 OA
ATOM     22  H5* UNL     1       0.559   0.894  17.586  0.00  0.00    +0.000 HD
ENDBRANCH  20  21
ENDBRANCH  13  20
ENDBRANCH  10  11
BRANCH   1  24
ATOM     23  O   UNL     1       1.651   4.497  17.192  0.00  0.00    +0.000 OA
ATOM     24  N   UNL     1       2.466   3.669  16.773  0.00  0.00    +0.000 NA
ENDBRANCH   1  24
BRANCH   5  25
ATOM     25  O   UNL     1       7.540   5.444  15.728  0.00  0.00    +0.000 OA
ATOM     26  H   UNL     1       8.116   6.231  15.698  0.00  0.00    +0.000 HD
ENDBRANCH   5  25
TORSDOF 7
ENDMDL
MODEL 3
REMARK VINA RESULT:      -7.6      2.452      5.634
REMARK  Name = 
REMARK  7 active torsions:
REMARK  status: ('A' for Active; 'I' for Inactive)
REMARK    1  A    between atoms: N_2  and  N_3
REMARK    2  A    between atoms: C_7  and  O_8
REMARK    3  A    between atoms: N_13  and  C1*_14
REMARK    4  A    between atoms: C4*_16  and  C5*_17
REMARK    5  A    between atoms: C5*_17  and  O5*_18
REMARK    6  A    between atoms: C3*_19  and  O3*_20
REMARK    7  A    between atoms: C2*_21  and  O2*_22
REMARK                            x       y       z     vdW  Elec       q    Type
REMARK                         _______ _______ _______ _____ _____    ______ ____
ROOT
ATOM      1  N   UNL     1       5.952   4.525  17.891  0.00  0.00    +0.000 N 
ATOM      2  C   UNL     1       6.907   5.132  17.066  0.00  0.00    +0.000 A 
ATOM      3  O   UNL     1       7.866   5.855  17.270  0.00  0.00    +0.000 OA
ATOM      4  C   UNL     1       6.589   4.700  15.727  0.00  0.00    +0.000 A 
ATOM      5  C   UNL     1       7.144   4.977  14.524  0.00  0.00    +0.000 A 
ATOM      6  N   UNL     1       6.630   4.470  13.396  0.00  0.00    +0.000 NA
ATOM      7  C   UNL     1       5.550   3.670  13.544  0.00  0.00    +0.000 A 
ATOM      8  N   UNL     1       4.959   3.320  14.708  0.00  0.00    +0.000 NA
ATOM      9  C   UNL     1       5.524   3.840  15.803  0.00  0.00    +0.000 A 
ATOM     10  N   UNL     1       5.207   3.563  17.152  0.00  0.00    +0.000 N 
ENDROOT
BRANCH  10  11
ATOM     11  C1* UNL     1       3.829   3.240  17.481  0.00  0.00    +0.000 C 
ATOM     12  O4* UNL     1       3.088   4.391  17.940  0.00  0.00    +0.000 OA
ATOM     13  C4* UNL     1       2.284   4.001  19.088  0.00  0.00    +0.000 C 
ATOM     14  C3* UNL     1       2.421   2.489  19.237  0.00  0.00    +0.000 C 
ATOM     15  C2* UNL     1       3.780   2.208  18.622  0.00  0.00    +0.000 C 
BRANCH  14  16
ATOM     16  O3* UNL     1       1.433   1.770  18.477  0.00  0.00    +0.000 OA
ATOM     17  H3* UNL     1       1.694   1.747  17.538  0.00  0.00    +0.000 HD
ENDBRANCH  14  16
BRANCH  15  18
ATOM     18  O2* UNL     1       3.886   0.855  18.183  0.00  0.00    +0.000 OA
ATOM     19  H2* UNL     1       4.550   0.852  17.462  0.00  0.00    +0.000 HD
ENDBRANCH  15  18
BRANCH  13  20
ATOM     20  C5* UNL     1       2.776   4.762  20.321  0.00  0.00    +0.000 C 
BRANCH  20  21
ATOM     21  O5* UNL     1       3.597   5.853  19.918  0.00  0.00    +0.000 OA
ATOM     22  H5* UNL     1       3.336   6.078  19.003  0.00  0.00    +0.000 HD
ENDBRANCH  20  21
ENDBRANCH  13  20
ENDBRANCH  10  11
BRANCH   1  24
ATOM     23  O   UNL     1       6.536   5.386  19.822  0.00  0.00    +0.000 OA
ATOM     24  N   UNL     1       6.165   4.358  19.247  0.00  0.00    +0.000 NA
ENDBRANCH   1  24
BRANCH   5  25
ATOM     25  O   UNL     1       8.258   5.752  14.383  0.00  0.00    +0.000 OA
ATOM     26  H   UNL     1       8.440   6.185  15.239  0.00  0.00    +0.000 HD
ENDBRANCH   5  25
TORSDOF 7
ENDMDL
MODEL 4
REMARK VINA RESULT:      -7.5      2.135      5.623
REMARK  Name = 
REMARK  7 active torsions:
REMARK  status: ('A' for Active; 'I' for Inactive)
REMARK    1  A    between atoms: N_2  and  N_3
REMARK    2  A    between atoms: C_7  and  O_8
REMARK    3  A    between atoms: N_13  and  C1*_14
REMARK    4  A    between atoms: C4*_16  and  C5*_17
REMARK    5  A    between atoms: C5*_17  and  O5*_18
REMARK    6  A    between atoms: C3*_19  and  O3*_20
REMARK    7  A    between atoms: C2*_21  and  O2*_22
REMARK                            x       y       z     vdW  Elec       q    Type
REMARK                         _______ _______ _______ _____ _____    ______ ____
ROOT
ATOM      1  N   UNL     1       3.806   5.563  17.903  0.00  0.00    +0.000 N 
ATOM      2  C   UNL     1       4.803   6.188  17.144  0.00  0.00    +0.000 A 
ATOM      3  O   UNL     1       4.814   6.772  16.075  0.00  0.00    +0.000 OA
ATOM      4  C   UNL     1       6.011   6.070  17.924  0.00  0.00    +0.000 A 
ATOM      5  C   UNL     1       7.285   6.463  17.695  0.00  0.00    +0.000 A 
ATOM      6  N   UNL     1       8.257   6.197  18.578  0.00  0.00    +0.000 NA
ATOM      7  C   UNL     1       7.878   5.535  19.694  0.00  0.00    +0.000 A 
ATOM      8  N   UNL     1       6.625   5.139  20.011  0.00  0.00    +0.000 NA
ATOM      9  C   UNL     1       5.692   5.446  19.103  0.00  0.00    +0.000 A 
ATOM     10  N   UNL     1       4.294   5.271  19.208  0.00  0.00    +0.000 N 
ENDROOT
BRANCH  10  11
ATOM     11  C1* UNL     1       3.800   4.143  19.980  0.00  0.00    +0.000 C 
ATOM     12  O4* UNL     1       3.636   2.955  19.175  0.00  0.00    +0.000 OA
ATOM     13  C4* UNL     1       2.376   2.322  19.530  0.00  0.00    +0.000 C 
ATOM     14  C3* UNL     1       1.817   3.079  20.730  0.00  0.00    +0.000 C 
ATOM     15  C2* UNL     1       2.414   4.465  20.567  0.00  0.00    +0.000 C 
BRANCH  14  16
ATOM     16  O3* UNL     1       2.279   2.541  21.983  0.00  0.00    +0.000 OA
ATOM     17  H3* UNL     1       1.800   1.716  22.182  0.00  0.00    +0.000 HD
ENDBRANCH  14  16
BRANCH  15  18
ATOM     18  O2* UNL     1       2.461   5.164  21.809  0.00  0.00    +0.000 OA
ATOM     19  H2* UNL     1       1.982   4.605  22.456  0.00  0.00    +0.000 HD
ENDBRANCH  15  18
BRANCH  13  20
ATOM     20  C5* UNL     1       1.440   2.364  18.320  0.00  0.00    +0.000 C 
BRANCH  20  21
ATOM     21  O5* UNL     1       2.158   2.802  17.171  0.00  0.00    +0.000 OA
ATOM     22  H5* UNL     1       2.880   3.376  17.493  0.00  0.00    +0.000 HD
ENDBRANCH  20  21
ENDBRANCH  13  20
ENDBRANCH  10  11
BRANCH   1  24
ATOM     23  O   UNL     1       2.131   6.975  18.011  0.00  0.00    +0.000 OA
ATOM     24  N   UNL     1       2.464   5.827  17.698  0.00  0.00    +0.000 NA
ENDBRANCH   1  24
BRANCH   5  25
ATOM     25  O   UNL     1       7.656   7.166  16.587  0.00  0.00    +0.000 OA
ATOM     26  H   UNL     1       7.096   7.964  16.527  0.00  0.00    +0.000 HD
ENDBRANCH   5  25
TORSDOF 7
ENDMDL
MODEL 5
REMARK VINA RESULT:      -7.2      1.261      2.300
REMARK  Name = 
REMARK  7 active torsions:
REMARK  status: ('A' for Active; 'I' for Inactive)
REMARK    1  A    between atoms: N_2  and  N_3
REMARK    2  A    between atoms: C_7  and  O_8
REMARK    3  A    between atoms: N_13  and  C1*_14
REMARK    4  A    between atoms: C4*_16  and  C5*_17
REMARK    5  A    between atoms: C5*_17  and  O5*_18
REMARK    6  A    between atoms: C3*_19  and  O3*_20
REMARK    7  A    between atoms: C2*_21  and  O2*_22
REMARK                            x       y       z     vdW  Elec       q    Type
REMARK                         _______ _______ _______ _____ _____    ______ ____
ROOT
ATOM      1  N   UNL     1       2.915   6.240  19.209  0.00  0.00    +0.000 N 
ATOM      2  C   UNL     1       2.017   5.433  19.919  0.00  0.00    +0.000 A 
ATOM      3  O   UNL     1       1.147   5.655  20.742  0.00  0.00    +0.000 OA
ATOM      4  C   UNL     1       2.262   4.087  19.460  0.00  0.00    +0.000 A 
ATOM      5  C   UNL     1       1.719   2.895  19.799  0.00  0.00    +0.000 A 
ATOM      6  N   UNL     1       2.155   1.758  19.244  0.00  0.00    +0.000 NA
ATOM      7  C   UNL     1       3.143   1.884  18.330  0.00  0.00    +0.000 A 
ATOM      8  N   UNL     1       3.712   3.037  17.912  0.00  0.00    +0.000 NA
ATOM      9  C   UNL     1       3.227   4.143  18.488  0.00  0.00    +0.000 A 
ATOM     10  N   UNL     1       3.536   5.486  18.173  0.00  0.00    +0.000 N 
ENDROOT
BRANCH  10  11
ATOM     11  C1* UNL     1       4.876   5.789  17.700  0.00  0.00    +0.000 C 
ATOM     12  O4* UNL     1       5.007   5.621  16.271  0.00  0.00    +0.000 OA
ATOM     13  C4* UNL     1       6.265   4.945  15.994  0.00  0.00    +0.000 C 
ATOM     14  C3* UNL     1       7.016   4.837  17.318  0.00  0.00    +0.000 C 
ATOM     15  C2* UNL     1       5.898   4.836  18.345  0.00  0.00    +0.000 C 
BRANCH  14  16
ATOM     16  O3* UNL     1       7.849   5.983  17.571  0.00  0.00    +0.000 OA
ATOM     17  H3* UNL     1       8.258   6.282  16.737  0.00  0.00    +0.000 HD
ENDBRANCH  14  16
BRANCH  15  18
ATOM     18  O2* UNL     1       6.362   5.265  19.623  0.00  0.00    +0.000 OA
ATOM     19  H2* UNL     1       5.581   5.632  20.089  0.00  0.00    +0.000 HD
ENDBRANCH  15  18
BRANCH  13  20
ATOM     20  C5* UNL     1       5.968   3.578  15.373  0.00  0.00    +0.000 C 
BRANCH  20  21
ATOM     21  O5* UNL     1       6.399   3.561  14.016  0.00  0.00    +0.000 OA
ATOM     22  H5* UNL     1       5.592   3.537  13.466  0.00  0.00    +0.000 HD
ENDBRANCH  20  21
ENDBRANCH  13  20
ENDBRANCH  10  11
BRANCH   1  24
ATOM     23  O   UNL     1       2.132   7.903  18.012  0.00  0.00    +0.000 OA
ATOM     24  N   UNL     1       2.709   7.599  19.061  0.00  0.00    +0.000 NA
ENDBRANCH   1  24
BRANCH   5  25
ATOM     25  O   UNL     1       0.695   2.776  20.693  0.00  0.00    +0.000 OA
ATOM     26  H   UNL     1       0.657   1.847  20.993  0.00  0.00    +0.000 HD
ENDBRANCH   5  25
TORSDOF 7
ENDMDL
MODEL 6
REMARK VINA RESULT:      -7.1      2.181      5.666
REMARK  Name = 
REMARK  7 active torsions:
REMARK  status: ('A' for Active; 'I' for Inactive)
REMARK    1  A    between atoms: N_2  and  N_3
REMARK    2  A    between atoms: C_7  and  O_8
REMARK    3  A    between atoms: N_13  and  C1*_14
REMARK    4  A    between atoms: C4*_16  and  C5*_17
REMARK    5  A    between atoms: C5*_17  and  O5*_18
REMARK    6  A    between atoms: C3*_19  and  O3*_20
REMARK    7  A    between atoms: C2*_21  and  O2*_22
REMARK                            x       y       z     vdW  Elec       q    Type
REMARK                         _______ _______ _______ _____ _____    ______ ____
ROOT
ATOM      1  N   UNL     1       4.994   4.066  19.697  0.00  0.00    +0.000 N 
ATOM      2  C   UNL     1       6.116   4.879  19.491  0.00  0.00    +0.000 A 
ATOM      3  O   UNL     1       7.142   5.081  20.116  0.00  0.00    +0.000 OA
ATOM      4  C   UNL     1       5.892   5.530  18.224  0.00  0.00    +0.000 A 
ATOM      5  C   UNL     1       6.615   6.434  17.523  0.00  0.00    +0.000 A 
ATOM      6  N   UNL     1       6.164   6.927  16.363  0.00  0.00    +0.000 NA
ATOM      7  C   UNL     1       4.968   6.455  15.944  0.00  0.00    +0.000 A 
ATOM      8  N   UNL     1       4.203   5.530  16.566  0.00  0.00    +0.000 NA
ATOM      9  C   UNL     1       4.710   5.060  17.711  0.00  0.00    +0.000 A 
ATOM     10  N   UNL     1       4.204   4.013  18.514  0.00  0.00    +0.000 N 
ENDROOT
BRANCH  10  11
ATOM     11  C1* UNL     1       2.765   3.816  18.558  0.00  0.00    +0.000 C 
ATOM     12  O4* UNL     1       2.190   4.239  19.814  0.00  0.00    +0.000 OA
ATOM     13  C4* UNL     1       1.219   3.243  20.241  0.00  0.00    +0.000 C 
ATOM     14  C3* UNL     1       1.080   2.237  19.102  0.00  0.00    +0.000 C 
ATOM     15  C2* UNL     1       2.426   2.323  18.405  0.00  0.00    +0.000 C 
BRANCH  14  16
ATOM     16  O3* UNL     1       0.065   2.617  18.156  0.00  0.00    +0.000 OA
ATOM     17  H3* UNL     1       0.263   3.503  17.799  0.00  0.00    +0.000 HD
ENDBRANCH  14  16
BRANCH  15  18
ATOM     18  O2* UNL     1       2.342   1.885  17.051  0.00  0.00    +0.000 OA
ATOM     19  H2* UNL     1       3.263   1.842  16.719  0.00  0.00    +0.000 HD
ENDBRANCH  15  18
BRANCH  13  20
ATOM     20  C5* UNL     1       1.708   2.598  21.540  0.00  0.00    +0.000 C 
BRANCH  20  21
ATOM     21  O5* UNL     1       2.529   3.517  22.255  0.00  0.00    +0.000 OA
ATOM     22  H5* UNL     1       3.446   3.368  21.952  0.00  0.00    +0.000 HD
ENDBRANCH  20  21
ENDBRANCH  13  20
ENDBRANCH  10  11
BRANCH   1  24
ATOM     23  O   UNL     1       5.222   1.908  20.016  0.00  0.00    +0.000 OA
ATOM     24  N   UNL     1       5.024   2.994  20.570  0.00  0.00    +0.000 NA
ENDBRANCH   1  24
BRANCH   5  25
ATOM     25  O   UNL     1       7.840   6.878  17.929  0.00  0.00    +0.000 OA
ATOM     26  H   UNL     1       8.119   7.597  17.331  0.00  0.00    +0.000 HD
ENDBRANCH   5  25
TORSDOF 7
ENDMDL
MODEL 7
REMARK VINA RESULT:      -7.1      2.148      5.643
REMARK  Name = 
REMARK  7 active torsions:
REMARK  status: ('A' for Active; 'I' for Inactive)
REMARK    1  A    between atoms: N_2  and  N_3
REMARK    2  A    between atoms: C_7  and  O_8
REMARK    3  A    between atoms: N_13  and  C1*_14
REMARK    4  A    between atoms: C4*_16  and  C5*_17
REMARK    5  A    between atoms: C5*_17  and  O5*_18
REMARK    6  A    between atoms: C3*_19  and  O3*_20
REMARK    7  A    between atoms: C2*_21  and  O2*_22
REMARK                            x       y       z     vdW  Elec       q    Type
REMARK                         _______ _______ _______ _____ _____    ______ ____
ROOT
ATOM      1  N   UNL     1       5.025   4.088  19.420  0.00  0.00    +0.000 N 
ATOM      2  C   UNL     1       6.128   4.912  19.161  0.00  0.00    +0.000 A 
ATOM      3  O   UNL     1       7.039   5.346  19.843  0.00  0.00    +0.000 OA
ATOM      4  C   UNL     1       6.067   5.204  17.750  0.00  0.00    +0.000 A 
ATOM      5  C   UNL     1       6.845   5.960  16.942  0.00  0.00    +0.000 A 
ATOM      6  N   UNL     1       6.551   6.108  15.644  0.00  0.00    +0.000 NA
ATOM      7  C   UNL     1       5.453   5.451  15.207  0.00  0.00    +0.000 A 
ATOM      8  N   UNL     1       4.646   4.652  15.940  0.00  0.00    +0.000 NA
ATOM      9  C   UNL     1       4.997   4.527  17.225  0.00  0.00    +0.000 A 
ATOM     10  N   UNL     1       4.424   3.676  18.197  0.00  0.00    +0.000 N 
ENDROOT
BRANCH  10  11
ATOM     11  C1* UNL     1       3.004   3.381  18.100  0.00  0.00    +0.000 C 
ATOM     12  O4* UNL     1       2.181   4.512  18.455  0.00  0.00    +0.000 OA
ATOM     13  C4* UNL     1       1.084   4.047  19.291  0.00  0.00    +0.000 C 
ATOM     14  C3* UNL     1       1.155   2.524  19.314  0.00  0.00    +0.000 C 
ATOM     15  C2* UNL     1       2.627   2.247  19.069  0.00  0.00    +0.000 C 
BRANCH  14  16
ATOM     16  O3* UNL     1       0.407   1.923  18.241  0.00  0.00    +0.000 OA
ATOM     17  H3* UNL     1       0.955   1.893  17.435  0.00  0.00    +0.000 HD
ENDBRANCH  14  16
BRANCH  15  18
ATOM     18  O2* UNL     1       2.833   0.939  18.538  0.00  0.00    +0.000 OA
ATOM     19  H2* UNL     1       3.531   1.027  17.857  0.00  0.00    +0.000 HD
ENDBRANCH  15  18
BRANCH  13  20
ATOM     20  C5* UNL     1       1.226   4.664  20.684  0.00  0.00    +0.000 C 
BRANCH  20  21
ATOM     21  O5* UNL     1       2.456   5.376  20.773  0.00  0.00    +0.000 OA
ATOM     22  H5* UNL     1       3.170   4.715  20.676  0.00  0.00    +0.000 HD
ENDBRANCH  20  21
ENDBRANCH  13  20
ENDBRANCH  10  11
BRANCH   1  24
ATOM     23  O   UNL     1       5.204   2.086  20.297  0.00  0.00    +0.000 OA
ATOM     24  N   UNL     1       4.972   3.275  20.538  0.00  0.00    +0.000 NA
ENDBRANCH   1  24
BRANCH   5  25
ATOM     25  O   UNL     1       7.975   6.589  17.377  0.00  0.00    +0.000 OA
ATOM     26  H   UNL     1       7.793   7.547  17.426  0.00  0.00    +0.000 HD
ENDBRANCH   5  25
TORSDOF 7
ENDMDL
MODEL 8
REMARK VINA RESULT:      -7.0      1.942      5.739
REMARK  Name = 
REMARK  7 active torsions:
REMARK  status: ('A' for Active; 'I' for Inactive)
REMARK    1  A    between atoms: N_2  and  N_3
REMARK    2  A    between atoms: C_7  and  O_8
REMARK    3  A    between atoms: N_13  and  C1*_14
REMARK    4  A    between atoms: C4*_16  and  C5*_17
REMARK    5  A    between atoms: C5*_17  and  O5*_18
REMARK    6  A    between atoms: C3*_19  and  O3*_20
REMARK    7  A    between atoms: C2*_21  and  O2*_22
REMARK                            x       y       z     vdW  Elec       q    Type
REMARK                         _______ _______ _______ _____ _____    ______ ____
ROOT
ATOM      1  N   UNL     1       3.983   4.170  17.448  0.00  0.00    +0.000 N 
ATOM      2  C   UNL     1       5.062   3.957  16.580  0.00  0.00    +0.000 A 
ATOM      3  O   UNL     1       5.370   3.059  15.817  0.00  0.00    +0.000 OA
ATOM      4  C   UNL     1       5.883   5.138  16.688  0.00  0.00    +0.000 A 
ATOM      5  C   UNL     1       7.053   5.491  16.109  0.00  0.00    +0.000 A 
ATOM      6  N   UNL     1       7.648   6.652  16.409  0.00  0.00    +0.000 NA
ATOM      7  C   UNL     1       7.002   7.435  17.302  0.00  0.00    +0.000 A 
ATOM      8  N   UNL     1       5.817   7.171  17.898  0.00  0.00    +0.000 NA
ATOM      9  C   UNL     1       5.260   6.006  17.548  0.00  0.00    +0.000 A 
ATOM     10  N   UNL     1       3.984   5.517  17.907  0.00  0.00    +0.000 N 
ENDROOT
BRANCH  10  11
ATOM     11  C1* UNL     1       3.449   5.886  19.207  0.00  0.00    +0.000 C 
ATOM     12  O4* UNL     1       3.187   4.737  20.041  0.00  0.00    +0.000 OA
ATOM     13  C4* UNL     1       1.903   4.922  20.701  0.00  0.00    +0.000 C 
ATOM     14  C3* UNL     1       1.432   6.335  20.372  0.00  0.00    +0.000 C 
ATOM     15  C2* UNL     1       2.106   6.619  19.043  0.00  0.00    +0.000 C 
BRANCH  14  16
ATOM     16  O3* UNL     1       1.902   7.306  21.325  0.00  0.00    +0.000 OA
ATOM     17  H3* UNL     1       1.649   7.031  22.226  0.00  0.00    +0.000 HD
ENDBRANCH  14  16
BRANCH  15  18
ATOM     18  O2* UNL     1       2.236   8.020  18.811  0.00  0.00    +0.000 OA
ATOM     19  H2* UNL     1       1.802   8.197  17.950  0.00  0.00    +0.000 HD
ENDBRANCH  15  18
BRANCH  13  20
ATOM     20  C5* UNL     1       0.932   3.847  20.207  0.00  0.00    +0.000 C 
BRANCH  20  21
ATOM     21  O5* UNL     1       1.602   2.593  20.125  0.00  0.00    +0.000 OA
ATOM     22  H5* UNL     1       1.671   2.252  21.038  0.00  0.00    +0.000 HD
ENDBRANCH  20  21
ENDBRANCH  13  20
ENDBRANCH  10  11
BRANCH   1  24
ATOM     23  O   UNL     1       2.875   2.289  17.654  0.00  0.00    +0.000 OA
ATOM     24  N   UNL     1       2.796   3.474  17.315  0.00  0.00    +0.000 NA
ENDBRANCH   1  24
BRANCH   5  25
ATOM     25  O   UNL     1       7.682   4.716  15.179  0.00  0.00    +0.000 OA
ATOM     26  H   UNL     1       7.001   4.264  14.644  0.00  0.00    +0.000 HD
ENDBRANCH   5  25
TORSDOF 7
ENDMDL
MODEL 9
REMARK VINA RESULT:      -6.9      2.228      5.405
REMARK  Name = 
REMARK  7 active torsions:
REMARK  status: ('A' for Active; 'I' for Inactive)
REMARK    1  A    between atoms: N_2  and  N_3
REMARK    2  A    between atoms: C_7  and  O_8
REMARK    3  A    between atoms: N_13  and  C1*_14
REMARK    4  A    between atoms: C4*_16  and  C5*_17
REMARK    5  A    between atoms: C5*_17  and  O5*_18
REMARK    6  A    between atoms: C3*_19  and  O3*_20
REMARK    7  A    between atoms: C2*_21  and  O2*_22
REMARK                            x       y       z     vdW  Elec       q    Type
REMARK                         _______ _______ _______ _____ _____    ______ ____
ROOT
ATOM      1  N   UNL     1       6.665   5.539  18.853  0.00  0.00    +0.000 N 
ATOM      2  C   UNL     1       7.242   5.847  17.614  0.00  0.00    +0.000 A 
ATOM      3  O   UNL     1       8.168   6.557  17.264  0.00  0.00    +0.000 OA
ATOM      4  C   UNL     1       6.513   5.067  16.645  0.00  0.00    +0.000 A 
ATOM      5  C   UNL     1       6.606   4.968  15.298  0.00  0.00    +0.000 A 
ATOM      6  N   UNL     1       5.769   4.185  14.606  0.00  0.00    +0.000 NA
ATOM      7  C   UNL     1       4.855   3.505  15.334  0.00  0.00    +0.000 A 
ATOM      8  N   UNL     1       4.719   3.523  16.679  0.00  0.00    +0.000 NA
ATOM      9  C   UNL     1       5.592   4.309  17.321  0.00  0.00    +0.000 A 
ATOM     10  N   UNL     1       5.772   4.438  18.716  0.00  0.00    +0.000 N 
ENDROOT
BRANCH  10  11
ATOM     11  C1* UNL     1       4.611   4.279  19.576  0.00  0.00    +0.000 C 
ATOM     12  O4* UNL     1       4.299   2.892  19.829  0.00  0.00    +0.000 OA
ATOM     13  C4* UNL     1       2.859   2.712  19.726  0.00  0.00    +0.000 C 
ATOM     14  C3* UNL     1       2.246   4.098  19.558  0.00  0.00    +0.000 C 
ATOM     15  C2* UNL     1       3.366   4.890  18.909  0.00  0.00    +0.000 C 
BRANCH  14  16
ATOM     16  O3* UNL     1       1.936   4.718  20.819  0.00  0.00    +0.000 OA
ATOM     17  H3* UNL     1       1.366   5.495  20.672  0.00  0.00    +0.000 HD
ENDBRANCH  14  16
BRANCH  15  18
ATOM     18  O2* UNL     1       3.217   6.290  19.136  0.00  0.00    +0.000 OA
ATOM     19  H2* UNL     1       3.311   6.423  20.103  0.00  0.00    +0.000 HD
ENDBRANCH  15  18
BRANCH  13  20
ATOM     20  C5* UNL     1       2.558   1.787  18.544  0.00  0.00    +0.000 C 
BRANCH  20  21
ATOM     21  O5* UNL     1       3.735   1.074  18.178  0.00  0.00    +0.000 OA
ATOM     22  H5* UNL     1       4.413   1.289  18.848  0.00  0.00    +0.000 HD
ENDBRANCH  20  21
ENDBRANCH  13  20
ENDBRANCH  10  11
BRANCH   1  24
ATOM     23  O   UNL     1       8.391   5.117  20.138  0.00  0.00    +0.000 OA
ATOM     24  N   UNL     1       7.338   5.754  20.042  0.00  0.00    +0.000 NA
ENDBRANCH   1  24
BRANCH   5  25
ATOM     25  O   UNL     1       7.555   5.625  14.571  0.00  0.00    +0.000 OA
ATOM     26  H   UNL     1       7.854   5.035  13.853  0.00  0.00    +0.000 HD
ENDBRANCH   5  25
TORSDOF 7
ENDMDL
