MODEL 1
REMARK VINA RESULT:      -6.7      0.000      0.000
REMARK  Name = 
REMARK  7 active torsions:
REMARK  status: ('A' for Active; 'I' for Inactive)
REMARK    1  A    between atoms: C_1  and  O_2
REMARK    2  A    between atoms: O_2  and  C_3
REMARK    3  A    between atoms: C_6  and  C_7
REMARK    4  A    between atoms: N_11  and  C_12
REMARK    5  A    between atoms: N_15  and  C_16
REMARK    6  A    between atoms: N_19  and  C_20
REMARK    7  A    between atoms: C_20  and  C_21
REMARK                            x       y       z     vdW  Elec       q    Type
REMARK                         _______ _______ _______ _____ _____    ______ ____
ROOT
ATOM      1  C   UNL     1       2.111   7.470  19.656  0.00  0.00    +0.000 A 
ATOM      2  C   UNL     1       2.569   6.148  19.521  0.00  0.00    +0.000 A 
ATOM      3  C   UNL     1       2.524   5.010  20.426  0.00  0.00    +0.000 A 
ATOM      4  O   UNL     1       2.145   5.091  21.594  0.00  0.00    +0.000 OA
ATOM      5  N   UNL     1       2.975   3.815  19.856  0.00  0.00    +0.000 N 
ATOM      6  C   UNL     1       2.910   2.618  20.675  0.00  0.00    +0.000 C 
ATOM      7  C   UNL     1       3.568   3.664  18.594  0.00  0.00    +0.000 A 
ATOM      8  O   UNL     1       3.991   2.566  18.217  0.00  0.00    +0.000 OA
ATOM      9  N   UNL     1       3.663   4.803  17.791  0.00  0.00    +0.000 N 
ATOM     10  C   UNL     1       4.283   4.697  16.479  0.00  0.00    +0.000 C 
ATOM     11  C   UNL     1       3.156   6.003  18.257  0.00  0.00    +0.000 A 
ATOM     12  C   UNL     1       3.129   7.220  17.636  0.00  0.00    +0.000 A 
ATOM     13  N   UNL     1       2.561   8.130  18.510  0.00  0.00    +0.000 N 
ENDROOT
BRANCH   1  17
ATOM     14  C   UNL     1      -0.114   9.501  22.757  0.00  0.00    +0.000 A 
ATOM     15  C   UNL     1      -0.764   8.634  21.882  0.00  0.00    +0.000 A 
ATOM     16  C   UNL     1      -0.053   7.942  20.891  0.00  0.00    +0.000 A 
ATOM     17  C   UNL     1       1.333   8.073  20.768  0.00  0.00    +0.000 A 
ATOM     18  C   UNL     1       1.979   8.882  21.718  0.00  0.00    +0.000 A 
ATOM     19  C   UNL     1       1.267   9.619  22.676  0.00  0.00    +0.000 A 
BRANCH  14  21
ATOM     20  C   UNL     1      -1.476  11.412  23.098  0.00  0.00    +0.000 C 
ATOM     21  O   UNL     1      -0.935  10.197  23.598  0.00  0.00    +0.000 OA
ENDBRANCH  14  21
ENDBRANCH   1  17
BRANCH  13  22
ATOM     22  C   UNL     1       2.422   9.542  18.140  0.00  0.00    +0.000 C 
BRANCH  22  23
ATOM     23  C   UNL     1       1.038  10.121  18.348  0.00  0.00    +0.000 A 
ATOM     24  C   UNL     1      -0.110   9.620  17.731  0.00  0.00    +0.000 A 
ATOM     25  C   UNL     1      -1.353  10.164  18.045  0.00  0.00    +0.000 A 
ATOM     26  C   UNL     1      -1.435  11.198  18.969  0.00  0.00    +0.000 A 
ATOM     27  C   UNL     1      -0.256  11.645  19.544  0.00  0.00    +0.000 A 
ATOM     28  N   UNL     1       0.958  11.133  19.255  0.00  0.00    +0.000 NA
ENDBRANCH  22  23
ENDBRANCH  13  22
TORSDOF 4
ENDMDL
MODEL 2
REMARK VINA RESULT:      -6.5      2.092      7.587
REMARK  Name = 
REMARK  7 active torsions:
REMARK  status: ('A' for Active; 'I' for Inactive)
REMARK    1  A    between atoms: C_1  and  O_2
REMARK    2  A    between atoms: O_2  and  C_3
REMARK    3  A    between atoms: C_6  and  C_7
REMARK    4  A    between atoms: N_11  and  C_12
REMARK    5  A    between atoms: N_15  and  C_16
REMARK    6  A    between atoms: N_19  and  C_20
REMARK    7  A    between atoms: C_20  and  C_21
REMARK                            x       y       z     vdW  Elec       q    Type
REMARK                         _______ _______ _______ _____ _____    ______ ____
ROOT
ATOM      1  C   UNL     1       2.672   6.475  19.473  0.00  0.00    +0.000 A 
ATOM      2  C   UNL     1       2.113   7.764  19.437  0.00  0.00    +0.000 A 
ATOM      3  C   UNL     1       2.302   8.877  18.519  0.00  0.00    +0.000 A 
ATOM      4  O   UNL     1       3.150   8.879  17.626  0.00  0.00    +0.000 OA
ATOM      5  N   UNL     1       1.447   9.958  18.755  0.00  0.00    +0.000 N 
ATOM      6  C   UNL     1       1.532  11.087  17.847  0.00  0.00    +0.000 C 
ATOM      7  C   UNL     1       0.567  10.104  19.838  0.00  0.00    +0.000 A 
ATOM      8  O   UNL     1      -0.096  11.137  19.982  0.00  0.00    +0.000 OA
ATOM      9  N   UNL     1       0.479   9.042  20.740  0.00  0.00    +0.000 N 
ATOM     10  C   UNL     1      -0.410   9.155  21.885  0.00  0.00    +0.000 C 
ATOM     11  C   UNL     1       1.232   7.903  20.518  0.00  0.00    +0.000 A 
ATOM     12  C   UNL     1       1.284   6.754  21.256  0.00  0.00    +0.000 A 
ATOM     13  N   UNL     1       2.211   5.912  20.666  0.00  0.00    +0.000 N 
ENDROOT
BRANCH   1  17
ATOM     14  C   UNL     1       5.351   4.368  16.815  0.00  0.00    +0.000 A 
ATOM     15  C   UNL     1       3.988   4.428  16.533  0.00  0.00    +0.000 A 
ATOM     16  C   UNL     1       3.109   5.134  17.366  0.00  0.00    +0.000 A 
ATOM     17  C   UNL     1       3.574   5.827  18.488  0.00  0.00    +0.000 A 
ATOM     18  C   UNL     1       4.963   5.827  18.702  0.00  0.00    +0.000 A 
ATOM     19  C   UNL     1       5.839   5.078  17.903  0.00  0.00    +0.000 A 
BRANCH  14  21
ATOM     20  C   UNL     1       6.197   3.966  14.635  0.00  0.00    +0.000 C 
ATOM     21  O   UNL     1       6.077   3.555  15.990  0.00  0.00    +0.000 OA
ENDBRANCH  14  21
ENDBRANCH   1  17
BRANCH  13  22
ATOM     22  C   UNL     1       2.517   4.603  21.251  0.00  0.00    +0.000 C 
BRANCH  22  23
ATOM     23  C   UNL     1       2.459   3.443  20.278  0.00  0.00    +0.000 A 
ATOM     24  C   UNL     1       1.302   3.061  19.599  0.00  0.00    +0.000 A 
ATOM     25  C   UNL     1       1.362   2.032  18.662  0.00  0.00    +0.000 A 
ATOM     26  C   UNL     1       2.573   1.402  18.413  0.00  0.00    +0.000 A 
ATOM     27  C   UNL     1       3.683   1.833  19.122  0.00  0.00    +0.000 A 
ATOM     28  N   UNL     1       3.648   2.825  20.034  0.00  0.00    +0.000 NA
ENDBRANCH  22  23
ENDBRANCH  13  22
TORSDOF 4
ENDMDL
MODEL 3
REMARK VINA RESULT:      -6.4      2.198      7.716
REMARK  Name = 
REMARK  7 active torsions:
REMARK  status: ('A' for Active; 'I' for Inactive)
REMARK    1  A    between atoms: C_1  and  O_2
REMARK    2  A    between atoms: O_2  and  C_3
REMARK    3  A    between atoms: C_6  and  C_7
REMARK    4  A    between atoms: N_11  and  C_12
REMARK    5  A    between atoms: N_15  and  C_16
REMARK    6  A    between atoms: N_19  and  C_20
REMARK    7  A    between atoms: C_20  and  C_21
REMARK                            x       y       z     vdW  Elec       q    Type
REMARK                         _______ _______ _______ _____ _____    ______ ____
ROOT
ATOM      1  C   UNL     1       2.822   6.162  19.548  0.00  0.00    +0.000 A 
ATOM      2  C   UNL     1       2.268   7.451  19.457  0.00  0.00    +0.000 A 
ATOM      3  C   UNL     1       2.541   8.561  18.557  0.00  0.00    +0.000 A 
ATOM      4  O   UNL     1       3.466   8.561  17.746  0.00  0.00    +0.000 OA
ATOM      5  N   UNL     1       1.667   9.642  18.712  0.00  0.00    +0.000 N 
ATOM      6  C   UNL     1       1.834  10.769  17.812  0.00  0.00    +0.000 C 
ATOM      7  C   UNL     1       0.692   9.791  19.709  0.00  0.00    +0.000 A 
ATOM      8  O   UNL     1       0.018  10.823  19.790  0.00  0.00    +0.000 OA
ATOM      9  N   UNL     1       0.522   8.731  20.603  0.00  0.00    +0.000 N 
ATOM     10  C   UNL     1      -0.468   8.847  21.662  0.00  0.00    +0.000 C 
ATOM     11  C   UNL     1       1.293   7.591  20.454  0.00  0.00    +0.000 A 
ATOM     12  C   UNL     1       1.278   6.445  21.196  0.00  0.00    +0.000 A 
ATOM     13  N   UNL     1       2.255   5.602  20.696  0.00  0.00    +0.000 N 
ENDROOT
BRANCH   1  17
ATOM     14  C   UNL     1       5.667   4.510  16.744  0.00  0.00    +0.000 A 
ATOM     15  C   UNL     1       6.093   4.958  17.991  0.00  0.00    +0.000 A 
ATOM     16  C   UNL     1       5.180   5.467  18.926  0.00  0.00    +0.000 A 
ATOM     17  C   UNL     1       3.810   5.512  18.651  0.00  0.00    +0.000 A 
ATOM     18  C   UNL     1       3.394   4.971  17.423  0.00  0.00    +0.000 A 
ATOM     19  C   UNL     1       4.308   4.512  16.463  0.00  0.00    +0.000 A 
BRANCH  14  21
ATOM     20  C   UNL     1       6.306   3.973  14.523  0.00  0.00    +0.000 C 
ATOM     21  O   UNL     1       6.667   4.146  15.886  0.00  0.00    +0.000 OA
ENDBRANCH  14  21
ENDBRANCH   1  17
BRANCH  13  22
ATOM     22  C   UNL     1       2.507   4.294  21.309  0.00  0.00    +0.000 C 
BRANCH  22  23
ATOM     23  C   UNL     1       2.740   3.165  20.327  0.00  0.00    +0.000 A 
ATOM     24  C   UNL     1       1.763   2.689  19.451  0.00  0.00    +0.000 A 
ATOM     25  C   UNL     1       2.091   1.701  18.525  0.00  0.00    +0.000 A 
ATOM     26  C   UNL     1       3.387   1.204  18.484  0.00  0.00    +0.000 A 
ATOM     27  C   UNL     1       4.306   1.723  19.382  0.00  0.00    +0.000 A 
ATOM     28  N   UNL     1       4.011   2.678  20.286  0.00  0.00    +0.000 NA
ENDBRANCH  22  23
ENDBRANCH  13  22
TORSDOF 4
ENDMDL
MODEL 4
REMARK VINA RESULT:      -6.2      1.900      6.930
REMARK  Name = 
REMARK  7 active torsions:
REMARK  status: ('A' for Active; 'I' for Inactive)
REMARK    1  A    between atoms: C_1  and  O_2
REMARK    2  A    between atoms: O_2  and  C_3
REMARK    3  A    between atoms: C_6  and  C_7
REMARK    4  A    between atoms: N_11  and  C_12
REMARK    5  A    between atoms: N_15  and  C_16
REMARK    6  A    between atoms: N_19  and  C_20
REMARK    7  A    between atoms: C_20  and  C_21
REMARK                            x       y       z     vdW  Elec       q    Type
REMARK                         _______ _______ _______ _____ _____    ______ ____
ROOT
ATOM      1  C   UNL     1       2.656   7.115  18.655  0.00  0.00    +0.000 A 
ATOM      2  C   UNL     1       1.920   8.034  19.423  0.00  0.00    +0.000 A 
ATOM      3  C   UNL     1       1.154   7.878  20.650  0.00  0.00    +0.000 A 
ATOM      4  O   UNL     1       0.929   6.787  21.171  0.00  0.00    +0.000 OA
ATOM      5  N   UNL     1       0.673   9.083  21.174  0.00  0.00    +0.000 N 
ATOM      6  C   UNL     1      -0.053   9.022  22.429  0.00  0.00    +0.000 C 
ATOM      7  C   UNL     1       0.747  10.346  20.567  0.00  0.00    +0.000 A 
ATOM      8  O   UNL     1       0.228  11.335  21.094  0.00  0.00    +0.000 OA
ATOM      9  N   UNL     1       1.422  10.432  19.348  0.00  0.00    +0.000 N 
ATOM     10  C   UNL     1       1.512  11.718  18.675  0.00  0.00    +0.000 C 
ATOM     11  C   UNL     1       2.000   9.294  18.813  0.00  0.00    +0.000 A 
ATOM     12  C   UNL     1       2.713   9.159  17.656  0.00  0.00    +0.000 A 
ATOM     13  N   UNL     1       3.051   7.824  17.518  0.00  0.00    +0.000 N 
ENDROOT
BRANCH   1  17
ATOM     14  C   UNL     1       3.612   2.937  19.214  0.00  0.00    +0.000 A 
ATOM     15  C   UNL     1       4.362   3.919  19.857  0.00  0.00    +0.000 A 
ATOM     16  C   UNL     1       4.046   5.277  19.713  0.00  0.00    +0.000 A 
ATOM     17  C   UNL     1       2.951   5.690  18.948  0.00  0.00    +0.000 A 
ATOM     18  C   UNL     1       2.156   4.678  18.384  0.00  0.00    +0.000 A 
ATOM     19  C   UNL     1       2.500   3.321  18.479  0.00  0.00    +0.000 A 
BRANCH  14  21
ATOM     20  C   UNL     1       4.896   1.400  20.487  0.00  0.00    +0.000 C 
ATOM     21  O   UNL     1       4.093   1.664  19.345  0.00  0.00    +0.000 OA
ENDBRANCH  14  21
ENDBRANCH   1  17
BRANCH  13  22
ATOM     22  C   UNL     1       3.798   7.354  16.347  0.00  0.00    +0.000 C 
BRANCH  22  23
ATOM     23  C   UNL     1       5.071   6.596  16.667  0.00  0.00    +0.000 A 
ATOM     24  C   UNL     1       6.143   7.149  17.369  0.00  0.00    +0.000 A 
ATOM     25  C   UNL     1       7.240   6.352  17.688  0.00  0.00    +0.000 A 
ATOM     26  C   UNL     1       7.252   5.017  17.305  0.00  0.00    +0.000 A 
ATOM     27  C   UNL     1       6.153   4.534  16.612  0.00  0.00    +0.000 A 
ATOM     28  N   UNL     1       5.081   5.287  16.292  0.00  0.00    +0.000 NA
ENDBRANCH  22  23
ENDBRANCH  13  22
TORSDOF 4
ENDMDL
MODEL 5
REMARK VINA RESULT:      -6.0      4.130      7.838
REMARK  Name = 
REMARK  7 active torsions:
REMARK  status: ('A' for Active; 'I' for Inactive)
REMARK    1  A    between atoms: C_1  and  O_2
REMARK    2  A    between atoms: O_2  and  C_3
REMARK    3  A    between atoms: C_6  and  C_7
REMARK    4  A    between atoms: N_11  and  C_12
REMARK    5  A    between atoms: N_15  and  C_16
REMARK    6  A    between atoms: N_19  and  C_20
REMARK    7  A    between atoms: C_20  and  C_21
REMARK                            x       y       z     vdW  Elec       q    Type
REMARK                         _______ _______ _______ _____ _____    ______ ____
ROOT
ATOM      1  C   UNL     1      -0.048  13.186  20.097  0.00  0.00    +0.000 A 
ATOM      2  C   UNL     1       0.693  14.380  20.068  0.00  0.00    +0.000 A 
ATOM      3  C   UNL     1       0.637  15.575  20.897  0.00  0.00    +0.000 A 
ATOM      4  O   UNL     1      -0.231  15.767  21.747  0.00  0.00    +0.000 OA
ATOM      5  N   UNL     1       1.649  16.501  20.623  0.00  0.00    +0.000 N 
ATOM      6  C   UNL     1       1.700  17.696  21.445  0.00  0.00    +0.000 C 
ATOM      7  C   UNL     1       2.578  16.436  19.574  0.00  0.00    +0.000 A 
ATOM      8  O   UNL     1       3.389  17.349  19.387  0.00  0.00    +0.000 OA
ATOM      9  N   UNL     1       2.540  15.307  18.753  0.00  0.00    +0.000 N 
ATOM     10  C   UNL     1       3.475  15.204  17.644  0.00  0.00    +0.000 C 
ATOM     11  C   UNL     1       1.621  14.308  19.020  0.00  0.00    +0.000 A 
ATOM     12  C   UNL     1       1.426  13.126  18.364  0.00  0.00    +0.000 A 
ATOM     13  N   UNL     1       0.366  12.473  18.969  0.00  0.00    +0.000 N 
ENDROOT
BRANCH   1  17
ATOM     14  C   UNL     1      -2.899  12.125  23.169  0.00  0.00    +0.000 A 
ATOM     15  C   UNL     1      -3.323  12.781  22.016  0.00  0.00    +0.000 A 
ATOM     16  C   UNL     1      -2.418  13.104  20.994  0.00  0.00    +0.000 A 
ATOM     17  C   UNL     1      -1.068  12.751  21.084  0.00  0.00    +0.000 A 
ATOM     18  C   UNL     1      -0.681  12.011  22.214  0.00  0.00    +0.000 A 
ATOM     19  C   UNL     1      -1.571  11.734  23.263  0.00  0.00    +0.000 A 
BRANCH  14  21
ATOM     20  C   UNL     1      -4.940  12.889  24.104  0.00  0.00    +0.000 C 
ATOM     21  O   UNL     1      -3.855  11.972  24.133  0.00  0.00    +0.000 OA
ENDBRANCH  14  21
ENDBRANCH   1  17
BRANCH  13  22
ATOM     22  C   UNL     1      -0.109  11.181  18.465  0.00  0.00    +0.000 C 
BRANCH  22  23
ATOM     23  C   UNL     1       0.744   9.993  18.858  0.00  0.00    +0.000 A 
ATOM     24  C   UNL     1       0.755   9.440  20.140  0.00  0.00    +0.000 A 
ATOM     25  C   UNL     1       1.510   8.296  20.389  0.00  0.00    +0.000 A 
ATOM     26  C   UNL     1       2.241   7.720  19.359  0.00  0.00    +0.000 A 
ATOM     27  C   UNL     1       2.184   8.320  18.112  0.00  0.00    +0.000 A 
ATOM     28  N   UNL     1       1.461   9.427  17.848  0.00  0.00    +0.000 NA
ENDBRANCH  22  23
ENDBRANCH  13  22
TORSDOF 4
ENDMDL
MODEL 6
REMARK VINA RESULT:      -6.0      6.109      7.845
REMARK  Name = 
REMARK  7 active torsions:
REMARK  status: ('A' for Active; 'I' for Inactive)
REMARK    1  A    between atoms: C_1  and  O_2
REMARK    2  A    between atoms: O_2  and  C_3
REMARK    3  A    between atoms: C_6  and  C_7
REMARK    4  A    between atoms: N_11  and  C_12
REMARK    5  A    between atoms: N_15  and  C_16
REMARK    6  A    between atoms: N_19  and  C_20
REMARK    7  A    between atoms: C_20  and  C_21
REMARK                            x       y       z     vdW  Elec       q    Type
REMARK                         _______ _______ _______ _____ _____    ______ ____
ROOT
ATOM      1  C   UNL     1      -1.093  12.946  20.615  0.00  0.00    +0.000 A 
ATOM      2  C   UNL     1      -0.144  13.968  20.435  0.00  0.00    +0.000 A 
ATOM      3  C   UNL     1      -0.013  15.285  21.039  0.00  0.00    +0.000 A 
ATOM      4  O   UNL     1      -0.865  15.777  21.778  0.00  0.00    +0.000 OA
ATOM      5  N   UNL     1       1.163  15.955  20.684  0.00  0.00    +0.000 N 
ATOM      6  C   UNL     1       1.400  17.253  21.289  0.00  0.00    +0.000 C 
ATOM      7  C   UNL     1       2.106  15.539  19.733  0.00  0.00    +0.000 A 
ATOM      8  O   UNL     1       3.079  16.246  19.452  0.00  0.00    +0.000 OA
ATOM      9  N   UNL     1       1.894  14.303  19.119  0.00  0.00    +0.000 N 
ATOM     10  C   UNL     1       2.839  13.837  18.116  0.00  0.00    +0.000 C 
ATOM     11  C   UNL     1       0.796  13.545  19.486  0.00  0.00    +0.000 A 
ATOM     12  C   UNL     1       0.414  12.315  19.031  0.00  0.00    +0.000 A 
ATOM     13  N   UNL     1      -0.772  11.978  19.660  0.00  0.00    +0.000 N 
ENDROOT
BRANCH   1  17
ATOM     14  C   UNL     1      -4.472  12.524  23.278  0.00  0.00    +0.000 A 
ATOM     15  C   UNL     1      -3.186  12.235  23.728  0.00  0.00    +0.000 A 
ATOM     16  C   UNL     1      -2.075  12.398  22.888  0.00  0.00    +0.000 A 
ATOM     17  C   UNL     1      -2.216  12.884  21.585  0.00  0.00    +0.000 A 
ATOM     18  C   UNL     1      -3.511  13.253  21.184  0.00  0.00    +0.000 A 
ATOM     19  C   UNL     1      -4.632  13.041  22.000  0.00  0.00    +0.000 A 
BRANCH  14  21
ATOM     20  C   UNL     1      -6.700  12.916  23.993  0.00  0.00    +0.000 C 
ATOM     21  O   UNL     1      -5.474  12.215  24.155  0.00  0.00    +0.000 OA
ENDBRANCH  14  21
ENDBRANCH   1  17
BRANCH  13  22
ATOM     22  C   UNL     1      -1.456  10.718  19.353  0.00  0.00    +0.000 C 
BRANCH  22  23
ATOM     23  C   UNL     1      -2.239  10.719  18.057  0.00  0.00    +0.000 A 
ATOM     24  C   UNL     1      -1.906   9.935  16.951  0.00  0.00    +0.000 A 
ATOM     25  C   UNL     1      -2.732   9.940  15.830  0.00  0.00    +0.000 A 
ATOM     26  C   UNL     1      -3.878  10.725  15.826  0.00  0.00    +0.000 A 
ATOM     27  C   UNL     1      -4.148  11.478  16.958  0.00  0.00    +0.000 A 
ATOM     28  N   UNL     1      -3.363  11.488  18.054  0.00  0.00    +0.000 NA
ENDBRANCH  22  23
ENDBRANCH  13  22
TORSDOF 4
ENDMDL
MODEL 7
REMARK VINA RESULT:      -6.0      4.103      8.014
REMARK  Name = 
REMARK  7 active torsions:
REMARK  status: ('A' for Active; 'I' for Inactive)
REMARK    1  A    between atoms: C_1  and  O_2
REMARK    2  A    between atoms: O_2  and  C_3
REMARK    3  A    between atoms: C_6  and  C_7
REMARK    4  A    between atoms: N_11  and  C_12
REMARK    5  A    between atoms: N_15  and  C_16
REMARK    6  A    between atoms: N_19  and  C_20
REMARK    7  A    between atoms: C_20  and  C_21
REMARK                            x       y       z     vdW  Elec       q    Type
REMARK                         _______ _______ _______ _____ _____    ______ ____
ROOT
ATOM      1  C   UNL     1      -0.133  12.505  19.714  0.00  0.00    +0.000 A 
ATOM      2  C   UNL     1       0.622  13.691  19.723  0.00  0.00    +0.000 A 
ATOM      3  C   UNL     1       0.405  14.982  19.090  0.00  0.00    +0.000 A 
ATOM      4  O   UNL     1      -0.502  15.196  18.287  0.00  0.00    +0.000 OA
ATOM      5  N   UNL     1       1.337  15.957  19.460  0.00  0.00    +0.000 N 
ATOM      6  C   UNL     1       1.158  17.292  18.918  0.00  0.00    +0.000 C 
ATOM      7  C   UNL     1       2.486  15.761  20.241  0.00  0.00    +0.000 A 
ATOM      8  O   UNL     1       3.278  16.685  20.451  0.00  0.00    +0.000 OA
ATOM      9  N   UNL     1       2.696  14.481  20.761  0.00  0.00    +0.000 N 
ATOM     10  C   UNL     1       3.881  14.227  21.564  0.00  0.00    +0.000 C 
ATOM     11  C   UNL     1       1.766  13.488  20.508  0.00  0.00    +0.000 A 
ATOM     12  C   UNL     1       1.766  12.189  20.928  0.00  0.00    +0.000 A 
ATOM     13  N   UNL     1       0.653  11.567  20.389  0.00  0.00    +0.000 N 
ENDROOT
BRANCH   1  17
ATOM     14  C   UNL     1      -3.965  11.490  17.990  0.00  0.00    +0.000 A 
ATOM     15  C   UNL     1      -3.899  12.096  19.242  0.00  0.00    +0.000 A 
ATOM     16  C   UNL     1      -2.667  12.462  19.803  0.00  0.00    +0.000 A 
ATOM     17  C   UNL     1      -1.468  12.260  19.112  0.00  0.00    +0.000 A 
ATOM     18  C   UNL     1      -1.566  11.731  17.815  0.00  0.00    +0.000 A 
ATOM     19  C   UNL     1      -2.791  11.313  17.272  0.00  0.00    +0.000 A 
BRANCH  14  21
ATOM     20  C   UNL     1      -6.312  11.776  18.183  0.00  0.00    +0.000 C 
ATOM     21  O   UNL     1      -5.213  11.081  17.610  0.00  0.00    +0.000 OA
ENDBRANCH  14  21
ENDBRANCH   1  17
BRANCH  13  22
ATOM     22  C   UNL     1       0.392  10.146  20.635  0.00  0.00    +0.000 C 
BRANCH  22  23
ATOM     23  C   UNL     1       1.147   9.194  19.730  0.00  0.00    +0.000 A 
ATOM     24  C   UNL     1       1.456   9.476  18.398  0.00  0.00    +0.000 A 
ATOM     25  C   UNL     1       2.225   8.576  17.665  0.00  0.00    +0.000 A 
ATOM     26  C   UNL     1       2.678   7.410  18.269  0.00  0.00    +0.000 A 
ATOM     27  C   UNL     1       2.335   7.195  19.594  0.00  0.00    +0.000 A 
ATOM     28  N   UNL     1       1.591   8.052  20.323  0.00  0.00    +0.000 NA
ENDBRANCH  22  23
ENDBRANCH  13  22
TORSDOF 4
ENDMDL
MODEL 8
REMARK VINA RESULT:      -5.9      5.743      8.944
REMARK  Name = 
REMARK  7 active torsions:
REMARK  status: ('A' for Active; 'I' for Inactive)
REMARK    1  A    between atoms: C_1  and  O_2
REMARK    2  A    between atoms: O_2  and  C_3
REMARK    3  A    between atoms: C_6  and  C_7
REMARK    4  A    between atoms: N_11  and  C_12
REMARK    5  A    between atoms: N_15  and  C_16
REMARK    6  A    between atoms: N_19  and  C_20
REMARK    7  A    between atoms: C_20  and  C_21
REMARK                            x       y       z     vdW  Elec       q    Type
REMARK                         _______ _______ _______ _____ _____    ______ ____
ROOT
ATOM      1  C   UNL     1      -0.801  12.929  20.709  0.00  0.00    +0.000 A 
ATOM      2  C   UNL     1       0.051  14.041  20.586  0.00  0.00    +0.000 A 
ATOM      3  C   UNL     1       0.826  14.548  19.465  0.00  0.00    +0.000 A 
ATOM      4  O   UNL     1       0.942  13.946  18.398  0.00  0.00    +0.000 OA
ATOM      5  N   UNL     1       1.449  15.774  19.716  0.00  0.00    +0.000 N 
ATOM      6  C   UNL     1       2.196  16.379  18.628  0.00  0.00    +0.000 C 
ATOM      7  C   UNL     1       1.499  16.449  20.945  0.00  0.00    +0.000 A 
ATOM      8  O   UNL     1       2.138  17.499  21.068  0.00  0.00    +0.000 OA
ATOM      9  N   UNL     1       0.807  15.880  22.017  0.00  0.00    +0.000 N 
ATOM     10  C   UNL     1       0.842  16.537  23.313  0.00  0.00    +0.000 C 
ATOM     11  C   UNL     1       0.094  14.711  21.816  0.00  0.00    +0.000 A 
ATOM     12  C   UNL     1      -0.659  14.004  22.710  0.00  0.00    +0.000 A 
ATOM     13  N   UNL     1      -1.146  12.882  22.062  0.00  0.00    +0.000 N 
ENDROOT
BRANCH   1  17
ATOM     14  C   UNL     1      -2.047  10.390  17.439  0.00  0.00    +0.000 A 
ATOM     15  C   UNL     1      -0.856  10.131  18.113  0.00  0.00    +0.000 A 
ATOM     16  C   UNL     1      -0.452  10.924  19.197  0.00  0.00    +0.000 A 
ATOM     17  C   UNL     1      -1.244  11.980  19.657  0.00  0.00    +0.000 A 
ATOM     18  C   UNL     1      -2.483  12.166  19.020  0.00  0.00    +0.000 A 
ATOM     19  C   UNL     1      -2.866  11.411  17.902  0.00  0.00    +0.000 A 
BRANCH  14  21
ATOM     20  C   UNL     1      -2.855  10.263  15.213  0.00  0.00    +0.000 C 
ATOM     21  O   UNL     1      -2.266   9.618  16.333  0.00  0.00    +0.000 OA
ENDBRANCH  14  21
ENDBRANCH   1  17
BRANCH  13  22
ATOM     22  C   UNL     1      -1.970  11.900  22.774  0.00  0.00    +0.000 C 
BRANCH  22  23
ATOM     23  C   UNL     1      -3.387  12.350  23.063  0.00  0.00    +0.000 A 
ATOM     24  C   UNL     1      -4.233  12.906  22.103  0.00  0.00    +0.000 A 
ATOM     25  C   UNL     1      -5.548  13.215  22.440  0.00  0.00    +0.000 A 
ATOM     26  C   UNL     1      -6.002  12.965  23.728  0.00  0.00    +0.000 A 
ATOM     27  C   UNL     1      -5.109  12.410  24.631  0.00  0.00    +0.000 A 
ATOM     28  N   UNL     1      -3.832  12.103  24.326  0.00  0.00    +0.000 NA
ENDBRANCH  22  23
ENDBRANCH  13  22
TORSDOF 4
ENDMDL
MODEL 9
REMARK VINA RESULT:      -5.9      4.303      8.065
REMARK  Name = 
REMARK  7 active torsions:
REMARK  status: ('A' for Active; 'I' for Inactive)
REMARK    1  A    between atoms: C_1  and  O_2
REMARK    2  A    between atoms: O_2  and  C_3
REMARK    3  A    between atoms: C_6  and  C_7
REMARK    4  A    between atoms: N_11  and  C_12
REMARK    5  A    between atoms: N_15  and  C_16
REMARK    6  A    between atoms: N_19  and  C_20
REMARK    7  A    between atoms: C_20  and  C_21
REMARK                            x       y       z     vdW  Elec       q    Type
REMARK                         _______ _______ _______ _____ _____    ______ ____
ROOT
ATOM      1  C   UNL     1      -0.152  13.522  20.065  0.00  0.00    +0.000 A 
ATOM      2  C   UNL     1       0.667  14.658  19.947  0.00  0.00    +0.000 A 
ATOM      3  C   UNL     1       0.602  15.969  20.574  0.00  0.00    +0.000 A 
ATOM      4  O   UNL     1      -0.339  16.335  21.276  0.00  0.00    +0.000 OA
ATOM      5  N   UNL     1       1.699  16.789  20.288  0.00  0.00    +0.000 N 
ATOM      6  C   UNL     1       1.741  18.093  20.922  0.00  0.00    +0.000 C 
ATOM      7  C   UNL     1       2.732  16.514  19.380  0.00  0.00    +0.000 A 
ATOM      8  O   UNL     1       3.620  17.343  19.157  0.00  0.00    +0.000 OA
ATOM      9  N   UNL     1       2.708  15.273  18.738  0.00  0.00    +0.000 N 
ATOM     10  C   UNL     1       3.751  14.950  17.778  0.00  0.00    +0.000 C 
ATOM     11  C   UNL     1       1.699  14.376  19.040  0.00  0.00    +0.000 A 
ATOM     12  C   UNL     1       1.498  13.117  18.549  0.00  0.00    +0.000 A 
ATOM     13  N   UNL     1       0.335  12.622  19.113  0.00  0.00    +0.000 N 
ENDROOT
BRANCH   1  17
ATOM     14  C   UNL     1      -3.554  12.608  22.570  0.00  0.00    +0.000 A 
ATOM     15  C   UNL     1      -2.269  12.601  23.105  0.00  0.00    +0.000 A 
ATOM     16  C   UNL     1      -1.156  12.926  22.315  0.00  0.00    +0.000 A 
ATOM     17  C   UNL     1      -1.302  13.299  20.976  0.00  0.00    +0.000 A 
ATOM     18  C   UNL     1      -2.615  13.387  20.483  0.00  0.00    +0.000 A 
ATOM     19  C   UNL     1      -3.726  13.009  21.252  0.00  0.00    +0.000 A 
BRANCH  14  21
ATOM     20  C   UNL     1      -4.377  12.469  24.790  0.00  0.00    +0.000 C 
ATOM     21  O   UNL     1      -4.534  12.161  23.412  0.00  0.00    +0.000 OA
ENDBRANCH  14  21
ENDBRANCH   1  17
BRANCH  13  22
ATOM     22  C   UNL     1      -0.169  11.292  18.755  0.00  0.00    +0.000 C 
BRANCH  22  23
ATOM     23  C   UNL     1       0.405  10.153  19.573  0.00  0.00    +0.000 A 
ATOM     24  C   UNL     1      -0.020   9.840  20.865  0.00  0.00    +0.000 A 
ATOM     25  C   UNL     1       0.507   8.724  21.511  0.00  0.00    +0.000 A 
ATOM     26  C   UNL     1       1.448   7.937  20.860  0.00  0.00    +0.000 A 
ATOM     27  C   UNL     1       1.823   8.305  19.578  0.00  0.00    +0.000 A 
ATOM     28  N   UNL     1       1.326   9.381  18.934  0.00  0.00    +0.000 NA
ENDBRANCH  22  23
ENDBRANCH  13  22
TORSDOF 4
ENDMDL
