MODEL 1
REMARK VINA RESULT:      -8.7      0.000      0.000
REMARK  Name = 
REMARK  6 active torsions:
REMARK  status: ('A' for Active; 'I' for Inactive)
REMARK    1  A    between atoms: C_1  and  C_2
REMARK    2  A    between atoms: C_5  and  C_6
REMARK    3  A    between atoms: C_10  and  C_11
REMARK    4  A    between atoms: N_13  and  C_14
REMARK    5  A    between atoms: C_14  and  C_15
REMARK    6  A    between atoms: C_26  and  C_27
REMARK                            x       y       z     vdW  Elec       q    Type
REMARK                         _______ _______ _______ _____ _____    ______ ____
ROOT
ATOM      1  C   UNL     1       5.013   4.310  19.099  0.00  0.00    +0.000 C 
ATOM      2  O   UNL     1       5.472   3.210  19.392  0.00  0.00    +0.000 OA
ATOM      3  N   UNL     1       5.628   5.174  18.231  0.00  0.00    +0.000 N 
ATOM      4  H   UNL     1       5.210   6.054  17.961  0.00  0.00    +0.000 HD
ENDROOT
BRANCH   1   9
ATOM      5  C   UNL     1       2.035   6.451  20.197  0.00  0.00    +0.000 A 
ATOM      6  C   UNL     1       1.194   5.416  20.646  0.00  0.00    +0.000 A 
ATOM      7  C   UNL     1       1.628   4.088  20.697  0.00  0.00    +0.000 A 
ATOM      8  C   UNL     1       2.888   3.750  20.217  0.00  0.00    +0.000 A 
ATOM      9  C   UNL     1       3.707   4.733  19.660  0.00  0.00    +0.000 A 
ATOM     10  C   UNL     1       3.291   6.074  19.672  0.00  0.00    +0.000 A 
BRANCH   5  15
ATOM     11  C   UNL     1       0.307  11.951  20.593  0.00  0.00    +0.000 C 
ATOM     12  C   UNL     1       0.784  10.531  20.539  0.00  0.00    +0.000 A 
ATOM     13  C   UNL     1       0.803   9.729  21.663  0.00  0.00    +0.000 A 
ATOM     14  C   UNL     1       1.247   8.414  21.536  0.00  0.00    +0.000 A 
ATOM     15  C   UNL     1       1.650   7.884  20.292  0.00  0.00    +0.000 A 
ATOM     16  C   UNL     1       1.587   8.782  19.207  0.00  0.00    +0.000 A 
ATOM     17  C   UNL     1       1.946   8.441  17.789  0.00  0.00    +0.000 C 
ATOM     18  N   UNL     1       1.181  10.078  19.334  0.00  0.00    +0.000 NA
ENDBRANCH   5  15
ENDBRANCH   1   9
BRANCH   3  19
ATOM     19  C   UNL     1       6.897   4.861  17.612  0.00  0.00    +0.000 C 
BRANCH  19  20
ATOM     20  C   UNL     1       6.687   4.648  16.152  0.00  0.00    +0.000 A 
ATOM     21  C   UNL     1       5.605   3.979  15.527  0.00  0.00    +0.000 A 
ATOM     22  C   UNL     1       5.809   4.133  14.172  0.00  0.00    +0.000 A 
ATOM     23  N   UNL     1       6.983   4.830  14.059  0.00  0.00    +0.000 N 
ATOM     24  N   UNL     1       7.546   5.142  15.244  0.00  0.00    +0.000 NA
ATOM     25  C   UNL     1       7.583   5.332  12.842  0.00  0.00    +0.000 C 
ATOM     26  C   UNL     1       7.634   4.374  11.652  0.00  0.00    +0.000 C 
ATOM     27  C   UNL     1       7.032   2.988  11.862  0.00  0.00    +0.000 C 
ATOM     28  N   UNL     1       5.580   2.962  11.975  0.00  0.00    +0.000 NA
ATOM     29  C   UNL     1       4.958   3.778  13.013  0.00  0.00    +0.000 C 
ATOM     30  H   UNL     1       5.274   1.996  12.083  0.00  0.00    +0.000 HD
ENDBRANCH  19  20
ENDBRANCH   3  19
TORSDOF 4
ENDMDL
MODEL 2
REMARK VINA RESULT:      -8.5      0.710      1.404
REMARK  Name = 
REMARK  6 active torsions:
REMARK  status: ('A' for Active; 'I' for Inactive)
REMARK    1  A    between atoms: C_1  and  C_2
REMARK    2  A    between atoms: C_5  and  C_6
REMARK    3  A    between atoms: C_10  and  C_11
REMARK    4  A    between atoms: N_13  and  C_14
REMARK    5  A    between atoms: C_14  and  C_15
REMARK    6  A    between atoms: C_26  and  C_27
REMARK                            x       y       z     vdW  Elec       q    Type
REMARK                         _______ _______ _______ _____ _____    ______ ____
ROOT
ATOM      1  C   UNL     1       5.053   4.419  19.029  0.00  0.00    +0.000 C 
ATOM      2  O   UNL     1       5.359   3.254  19.265  0.00  0.00    +0.000 OA
ATOM      3  N   UNL     1       5.791   5.240  18.218  0.00  0.00    +0.000 N 
ATOM      4  H   UNL     1       5.496   6.181  17.994  0.00  0.00    +0.000 HD
ENDROOT
BRANCH   1   9
ATOM      5  C   UNL     1       2.144   6.776  19.831  0.00  0.00    +0.000 A 
ATOM      6  C   UNL     1       1.392   5.904  20.640  0.00  0.00    +0.000 A 
ATOM      7  C   UNL     1       1.872   4.643  21.004  0.00  0.00    +0.000 A 
ATOM      8  C   UNL     1       3.082   4.187  20.494  0.00  0.00    +0.000 A 
ATOM      9  C   UNL     1       3.803   4.978  19.598  0.00  0.00    +0.000 A 
ATOM     10  C   UNL     1       3.347   6.270  19.289  0.00  0.00    +0.000 A 
BRANCH   5  15
ATOM     11  C   UNL     1       0.748  12.289  18.809  0.00  0.00    +0.000 C 
ATOM     12  C   UNL     1       1.084  10.845  19.025  0.00  0.00    +0.000 A 
ATOM     13  C   UNL     1       1.553  10.048  17.998  0.00  0.00    +0.000 A 
ATOM     14  C   UNL     1       1.858   8.716  18.276  0.00  0.00    +0.000 A 
ATOM     15  C   UNL     1       1.724   8.179  19.572  0.00  0.00    +0.000 A 
ATOM     16  C   UNL     1       1.245   9.076  20.548  0.00  0.00    +0.000 A 
ATOM     17  C   UNL     1       1.039   8.738  21.998  0.00  0.00    +0.000 C 
ATOM     18  N   UNL     1       0.917  10.371  20.275  0.00  0.00    +0.000 NA
ENDBRANCH   5  15
ENDBRANCH   1   9
BRANCH   3  19
ATOM     19  C   UNL     1       7.019   4.798  17.596  0.00  0.00    +0.000 C 
BRANCH  19  20
ATOM     20  C   UNL     1       6.783   4.600  16.139  0.00  0.00    +0.000 A 
ATOM     21  C   UNL     1       5.711   3.906  15.526  0.00  0.00    +0.000 A 
ATOM     22  C   UNL     1       5.879   4.087  14.170  0.00  0.00    +0.000 A 
ATOM     23  N   UNL     1       7.026   4.823  14.042  0.00  0.00    +0.000 N 
ATOM     24  N   UNL     1       7.605   5.136  15.220  0.00  0.00    +0.000 NA
ATOM     25  C   UNL     1       7.581   5.364  12.821  0.00  0.00    +0.000 C 
ATOM     26  C   UNL     1       7.637   4.427  11.615  0.00  0.00    +0.000 C 
ATOM     27  C   UNL     1       7.085   3.019  11.816  0.00  0.00    +0.000 C 
ATOM     28  N   UNL     1       5.638   2.943  11.961  0.00  0.00    +0.000 NA
ATOM     29  C   UNL     1       5.014   3.722  13.024  0.00  0.00    +0.000 C 
ATOM     30  H   UNL     1       5.366   1.965  12.059  0.00  0.00    +0.000 HD
ENDBRANCH  19  20
ENDBRANCH   3  19
TORSDOF 4
ENDMDL
MODEL 3
REMARK VINA RESULT:      -8.3      4.529     10.654
REMARK  Name = 
REMARK  6 active torsions:
REMARK  status: ('A' for Active; 'I' for Inactive)
REMARK    1  A    between atoms: C_1  and  C_2
REMARK    2  A    between atoms: C_5  and  C_6
REMARK    3  A    between atoms: C_10  and  C_11
REMARK    4  A    between atoms: N_13  and  C_14
REMARK    5  A    between atoms: C_14  and  C_15
REMARK    6  A    between atoms: C_26  and  C_27
REMARK                            x       y       z     vdW  Elec       q    Type
REMARK                         _______ _______ _______ _____ _____    ______ ____
ROOT
ATOM      1  C   UNL     1       0.328  10.625  18.566  0.00  0.00    +0.000 C 
ATOM      2  O   UNL     1       0.946  11.685  18.569  0.00  0.00    +0.000 OA
ATOM      3  N   UNL     1      -0.928  10.488  18.038  0.00  0.00    +0.000 N 
ATOM      4  H   UNL     1      -1.402   9.595  17.998  0.00  0.00    +0.000 HD
ENDROOT
BRANCH   1   9
ATOM      5  C   UNL     1       2.443   7.450  18.901  0.00  0.00    +0.000 A 
ATOM      6  C   UNL     1       2.194   7.181  20.260  0.00  0.00    +0.000 A 
ATOM      7  C   UNL     1       1.281   7.936  21.002  0.00  0.00    +0.000 A 
ATOM      8  C   UNL     1       0.658   9.037  20.424  0.00  0.00    +0.000 A 
ATOM      9  C   UNL     1       0.966   9.403  19.113  0.00  0.00    +0.000 A 
ATOM     10  C   UNL     1       1.834   8.601  18.353  0.00  0.00    +0.000 A 
BRANCH   5  15
ATOM     11  C   UNL     1       5.607   4.093  15.422  0.00  0.00    +0.000 C 
ATOM     12  C   UNL     1       4.835   4.986  16.344  0.00  0.00    +0.000 A 
ATOM     13  C   UNL     1       5.176   6.313  16.524  0.00  0.00    +0.000 A 
ATOM     14  C   UNL     1       4.404   7.088  17.388  0.00  0.00    +0.000 A 
ATOM     15  C   UNL     1       3.281   6.558  18.056  0.00  0.00    +0.000 A 
ATOM     16  C   UNL     1       3.015   5.198  17.800  0.00  0.00    +0.000 A 
ATOM     17  C   UNL     1       1.866   4.423  18.381  0.00  0.00    +0.000 C 
ATOM     18  N   UNL     1       3.785   4.428  16.979  0.00  0.00    +0.000 NA
ENDBRANCH   5  15
ENDBRANCH   1   9
BRANCH   3  19
ATOM     19  C   UNL     1      -1.642  11.607  17.464  0.00  0.00    +0.000 C 
BRANCH  19  20
ATOM     20  C   UNL     1      -3.020  11.647  18.030  0.00  0.00    +0.000 A 
ATOM     21  C   UNL     1      -4.186  11.039  17.502  0.00  0.00    +0.000 A 
ATOM     22  C   UNL     1      -5.178  11.274  18.429  0.00  0.00    +0.000 A 
ATOM     23  N   UNL     1      -4.585  12.019  19.414  0.00  0.00    +0.000 N 
ATOM     24  N   UNL     1      -3.279  12.274  19.190  0.00  0.00    +0.000 NA
ATOM     25  C   UNL     1      -5.179  12.439  20.664  0.00  0.00    +0.000 C 
ATOM     26  C   UNL     1      -6.591  13.019  20.596  0.00  0.00    +0.000 C 
ATOM     27  C   UNL     1      -7.240  13.082  19.217  0.00  0.00    +0.000 C 
ATOM     28  N   UNL     1      -7.614  11.791  18.656  0.00  0.00    +0.000 NA
ATOM     29  C   UNL     1      -6.572  10.780  18.511  0.00  0.00    +0.000 C 
ATOM     30  H   UNL     1      -8.062  11.940  17.753  0.00  0.00    +0.000 HD
ENDBRANCH  19  20
ENDBRANCH   3  19
TORSDOF 4
ENDMDL
MODEL 4
REMARK VINA RESULT:      -8.2      4.037      6.909
REMARK  Name = 
REMARK  6 active torsions:
REMARK  status: ('A' for Active; 'I' for Inactive)
REMARK    1  A    between atoms: C_1  and  C_2
REMARK    2  A    between atoms: C_5  and  C_6
REMARK    3  A    between atoms: C_10  and  C_11
REMARK    4  A    between atoms: N_13  and  C_14
REMARK    5  A    between atoms: C_14  and  C_15
REMARK    6  A    between atoms: C_26  and  C_27
REMARK                            x       y       z     vdW  Elec       q    Type
REMARK                         _______ _______ _______ _____ _____    ______ ____
ROOT
ATOM      1  C   UNL     1       1.014   9.565  20.997  0.00  0.00    +0.000 C 
ATOM      2  O   UNL     1       1.303   9.846  22.157  0.00  0.00    +0.000 OA
ATOM      3  N   UNL     1       1.131   8.303  20.478  0.00  0.00    +0.000 N 
ATOM      4  H   UNL     1       0.841   8.079  19.536  0.00  0.00    +0.000 HD
ENDROOT
BRANCH   1   9
ATOM      5  C   UNL     1      -1.411  11.773  19.020  0.00  0.00    +0.000 A 
ATOM      6  C   UNL     1      -0.475  12.678  18.487  0.00  0.00    +0.000 A 
ATOM      7  C   UNL     1       0.900  12.504  18.669  0.00  0.00    +0.000 A 
ATOM      8  C   UNL     1       1.370  11.465  19.466  0.00  0.00    +0.000 A 
ATOM      9  C   UNL     1       0.466  10.614  20.104  0.00  0.00    +0.000 A 
ATOM     10  C   UNL     1      -0.910  10.755  19.863  0.00  0.00    +0.000 A 
BRANCH   5  15
ATOM     11  C   UNL     1      -7.084  11.890  17.929  0.00  0.00    +0.000 C 
ATOM     12  C   UNL     1      -5.617  11.913  18.232  0.00  0.00    +0.000 A 
ATOM     13  C   UNL     1      -5.127  12.444  19.410  0.00  0.00    +0.000 A 
ATOM     14  C   UNL     1      -3.751  12.419  19.630  0.00  0.00    +0.000 A 
ATOM     15  C   UNL     1      -2.861  11.848  18.698  0.00  0.00    +0.000 A 
ATOM     16  C   UNL     1      -3.461  11.328  17.533  0.00  0.00    +0.000 A 
ATOM     17  C   UNL     1      -2.720  10.657  16.411  0.00  0.00    +0.000 C 
ATOM     18  N   UNL     1      -4.804  11.378  17.300  0.00  0.00    +0.000 NA
ENDBRANCH   5  15
ENDBRANCH   1   9
BRANCH   3  19
ATOM     19  C   UNL     1       1.640   7.198  21.260  0.00  0.00    +0.000 C 
BRANCH  19  20
ATOM     20  C   UNL     1       1.822   6.016  20.372  0.00  0.00    +0.000 A 
ATOM     21  C   UNL     1       1.091   4.803  20.392  0.00  0.00    +0.000 A 
ATOM     22  C   UNL     1       1.560   4.071  19.321  0.00  0.00    +0.000 A 
ATOM     23  N   UNL     1       2.542   4.841  18.757  0.00  0.00    +0.000 N 
ATOM     24  N   UNL     1       2.733   6.021  19.383  0.00  0.00    +0.000 NA
ATOM     25  C   UNL     1       3.275   4.564  17.542  0.00  0.00    +0.000 C 
ATOM     26  C   UNL     1       3.811   3.142  17.371  0.00  0.00    +0.000 C 
ATOM     27  C   UNL     1       3.503   2.154  18.491  0.00  0.00    +0.000 C 
ATOM     28  N   UNL     1       2.108   1.746  18.582  0.00  0.00    +0.000 NA
ATOM     29  C   UNL     1       1.099   2.788  18.743  0.00  0.00    +0.000 C 
ATOM     30  H   UNL     1       2.010   1.068  19.337  0.00  0.00    +0.000 HD
ENDBRANCH  19  20
ENDBRANCH   3  19
TORSDOF 4
ENDMDL
MODEL 5
REMARK VINA RESULT:      -8.2      4.307      6.797
REMARK  Name = 
REMARK  6 active torsions:
REMARK  status: ('A' for Active; 'I' for Inactive)
REMARK    1  A    between atoms: C_1  and  C_2
REMARK    2  A    between atoms: C_5  and  C_6
REMARK    3  A    between atoms: C_10  and  C_11
REMARK    4  A    between atoms: N_13  and  C_14
REMARK    5  A    between atoms: C_14  and  C_15
REMARK    6  A    between atoms: C_26  and  C_27
REMARK                            x       y       z     vdW  Elec       q    Type
REMARK                         _______ _______ _______ _____ _____    ______ ____
ROOT
ATOM      1  C   UNL     1       1.613   9.898  18.063  0.00  0.00    +0.000 C 
ATOM      2  O   UNL     1       2.466  10.648  17.598  0.00  0.00    +0.000 OA
ATOM      3  N   UNL     1       1.805   8.552  18.230  0.00  0.00    +0.000 N 
ATOM      4  H   UNL     1       1.111   7.958  18.662  0.00  0.00    +0.000 HD
ENDROOT
BRANCH   1   9
ATOM      5  C   UNL     1      -1.025  11.882  20.004  0.00  0.00    +0.000 A 
ATOM      6  C   UNL     1      -2.152  11.525  19.240  0.00  0.00    +0.000 A 
ATOM      7  C   UNL     1      -2.071  10.585  18.209  0.00  0.00    +0.000 A 
ATOM      8  C   UNL     1      -0.841  10.042  17.859  0.00  0.00    +0.000 A 
ATOM      9  C   UNL     1       0.317  10.456  18.520  0.00  0.00    +0.000 A 
ATOM     10  C   UNL     1       0.219  11.350  19.598  0.00  0.00    +0.000 A 
BRANCH   5  15
ATOM     11  C   UNL     1      -1.180  15.319  24.646  0.00  0.00    +0.000 C 
ATOM     12  C   UNL     1      -1.178  14.462  23.418  0.00  0.00    +0.000 A 
ATOM     13  C   UNL     1      -1.160  15.011  22.150  0.00  0.00    +0.000 A 
ATOM     14  C   UNL     1      -1.146  14.151  21.052  0.00  0.00    +0.000 A 
ATOM     15  C   UNL     1      -1.125  12.750  21.207  0.00  0.00    +0.000 A 
ATOM     16  C   UNL     1      -1.139  12.292  22.540  0.00  0.00    +0.000 A 
ATOM     17  C   UNL     1      -1.102  10.848  22.952  0.00  0.00    +0.000 C 
ATOM     18  N   UNL     1      -1.183  13.129  23.617  0.00  0.00    +0.000 NA
ENDBRANCH   5  15
ENDBRANCH   1   9
BRANCH   3  19
ATOM     19  C   UNL     1       3.035   7.901  17.835  0.00  0.00    +0.000 C 
BRANCH  19  20
ATOM     20  C   UNL     1       3.110   6.565  18.491  0.00  0.00    +0.000 A 
ATOM     21  C   UNL     1       3.967   5.488  18.156  0.00  0.00    +0.000 A 
ATOM     22  C   UNL     1       3.733   4.519  19.107  0.00  0.00    +0.000 A 
ATOM     23  N   UNL     1       2.751   5.031  19.913  0.00  0.00    +0.000 N 
ATOM     24  N   UNL     1       2.343   6.266  19.554  0.00  0.00    +0.000 NA
ATOM     25  C   UNL     1       2.223   4.441  21.123  0.00  0.00    +0.000 C 
ATOM     26  C   UNL     1       1.883   2.951  21.071  0.00  0.00    +0.000 C 
ATOM     27  C   UNL     1       2.152   2.233  19.753  0.00  0.00    +0.000 C 
ATOM     28  N   UNL     1       3.561   2.046  19.433  0.00  0.00    +0.000 NA
ATOM     29  C   UNL     1       4.412   3.229  19.371  0.00  0.00    +0.000 C 
ATOM     30  H   UNL     1       3.636   1.534  18.555  0.00  0.00    +0.000 HD
ENDBRANCH  19  20
ENDBRANCH   3  19
TORSDOF 4
ENDMDL
MODEL 6
REMARK VINA RESULT:      -8.2      3.369      6.049
REMARK  Name = 
REMARK  6 active torsions:
REMARK  status: ('A' for Active; 'I' for Inactive)
REMARK    1  A    between atoms: C_1  and  C_2
REMARK    2  A    between atoms: C_5  and  C_6
REMARK    3  A    between atoms: C_10  and  C_11
REMARK    4  A    between atoms: N_13  and  C_14
REMARK    5  A    between atoms: C_14  and  C_15
REMARK    6  A    between atoms: C_26  and  C_27
REMARK                            x       y       z     vdW  Elec       q    Type
REMARK                         _______ _______ _______ _____ _____    ______ ____
ROOT
ATOM      1  C   UNL     1       0.691   9.724  19.254  0.00  0.00    +0.000 C 
ATOM      2  O   UNL     1       0.109  10.338  18.364  0.00  0.00    +0.000 OA
ATOM      3  N   UNL     1       1.748   8.885  19.022  0.00  0.00    +0.000 N 
ATOM      4  H   UNL     1       2.248   8.427  19.772  0.00  0.00    +0.000 HD
ENDROOT
BRANCH   1   9
ATOM      5  C   UNL     1      -0.934  11.133  22.422  0.00  0.00    +0.000 A 
ATOM      6  C   UNL     1      -0.516  10.139  23.326  0.00  0.00    +0.000 A 
ATOM      7  C   UNL     1       0.357   9.117  22.940  0.00  0.00    +0.000 A 
ATOM      8  C   UNL     1       0.765   9.015  21.615  0.00  0.00    +0.000 A 
ATOM      9  C   UNL     1       0.281   9.917  20.666  0.00  0.00    +0.000 A 
ATOM     10  C   UNL     1      -0.543  10.979  21.073  0.00  0.00    +0.000 A 
BRANCH   5  15
ATOM     11  C   UNL     1      -4.146  15.701  23.906  0.00  0.00    +0.000 C 
ATOM     12  C   UNL     1      -3.331  14.491  23.568  0.00  0.00    +0.000 A 
ATOM     13  C   UNL     1      -3.835  13.213  23.716  0.00  0.00    +0.000 A 
ATOM     14  C   UNL     1      -3.024  12.133  23.370  0.00  0.00    +0.000 A 
ATOM     15  C   UNL     1      -1.725  12.317  22.855  0.00  0.00    +0.000 A 
ATOM     16  C   UNL     1      -1.308  13.658  22.737  0.00  0.00    +0.000 A 
ATOM     17  C   UNL     1       0.023  14.100  22.198  0.00  0.00    +0.000 C 
ATOM     18  N   UNL     1      -2.087  14.716  23.103  0.00  0.00    +0.000 NA
ENDBRANCH   5  15
ENDBRANCH   1   9
BRANCH   3  19
ATOM     19  C   UNL     1       2.245   8.632  17.687  0.00  0.00    +0.000 C 
BRANCH  19  20
ATOM     20  C   UNL     1       3.163   7.459  17.724  0.00  0.00    +0.000 A 
ATOM     21  C   UNL     1       3.148   6.382  18.644  0.00  0.00    +0.000 A 
ATOM     22  C   UNL     1       4.119   5.507  18.205  0.00  0.00    +0.000 A 
ATOM     23  N   UNL     1       4.675   6.104  17.105  0.00  0.00    +0.000 N 
ATOM     24  N   UNL     1       4.125   7.297  16.798  0.00  0.00    +0.000 NA
ATOM     25  C   UNL     1       5.671   5.542  16.221  0.00  0.00    +0.000 C 
ATOM     26  C   UNL     1       6.866   4.853  16.879  0.00  0.00    +0.000 C 
ATOM     27  C   UNL     1       6.879   4.812  18.404  0.00  0.00    +0.000 C 
ATOM     28  N   UNL     1       5.887   3.928  19.001  0.00  0.00    +0.000 NA
ATOM     29  C   UNL     1       4.484   4.147  18.665  0.00  0.00    +0.000 C 
ATOM     30  H   UNL     1       5.994   3.948  20.014  0.00  0.00    +0.000 HD
ENDBRANCH  19  20
ENDBRANCH   3  19
TORSDOF 4
ENDMDL
MODEL 7
REMARK VINA RESULT:      -8.2      3.734      6.034
REMARK  Name = 
REMARK  6 active torsions:
REMARK  status: ('A' for Active; 'I' for Inactive)
REMARK    1  A    between atoms: C_1  and  C_2
REMARK    2  A    between atoms: C_5  and  C_6
REMARK    3  A    between atoms: C_10  and  C_11
REMARK    4  A    between atoms: N_13  and  C_14
REMARK    5  A    between atoms: C_14  and  C_15
REMARK    6  A    between atoms: C_26  and  C_27
REMARK                            x       y       z     vdW  Elec       q    Type
REMARK                         _______ _______ _______ _____ _____    ______ ____
ROOT
ATOM      1  C   UNL     1       0.903   8.972  20.268  0.00  0.00    +0.000 C 
ATOM      2  O   UNL     1       0.521   8.674  21.396  0.00  0.00    +0.000 OA
ATOM      3  N   UNL     1       1.757   8.193  19.533  0.00  0.00    +0.000 N 
ATOM      4  H   UNL     1       2.020   8.428  18.586  0.00  0.00    +0.000 HD
ENDROOT
BRANCH   1   9
ATOM      5  C   UNL     1      -1.437  11.628  18.806  0.00  0.00    +0.000 A 
ATOM      6  C   UNL     1      -0.471  12.603  18.497  0.00  0.00    +0.000 A 
ATOM      7  C   UNL     1       0.897  12.356  18.651  0.00  0.00    +0.000 A 
ATOM      8  C   UNL     1       1.328  11.155  19.201  0.00  0.00    +0.000 A 
ATOM      9  C   UNL     1       0.394  10.208  19.625  0.00  0.00    +0.000 A 
ATOM     10  C   UNL     1      -0.974  10.435  19.407  0.00  0.00    +0.000 A 
BRANCH   5  15
ATOM     11  C   UNL     1      -7.090  12.155  17.735  0.00  0.00    +0.000 C 
ATOM     12  C   UNL     1      -5.626  12.069  18.038  0.00  0.00    +0.000 A 
ATOM     13  C   UNL     1      -5.115  12.452  19.263  0.00  0.00    +0.000 A 
ATOM     14  C   UNL     1      -3.742  12.332  19.479  0.00  0.00    +0.000 A 
ATOM     15  C   UNL     1      -2.879  11.812  18.493  0.00  0.00    +0.000 A 
ATOM     16  C   UNL     1      -3.500  11.445  17.283  0.00  0.00    +0.000 A 
ATOM     17  C   UNL     1      -2.790  10.851  16.099  0.00  0.00    +0.000 C 
ATOM     18  N   UNL     1      -4.838  11.588  17.056  0.00  0.00    +0.000 NA
ENDBRANCH   5  15
ENDBRANCH   1   9
BRANCH   3  19
ATOM     19  C   UNL     1       2.305   6.959  20.052  0.00  0.00    +0.000 C 
BRANCH  19  20
ATOM     20  C   UNL     1       3.095   6.290  18.982  0.00  0.00    +0.000 A 
ATOM     21  C   UNL     1       3.199   4.899  18.729  0.00  0.00    +0.000 A 
ATOM     22  C   UNL     1       3.955   4.787  17.582  0.00  0.00    +0.000 A 
ATOM     23  N   UNL     1       4.287   6.070  17.240  0.00  0.00    +0.000 N 
ATOM     24  N   UNL     1       3.792   7.002  18.080  0.00  0.00    +0.000 NA
ATOM     25  C   UNL     1       4.992   6.499  16.051  0.00  0.00    +0.000 C 
ATOM     26  C   UNL     1       6.240   5.705  15.667  0.00  0.00    +0.000 C 
ATOM     27  C   UNL     1       6.608   4.529  16.566  0.00  0.00    +0.000 C 
ATOM     28  N   UNL     1       5.708   3.387  16.480  0.00  0.00    +0.000 NA
ATOM     29  C   UNL     1       4.292   3.608  16.750  0.00  0.00    +0.000 C 
ATOM     30  H   UNL     1       6.053   2.648  17.091  0.00  0.00    +0.000 HD
ENDBRANCH  19  20
ENDBRANCH   3  19
TORSDOF 4
ENDMDL
MODEL 8
REMARK VINA RESULT:      -8.2      4.043     10.247
REMARK  Name = 
REMARK  6 active torsions:
REMARK  status: ('A' for Active; 'I' for Inactive)
REMARK    1  A    between atoms: C_1  and  C_2
REMARK    2  A    between atoms: C_5  and  C_6
REMARK    3  A    between atoms: C_10  and  C_11
REMARK    4  A    between atoms: N_13  and  C_14
REMARK    5  A    between atoms: C_14  and  C_15
REMARK    6  A    between atoms: C_26  and  C_27
REMARK                            x       y       z     vdW  Elec       q    Type
REMARK                         _______ _______ _______ _____ _____    ______ ____
ROOT
ATOM      1  C   UNL     1       1.104  10.366  18.931  0.00  0.00    +0.000 C 
ATOM      2  O   UNL     1       1.695  10.985  18.051  0.00  0.00    +0.000 OA
ATOM      3  N   UNL     1       0.016  10.863  19.599  0.00  0.00    +0.000 N 
ATOM      4  H   UNL     1      -0.490  10.318  20.284  0.00  0.00    +0.000 HD
ENDROOT
BRANCH   1   9
ATOM      5  C   UNL     1       2.808   6.939  18.814  0.00  0.00    +0.000 A 
ATOM      6  C   UNL     1       2.374   6.452  20.061  0.00  0.00    +0.000 A 
ATOM      7  C   UNL     1       1.468   7.165  20.852  0.00  0.00    +0.000 A 
ATOM      8  C   UNL     1       1.040   8.426  20.453  0.00  0.00    +0.000 A 
ATOM      9  C   UNL     1       1.537   8.990  19.277  0.00  0.00    +0.000 A 
ATOM     10  C   UNL     1       2.395   8.242  18.455  0.00  0.00    +0.000 A 
BRANCH   5  15
ATOM     11  C   UNL     1       5.946   3.899  15.033  0.00  0.00    +0.000 C 
ATOM     12  C   UNL     1       5.181   4.705  16.037  0.00  0.00    +0.000 A 
ATOM     13  C   UNL     1       5.563   5.988  16.380  0.00  0.00    +0.000 A 
ATOM     14  C   UNL     1       4.795   6.684  17.313  0.00  0.00    +0.000 A 
ATOM     15  C   UNL     1       3.637   6.121  17.888  0.00  0.00    +0.000 A 
ATOM     16  C   UNL     1       3.331   4.812  17.466  0.00  0.00    +0.000 A 
ATOM     17  C   UNL     1       2.140   4.018  17.925  0.00  0.00    +0.000 C 
ATOM     18  N   UNL     1       4.096   4.116  16.577  0.00  0.00    +0.000 NA
ENDBRANCH   5  15
ENDBRANCH   1   9
BRANCH   3  19
ATOM     19  C   UNL     1      -0.505  12.186  19.334  0.00  0.00    +0.000 C 
BRANCH  19  20
ATOM     20  C   UNL     1      -1.965  12.087  19.057  0.00  0.00    +0.000 A 
ATOM     21  C   UNL     1      -2.591  11.484  17.938  0.00  0.00    +0.000 A 
ATOM     22  C   UNL     1      -3.945  11.558  18.187  0.00  0.00    +0.000 A 
ATOM     23  N   UNL     1      -4.059  12.214  19.384  0.00  0.00    +0.000 N 
ATOM     24  N   UNL     1      -2.874  12.561  19.927  0.00  0.00    +0.000 NA
ATOM     25  C   UNL     1      -5.273  12.454  20.132  0.00  0.00    +0.000 C 
ATOM     26  C   UNL     1      -6.479  12.963  19.344  0.00  0.00    +0.000 C 
ATOM     27  C   UNL     1      -6.286  13.151  17.842  0.00  0.00    +0.000 C 
ATOM     28  N   UNL     1      -6.159  11.915  17.082  0.00  0.00    +0.000 NA
ATOM     29  C   UNL     1      -5.101  10.984  17.460  0.00  0.00    +0.000 C 
ATOM     30  H   UNL     1      -6.064  12.144  16.093  0.00  0.00    +0.000 HD
ENDBRANCH  19  20
ENDBRANCH   3  19
TORSDOF 4
ENDMDL
MODEL 9
REMARK VINA RESULT:      -8.1      3.648      6.654
REMARK  Name = 
REMARK  6 active torsions:
REMARK  status: ('A' for Active; 'I' for Inactive)
REMARK    1  A    between atoms: C_1  and  C_2
REMARK    2  A    between atoms: C_5  and  C_6
REMARK    3  A    between atoms: C_10  and  C_11
REMARK    4  A    between atoms: N_13  and  C_14
REMARK    5  A    between atoms: C_14  and  C_15
REMARK    6  A    between atoms: C_26  and  C_27
REMARK                            x       y       z     vdW  Elec       q    Type
REMARK                         _______ _______ _______ _____ _____    ______ ____
ROOT
ATOM      1  C   UNL     1       0.446   9.992  19.321  0.00  0.00    +0.000 C 
ATOM      2  O   UNL     1      -0.016  10.593  18.356  0.00  0.00    +0.000 OA
ATOM      3  N   UNL     1       1.480   9.098  19.225  0.00  0.00    +0.000 N 
ATOM      4  H   UNL     1       1.882   8.650  20.037  0.00  0.00    +0.000 HD
ENDROOT
BRANCH   1   9
ATOM      5  C   UNL     1      -1.253  11.690  22.303  0.00  0.00    +0.000 A 
ATOM      6  C   UNL     1      -1.148  10.633  23.226  0.00  0.00    +0.000 A 
ATOM      7  C   UNL     1      -0.447   9.462  22.925  0.00  0.00    +0.000 A 
ATOM      8  C   UNL     1       0.092   9.282  21.656  0.00  0.00    +0.000 A 
ATOM      9  C   UNL     1      -0.089  10.261  20.677  0.00  0.00    +0.000 A 
ATOM     10  C   UNL     1      -0.736  11.462  21.007  0.00  0.00    +0.000 A 
BRANCH   5  15
ATOM     11  C   UNL     1      -3.598  16.712  23.933  0.00  0.00    +0.000 C 
ATOM     12  C   UNL     1      -2.941  15.437  23.501  0.00  0.00    +0.000 A 
ATOM     13  C   UNL     1      -1.665  15.103  23.913  0.00  0.00    +0.000 A 
ATOM     14  C   UNL     1      -1.122  13.893  23.482  0.00  0.00    +0.000 A 
ATOM     15  C   UNL     1      -1.848  13.004  22.664  0.00  0.00    +0.000 A 
ATOM     16  C   UNL     1      -3.141  13.435  22.306  0.00  0.00    +0.000 A 
ATOM     17  C   UNL     1      -4.105  12.651  21.461  0.00  0.00    +0.000 C 
ATOM     18  N   UNL     1      -3.665  14.631  22.701  0.00  0.00    +0.000 NA
ENDBRANCH   5  15
ENDBRANCH   1   9
BRANCH   3  19
ATOM     19  C   UNL     1       2.091   8.768  17.956  0.00  0.00    +0.000 C 
BRANCH  19  20
ATOM     20  C   UNL     1       2.825   7.479  18.090  0.00  0.00    +0.000 A 
ATOM     21  C   UNL     1       3.977   7.065  17.376  0.00  0.00    +0.000 A 
ATOM     22  C   UNL     1       4.335   5.852  17.923  0.00  0.00    +0.000 A 
ATOM     23  N   UNL     1       3.389   5.591  18.878  0.00  0.00    +0.000 N 
ATOM     24  N   UNL     1       2.451   6.554  18.991  0.00  0.00    +0.000 NA
ATOM     25  C   UNL     1       3.374   4.483  19.807  0.00  0.00    +0.000 C 
ATOM     26  C   UNL     1       3.676   3.098  19.234  0.00  0.00    +0.000 C 
ATOM     27  C   UNL     1       3.981   3.027  17.741  0.00  0.00    +0.000 C 
ATOM     28  N   UNL     1       5.260   3.602  17.348  0.00  0.00    +0.000 NA
ATOM     29  C   UNL     1       5.522   4.994  17.696  0.00  0.00    +0.000 C 
ATOM     30  H   UNL     1       5.384   3.480  16.344  0.00  0.00    +0.000 HD
ENDBRANCH  19  20
ENDBRANCH   3  19
TORSDOF 4
ENDMDL
