MODEL 1
REMARK VINA RESULT:      -8.1      0.000      0.000
REMARK  Name = 
REMARK  7 active torsions:
REMARK  status: ('A' for Active; 'I' for Inactive)
REMARK    1  A    between atoms: C_1  and  C_2
REMARK    2  A    between atoms: C_5  and  C_6
REMARK    3  A    between atoms: N_8  and  C_9
REMARK    4  A    between atoms: C_12  and  S_13
REMARK    5  A    between atoms: S_13  and  N_16
REMARK    6  A    between atoms: N_16  and  C_17
REMARK    7  A    between atoms: C_17  and  C_18
REMARK                            x       y       z     vdW  Elec       q    Type
REMARK                         _______ _______ _______ _____ _____    ______ ____
ROOT
ATOM      1  C   UNL     1       2.117   6.968  20.164  0.00  0.00    +0.000 A 
ATOM      2  C   UNL     1       2.938   7.196  19.051  0.00  0.00    +0.000 A 
ATOM      3  C   UNL     1       3.574   6.152  18.386  0.00  0.00    +0.000 A 
ATOM      4  C   UNL     1       3.409   4.846  18.836  0.00  0.00    +0.000 A 
ATOM      5  C   UNL     1       2.575   4.580  19.924  0.00  0.00    +0.000 A 
ATOM      6  C   UNL     1       1.941   5.645  20.597  0.00  0.00    +0.000 A 
ENDROOT
BRANCH   1   9
ATOM      7  C   UNL     1       0.974   9.172  20.208  0.00  0.00    +0.000 C 
ATOM      8  O   UNL     1       0.956   9.365  18.997  0.00  0.00    +0.000 OA
ATOM      9  N   UNL     1       1.487   8.044  20.846  0.00  0.00    +0.000 N 
ATOM     10  H   UNL     1       1.276   7.910  21.828  0.00  0.00    +0.000 HD
BRANCH   7  15
ATOM     11  C   UNL     1      -1.867  12.948  23.572  0.00  0.00    +0.000 C 
ATOM     12  C   UNL     1      -1.113  11.990  22.696  0.00  0.00    +0.000 A 
ATOM     13  C   UNL     1      -1.003  10.644  23.047  0.00  0.00    +0.000 A 
ATOM     14  C   UNL     1      -0.305   9.762  22.226  0.00  0.00    +0.000 A 
ATOM     15  C   UNL     1       0.304  10.206  21.040  0.00  0.00    +0.000 A 
ATOM     16  C   UNL     1       0.193  11.551  20.678  0.00  0.00    +0.000 A 
ATOM     17  C   UNL     1      -0.511  12.436  21.507  0.00  0.00    +0.000 A 
ENDBRANCH   7  15
ENDBRANCH   1   9
BRANCH   4  18
ATOM     18  S   UNL     1       4.222   3.538  17.947  0.00  0.00    +0.000 S 
ATOM     19  O   UNL     1       3.830   2.285  18.536  0.00  0.00    +0.000 OA
ATOM     20  O   UNL     1       4.046   3.809  16.537  0.00  0.00    +0.000 OA
BRANCH  18  21
ATOM     21  N   UNL     1       5.856   3.815  18.300  0.00  0.00    +0.000 NA
ATOM     22  H   UNL     1       6.311   2.978  18.671  0.00  0.00    +0.000 HD
BRANCH  21  23
ATOM     23  C   UNL     1       6.614   4.385  17.180  0.00  0.00    +0.000 C 
BRANCH  23  24
ATOM     24  C   UNL     1       7.190   5.680  17.615  0.00  0.00    +0.000 A 
ATOM     25  C   UNL     1       7.850   6.090  18.756  0.00  0.00    +0.000 A 
ATOM     26  C   UNL     1       8.139   7.462  18.579  0.00  0.00    +0.000 A 
ATOM     27  C   UNL     1       7.634   7.804  17.345  0.00  0.00    +0.000 A 
ATOM     28  O   UNL     1       7.064   6.725  16.748  0.00  0.00    +0.000 OA
ENDBRANCH  23  24
ENDBRANCH  21  23
ENDBRANCH  18  21
ENDBRANCH   4  18
TORSDOF 6
ENDMDL
MODEL 2
REMARK VINA RESULT:      -8.0      1.009      1.504
REMARK  Name = 
REMARK  7 active torsions:
REMARK  status: ('A' for Active; 'I' for Inactive)
REMARK    1  A    between atoms: C_1  and  C_2
REMARK    2  A    between atoms: C_5  and  C_6
REMARK    3  A    between atoms: N_8  and  C_9
REMARK    4  A    between atoms: C_12  and  S_13
REMARK    5  A    between atoms: S_13  and  N_16
REMARK    6  A    between atoms: N_16  and  C_17
REMARK    7  A    between atoms: C_17  and  C_18
REMARK                            x       y       z     vdW  Elec       q    Type
REMARK                         _______ _______ _______ _____ _____    ______ ____
ROOT
ATOM      1  C   UNL     1       1.966   7.381  19.934  0.00  0.00    +0.000 A 
ATOM      2  C   UNL     1       1.779   6.076  20.409  0.00  0.00    +0.000 A 
ATOM      3  C   UNL     1       2.252   4.969  19.710  0.00  0.00    +0.000 A 
ATOM      4  C   UNL     1       2.916   5.150  18.501  0.00  0.00    +0.000 A 
ATOM      5  C   UNL     1       3.145   6.439  18.013  0.00  0.00    +0.000 A 
ATOM      6  C   UNL     1       2.655   7.554  18.724  0.00  0.00    +0.000 A 
ENDROOT
BRANCH   1   9
ATOM      7  C   UNL     1       0.802   9.572  20.047  0.00  0.00    +0.000 C 
ATOM      8  O   UNL     1       0.529   9.668  18.855  0.00  0.00    +0.000 OA
ATOM      9  N   UNL     1       1.464   8.503  20.648  0.00  0.00    +0.000 N 
ATOM     10  H   UNL     1       1.464   8.446  21.660  0.00  0.00    +0.000 HD
BRANCH   7  15
ATOM     11  C   UNL     1      -1.457  13.610  23.545  0.00  0.00    +0.000 C 
ATOM     12  C   UNL     1      -0.850  12.581  22.636  0.00  0.00    +0.000 A 
ATOM     13  C   UNL     1      -0.992  11.221  22.911  0.00  0.00    +0.000 A 
ATOM     14  C   UNL     1      -0.429  10.272  22.060  0.00  0.00    +0.000 A 
ATOM     15  C   UNL     1       0.293  10.663  20.919  0.00  0.00    +0.000 A 
ATOM     16  C   UNL     1       0.434  12.023  20.633  0.00  0.00    +0.000 A 
ATOM     17  C   UNL     1      -0.134  12.975  21.493  0.00  0.00    +0.000 A 
ENDBRANCH   7  15
ENDBRANCH   1   9
BRANCH   4  18
ATOM     18  S   UNL     1       3.522   3.712  17.648  0.00  0.00    +0.000 S 
ATOM     19  O   UNL     1       4.299   2.935  18.577  0.00  0.00    +0.000 OA
ATOM     20  O   UNL     1       2.406   3.147  16.922  0.00  0.00    +0.000 OA
BRANCH  18  21
ATOM     21  N   UNL     1       4.569   4.383  16.496  0.00  0.00    +0.000 NA
ATOM     22  H   UNL     1       4.487   5.401  16.457  0.00  0.00    +0.000 HD
BRANCH  21  23
ATOM     23  C   UNL     1       5.966   3.964  16.652  0.00  0.00    +0.000 C 
BRANCH  23  24
ATOM     24  C   UNL     1       6.696   5.028  17.384  0.00  0.00    +0.000 A 
ATOM     25  C   UNL     1       7.020   6.335  17.082  0.00  0.00    +0.000 A 
ATOM     26  C   UNL     1       7.746   6.832  18.189  0.00  0.00    +0.000 A 
ATOM     27  C   UNL     1       7.822   5.796  19.093  0.00  0.00    +0.000 A 
ATOM     28  O   UNL     1       7.179   4.700  18.616  0.00  0.00    +0.000 OA
ENDBRANCH  23  24
ENDBRANCH  21  23
ENDBRANCH  18  21
ENDBRANCH   4  18
TORSDOF 6
ENDMDL
MODEL 3
REMARK VINA RESULT:      -7.9      0.532      1.205
REMARK  Name = 
REMARK  7 active torsions:
REMARK  status: ('A' for Active; 'I' for Inactive)
REMARK    1  A    between atoms: C_1  and  C_2
REMARK    2  A    between atoms: C_5  and  C_6
REMARK    3  A    between atoms: N_8  and  C_9
REMARK    4  A    between atoms: C_12  and  S_13
REMARK    5  A    between atoms: S_13  and  N_16
REMARK    6  A    between atoms: N_16  and  C_17
REMARK    7  A    between atoms: C_17  and  C_18
REMARK                            x       y       z     vdW  Elec       q    Type
REMARK                         _______ _______ _______ _____ _____    ______ ____
ROOT
ATOM      1  C   UNL     1       1.994   6.804  20.237  0.00  0.00    +0.000 A 
ATOM      2  C   UNL     1       2.827   7.094  19.148  0.00  0.00    +0.000 A 
ATOM      3  C   UNL     1       3.520   6.094  18.471  0.00  0.00    +0.000 A 
ATOM      4  C   UNL     1       3.401   4.772  18.886  0.00  0.00    +0.000 A 
ATOM      5  C   UNL     1       2.557   4.444  19.949  0.00  0.00    +0.000 A 
ATOM      6  C   UNL     1       1.865   5.465  20.634  0.00  0.00    +0.000 A 
ENDROOT
BRANCH   1   9
ATOM      7  C   UNL     1       0.973   9.065  20.363  0.00  0.00    +0.000 C 
ATOM      8  O   UNL     1       1.184   9.399  19.203  0.00  0.00    +0.000 OA
ATOM      9  N   UNL     1       1.305   7.835  20.931  0.00  0.00    +0.000 N 
ATOM     10  H   UNL     1       0.914   7.603  21.837  0.00  0.00    +0.000 HD
BRANCH   7  15
ATOM     11  C   UNL     1      -1.751  13.123  23.487  0.00  0.00    +0.000 C 
ATOM     12  C   UNL     1      -1.066  12.054  22.686  0.00  0.00    +0.000 A 
ATOM     13  C   UNL     1      -0.435  12.367  21.480  0.00  0.00    +0.000 A 
ATOM     14  C   UNL     1       0.201  11.371  20.744  0.00  0.00    +0.000 A 
ATOM     15  C   UNL     1       0.216  10.039  21.193  0.00  0.00    +0.000 A 
ATOM     16  C   UNL     1      -0.407   9.718  22.402  0.00  0.00    +0.000 A 
ATOM     17  C   UNL     1      -1.046  10.725  23.140  0.00  0.00    +0.000 A 
ENDBRANCH   7  15
ENDBRANCH   1   9
BRANCH   4  18
ATOM     18  S   UNL     1       4.286   3.521  17.983  0.00  0.00    +0.000 S 
ATOM     19  O   UNL     1       3.924   2.238  18.522  0.00  0.00    +0.000 OA
ATOM     20  O   UNL     1       4.141   3.830  16.577  0.00  0.00    +0.000 OA
BRANCH  18  21
ATOM     21  N   UNL     1       5.898   3.845  18.393  0.00  0.00    +0.000 NA
ATOM     22  H   UNL     1       6.334   3.055  18.871  0.00  0.00    +0.000 HD
BRANCH  21  23
ATOM     23  C   UNL     1       6.714   4.302  17.262  0.00  0.00    +0.000 C 
BRANCH  23  24
ATOM     24  C   UNL     1       7.151   5.694  17.531  0.00  0.00    +0.000 A 
ATOM     25  C   UNL     1       6.951   6.893  16.878  0.00  0.00    +0.000 A 
ATOM     26  C   UNL     1       7.643   7.874  17.625  0.00  0.00    +0.000 A 
ATOM     27  C   UNL     1       8.224   7.211  18.683  0.00  0.00    +0.000 A 
ATOM     28  O   UNL     1       7.922   5.888  18.638  0.00  0.00    +0.000 OA
ENDBRANCH  23  24
ENDBRANCH  21  23
ENDBRANCH  18  21
ENDBRANCH   4  18
TORSDOF 6
ENDMDL
MODEL 4
REMARK VINA RESULT:      -7.9      2.504      4.042
REMARK  Name = 
REMARK  7 active torsions:
REMARK  status: ('A' for Active; 'I' for Inactive)
REMARK    1  A    between atoms: C_1  and  C_2
REMARK    2  A    between atoms: C_5  and  C_6
REMARK    3  A    between atoms: N_8  and  C_9
REMARK    4  A    between atoms: C_12  and  S_13
REMARK    5  A    between atoms: S_13  and  N_16
REMARK    6  A    between atoms: N_16  and  C_17
REMARK    7  A    between atoms: C_17  and  C_18
REMARK                            x       y       z     vdW  Elec       q    Type
REMARK                         _______ _______ _______ _____ _____    ______ ____
ROOT
ATOM      1  C   UNL     1       1.421   8.619  19.654  0.00  0.00    +0.000 A 
ATOM      2  C   UNL     1       1.747   7.416  20.296  0.00  0.00    +0.000 A 
ATOM      3  C   UNL     1       2.588   6.477  19.704  0.00  0.00    +0.000 A 
ATOM      4  C   UNL     1       3.112   6.721  18.439  0.00  0.00    +0.000 A 
ATOM      5  C   UNL     1       2.830   7.922  17.784  0.00  0.00    +0.000 A 
ATOM      6  C   UNL     1       1.972   8.864  18.387  0.00  0.00    +0.000 A 
ENDROOT
BRANCH   1   9
ATOM      7  C   UNL     1       0.715  10.052  21.556  0.00  0.00    +0.000 C 
ATOM      8  O   UNL     1       1.638   9.776  22.314  0.00  0.00    +0.000 OA
ATOM      9  N   UNL     1       0.549   9.562  20.261  0.00  0.00    +0.000 N 
ATOM     10  H   UNL     1      -0.142  10.004  19.665  0.00  0.00    +0.000 HD
BRANCH   7  15
ATOM     11  C   UNL     1      -2.797  14.260  23.456  0.00  0.00    +0.000 C 
ATOM     12  C   UNL     1      -1.909  13.153  22.964  0.00  0.00    +0.000 A 
ATOM     13  C   UNL     1      -0.896  13.415  22.041  0.00  0.00    +0.000 A 
ATOM     14  C   UNL     1      -0.075  12.383  21.593  0.00  0.00    +0.000 A 
ATOM     15  C   UNL     1      -0.252  11.067  22.051  0.00  0.00    +0.000 A 
ATOM     16  C   UNL     1      -1.260  10.797  22.981  0.00  0.00    +0.000 A 
ATOM     17  C   UNL     1      -2.085  11.839  23.430  0.00  0.00    +0.000 A 
ENDBRANCH   7  15
ENDBRANCH   1   9
BRANCH   4  18
ATOM     18  S   UNL     1       4.197   5.505  17.726  0.00  0.00    +0.000 S 
ATOM     19  O   UNL     1       4.665   6.009  16.463  0.00  0.00    +0.000 OA
ATOM     20  O   UNL     1       5.108   5.086  18.769  0.00  0.00    +0.000 OA
BRANCH  18  21
ATOM     21  N   UNL     1       3.149   4.204  17.436  0.00  0.00    +0.000 NA
ATOM     22  H   UNL     1       3.042   4.020  16.437  0.00  0.00    +0.000 HD
BRANCH  21  23
ATOM     23  C   UNL     1       3.506   2.986  18.171  0.00  0.00    +0.000 C 
BRANCH  23  24
ATOM     24  C   UNL     1       2.681   2.922  19.402  0.00  0.00    +0.000 A 
ATOM     25  C   UNL     1       1.323   2.988  19.639  0.00  0.00    +0.000 A 
ATOM     26  C   UNL     1       1.156   2.882  21.039  0.00  0.00    +0.000 A 
ATOM     27  C   UNL     1       2.422   2.764  21.567  0.00  0.00    +0.000 A 
ATOM     28  O   UNL     1       3.354   2.778  20.579  0.00  0.00    +0.000 OA
ENDBRANCH  23  24
ENDBRANCH  21  23
ENDBRANCH  18  21
ENDBRANCH   4  18
TORSDOF 6
ENDMDL
MODEL 5
REMARK VINA RESULT:      -7.9      2.492      3.852
REMARK  Name = 
REMARK  7 active torsions:
REMARK  status: ('A' for Active; 'I' for Inactive)
REMARK    1  A    between atoms: C_1  and  C_2
REMARK    2  A    between atoms: C_5  and  C_6
REMARK    3  A    between atoms: N_8  and  C_9
REMARK    4  A    between atoms: C_12  and  S_13
REMARK    5  A    between atoms: S_13  and  N_16
REMARK    6  A    between atoms: N_16  and  C_17
REMARK    7  A    between atoms: C_17  and  C_18
REMARK                            x       y       z     vdW  Elec       q    Type
REMARK                         _______ _______ _______ _____ _____    ______ ____
ROOT
ATOM      1  C   UNL     1       1.281   8.728  19.545  0.00  0.00    +0.000 A 
ATOM      2  C   UNL     1       1.848   8.905  18.276  0.00  0.00    +0.000 A 
ATOM      3  C   UNL     1       2.762   7.996  17.751  0.00  0.00    +0.000 A 
ATOM      4  C   UNL     1       3.139   6.887  18.501  0.00  0.00    +0.000 A 
ATOM      5  C   UNL     1       2.571   6.664  19.757  0.00  0.00    +0.000 A 
ATOM      6  C   UNL     1       1.653   7.596  20.285  0.00  0.00    +0.000 A 
ENDROOT
BRANCH   1   9
ATOM      7  C   UNL     1       0.469  10.222  21.356  0.00  0.00    +0.000 C 
ATOM      8  O   UNL     1       1.371  10.006  22.156  0.00  0.00    +0.000 OA
ATOM      9  N   UNL     1       0.362   9.673  20.078  0.00  0.00    +0.000 N 
ATOM     10  H   UNL     1      -0.318  10.068  19.441  0.00  0.00    +0.000 HD
BRANCH   7  15
ATOM     11  C   UNL     1      -3.654  13.890  23.144  0.00  0.00    +0.000 C 
ATOM     12  C   UNL     1      -2.572  12.962  22.672  0.00  0.00    +0.000 A 
ATOM     13  C   UNL     1      -2.224  11.839  23.423  0.00  0.00    +0.000 A 
ATOM     14  C   UNL     1      -1.222  10.981  22.976  0.00  0.00    +0.000 A 
ATOM     15  C   UNL     1      -0.541  11.230  21.772  0.00  0.00    +0.000 A 
ATOM     16  C   UNL     1      -0.889  12.349  21.010  0.00  0.00    +0.000 A 
ATOM     17  C   UNL     1      -1.899  13.210  21.464  0.00  0.00    +0.000 A 
ENDBRANCH   7  15
ENDBRANCH   1   9
BRANCH   4  18
ATOM     18  S   UNL     1       4.293   5.738  17.786  0.00  0.00    +0.000 S 
ATOM     19  O   UNL     1       4.753   6.283  16.537  0.00  0.00    +0.000 OA
ATOM     20  O   UNL     1       5.209   5.348  18.835  0.00  0.00    +0.000 OA
BRANCH  18  21
ATOM     21  N   UNL     1       3.316   4.391  17.461  0.00  0.00    +0.000 NA
ATOM     22  H   UNL     1       3.267   4.191  16.461  0.00  0.00    +0.000 HD
BRANCH  21  23
ATOM     23  C   UNL     1       3.685   3.196  18.229  0.00  0.00    +0.000 C 
BRANCH  23  24
ATOM     24  C   UNL     1       2.772   3.086  19.392  0.00  0.00    +0.000 A 
ATOM     25  C   UNL     1       1.404   3.199  19.539  0.00  0.00    +0.000 A 
ATOM     26  C   UNL     1       1.132   3.004  20.912  0.00  0.00    +0.000 A 
ATOM     27  C   UNL     1       2.351   2.790  21.517  0.00  0.00    +0.000 A 
ATOM     28  O   UNL     1       3.351   2.828  20.599  0.00  0.00    +0.000 OA
ENDBRANCH  23  24
ENDBRANCH  21  23
ENDBRANCH  18  21
ENDBRANCH   4  18
TORSDOF 6
ENDMDL
MODEL 6
REMARK VINA RESULT:      -7.8      0.861      1.277
REMARK  Name = 
REMARK  7 active torsions:
REMARK  status: ('A' for Active; 'I' for Inactive)
REMARK    1  A    between atoms: C_1  and  C_2
REMARK    2  A    between atoms: C_5  and  C_6
REMARK    3  A    between atoms: N_8  and  C_9
REMARK    4  A    between atoms: C_12  and  S_13
REMARK    5  A    between atoms: S_13  and  N_16
REMARK    6  A    between atoms: N_16  and  C_17
REMARK    7  A    between atoms: C_17  and  C_18
REMARK                            x       y       z     vdW  Elec       q    Type
REMARK                         _______ _______ _______ _____ _____    ______ ____
ROOT
ATOM      1  C   UNL     1       1.833   7.411  19.994  0.00  0.00    +0.000 A 
ATOM      2  C   UNL     1       2.557   7.614  18.811  0.00  0.00    +0.000 A 
ATOM      3  C   UNL     1       3.107   6.551  18.100  0.00  0.00    +0.000 A 
ATOM      4  C   UNL     1       2.954   5.252  18.573  0.00  0.00    +0.000 A 
ATOM      5  C   UNL     1       2.214   5.012  19.734  0.00  0.00    +0.000 A 
ATOM      6  C   UNL     1       1.667   6.095  20.452  0.00  0.00    +0.000 A 
ENDROOT
BRANCH   1   9
ATOM      7  C   UNL     1       0.594   9.559  20.130  0.00  0.00    +0.000 C 
ATOM      8  O   UNL     1       0.322   9.661  18.939  0.00  0.00    +0.000 OA
ATOM      9  N   UNL     1       1.290   8.505  20.721  0.00  0.00    +0.000 N 
ATOM     10  H   UNL     1       1.289   8.435  21.732  0.00  0.00    +0.000 HD
BRANCH   7  15
ATOM     11  C   UNL     1      -1.275  13.912  23.478  0.00  0.00    +0.000 C 
ATOM     12  C   UNL     1      -0.814  12.771  22.618  0.00  0.00    +0.000 A 
ATOM     13  C   UNL     1      -0.147  13.014  21.416  0.00  0.00    +0.000 A 
ATOM     14  C   UNL     1       0.280  11.949  20.626  0.00  0.00    +0.000 A 
ATOM     15  C   UNL     1       0.045  10.620  21.015  0.00  0.00    +0.000 A 
ATOM     16  C   UNL     1      -0.616  10.368  22.221  0.00  0.00    +0.000 A 
ATOM     17  C   UNL     1      -1.044  11.443  23.013  0.00  0.00    +0.000 A 
ENDBRANCH   7  15
ENDBRANCH   1   9
BRANCH   4  18
ATOM     18  S   UNL     1       3.656   3.921  17.626  0.00  0.00    +0.000 S 
ATOM     19  O   UNL     1       4.511   3.155  18.494  0.00  0.00    +0.000 OA
ATOM     20  O   UNL     1       2.574   3.311  16.885  0.00  0.00    +0.000 OA
BRANCH  18  21
ATOM     21  N   UNL     1       4.622   4.741  16.500  0.00  0.00    +0.000 NA
ATOM     22  H   UNL     1       4.501   5.754  16.564  0.00  0.00    +0.000 HD
BRANCH  21  23
ATOM     23  C   UNL     1       6.039   4.367  16.555  0.00  0.00    +0.000 C 
BRANCH  23  24
ATOM     24  C   UNL     1       6.786   5.455  17.231  0.00  0.00    +0.000 A 
ATOM     25  C   UNL     1       7.537   5.515  18.388  0.00  0.00    +0.000 A 
ATOM     26  C   UNL     1       7.982   6.851  18.506  0.00  0.00    +0.000 A 
ATOM     27  C   UNL     1       7.472   7.523  17.418  0.00  0.00    +0.000 A 
ATOM     28  O   UNL     1       6.751   6.680  16.633  0.00  0.00    +0.000 OA
ENDBRANCH  23  24
ENDBRANCH  21  23
ENDBRANCH  18  21
ENDBRANCH   4  18
TORSDOF 6
ENDMDL
MODEL 7
REMARK VINA RESULT:      -7.8      2.099      3.931
REMARK  Name = 
REMARK  7 active torsions:
REMARK  status: ('A' for Active; 'I' for Inactive)
REMARK    1  A    between atoms: C_1  and  C_2
REMARK    2  A    between atoms: C_5  and  C_6
REMARK    3  A    between atoms: N_8  and  C_9
REMARK    4  A    between atoms: C_12  and  S_13
REMARK    5  A    between atoms: S_13  and  N_16
REMARK    6  A    between atoms: N_16  and  C_17
REMARK    7  A    between atoms: C_17  and  C_18
REMARK                            x       y       z     vdW  Elec       q    Type
REMARK                         _______ _______ _______ _____ _____    ______ ____
ROOT
ATOM      1  C   UNL     1       2.267   7.872  18.798  0.00  0.00    +0.000 A 
ATOM      2  C   UNL     1       2.405   6.818  19.711  0.00  0.00    +0.000 A 
ATOM      3  C   UNL     1       3.354   5.815  19.532  0.00  0.00    +0.000 A 
ATOM      4  C   UNL     1       4.181   5.841  18.415  0.00  0.00    +0.000 A 
ATOM      5  C   UNL     1       4.090   6.892  17.499  0.00  0.00    +0.000 A 
ATOM      6  C   UNL     1       3.120   7.899  17.685  0.00  0.00    +0.000 A 
ENDROOT
BRANCH   1   9
ATOM      7  C   UNL     1       0.870   9.342  20.231  0.00  0.00    +0.000 C 
ATOM      8  O   UNL     1       1.320   8.982  21.313  0.00  0.00    +0.000 OA
ATOM      9  N   UNL     1       1.283   8.880  18.982  0.00  0.00    +0.000 N 
ATOM     10  H   UNL     1       0.976   9.384  18.158  0.00  0.00    +0.000 HD
BRANCH   7  15
ATOM     11  C   UNL     1      -3.150  13.491  20.752  0.00  0.00    +0.000 C 
ATOM     12  C   UNL     1      -2.102  12.428  20.592  0.00  0.00    +0.000 A 
ATOM     13  C   UNL     1      -1.358  11.996  21.691  0.00  0.00    +0.000 A 
ATOM     14  C   UNL     1      -0.390  11.006  21.535  0.00  0.00    +0.000 A 
ATOM     15  C   UNL     1      -0.141  10.431  20.278  0.00  0.00    +0.000 A 
ATOM     16  C   UNL     1      -0.887  10.853  19.174  0.00  0.00    +0.000 A 
ATOM     17  C   UNL     1      -1.860  11.849  19.335  0.00  0.00    +0.000 A 
ENDBRANCH   7  15
ENDBRANCH   1   9
BRANCH   4  18
ATOM     18  S   UNL     1       5.393   4.552  18.232  0.00  0.00    +0.000 S 
ATOM     19  O   UNL     1       6.038   4.721  16.957  0.00  0.00    +0.000 OA
ATOM     20  O   UNL     1       6.144   4.497  19.468  0.00  0.00    +0.000 OA
BRANCH  18  21
ATOM     21  N   UNL     1       4.437   3.154  18.175  0.00  0.00    +0.000 NA
ATOM     22  H   UNL     1       4.688   2.555  17.387  0.00  0.00    +0.000 HD
BRANCH  21  23
ATOM     23  C   UNL     1       4.416   2.402  19.434  0.00  0.00    +0.000 C 
BRANCH  23  24
ATOM     24  C   UNL     1       3.093   2.598  20.076  0.00  0.00    +0.000 A 
ATOM     25  C   UNL     1       2.681   2.693  21.390  0.00  0.00    +0.000 A 
ATOM     26  C   UNL     1       1.278   2.862  21.357  0.00  0.00    +0.000 A 
ATOM     27  C   UNL     1       0.923   2.855  20.026  0.00  0.00    +0.000 A 
ATOM     28  O   UNL     1       2.020   2.704  19.242  0.00  0.00    +0.000 OA
ENDBRANCH  23  24
ENDBRANCH  21  23
ENDBRANCH  18  21
ENDBRANCH   4  18
TORSDOF 6
ENDMDL
MODEL 8
REMARK VINA RESULT:      -7.8      2.202      3.830
REMARK  Name = 
REMARK  7 active torsions:
REMARK  status: ('A' for Active; 'I' for Inactive)
REMARK    1  A    between atoms: C_1  and  C_2
REMARK    2  A    between atoms: C_5  and  C_6
REMARK    3  A    between atoms: N_8  and  C_9
REMARK    4  A    between atoms: C_12  and  S_13
REMARK    5  A    between atoms: S_13  and  N_16
REMARK    6  A    between atoms: N_16  and  C_17
REMARK    7  A    between atoms: C_17  and  C_18
REMARK                            x       y       z     vdW  Elec       q    Type
REMARK                         _______ _______ _______ _____ _____    ______ ____
ROOT
ATOM      1  C   UNL     1       2.110   7.996  19.184  0.00  0.00    +0.000 A 
ATOM      2  C   UNL     1       2.306   6.852  19.971  0.00  0.00    +0.000 A 
ATOM      3  C   UNL     1       3.148   5.821  19.564  0.00  0.00    +0.000 A 
ATOM      4  C   UNL     1       3.806   5.910  18.342  0.00  0.00    +0.000 A 
ATOM      5  C   UNL     1       3.656   7.048  17.547  0.00  0.00    +0.000 A 
ATOM      6  C   UNL     1       2.794   8.084  17.963  0.00  0.00    +0.000 A 
ENDROOT
BRANCH   1   9
ATOM      7  C   UNL     1       0.715   9.139  20.892  0.00  0.00    +0.000 C 
ATOM      8  O   UNL     1       0.971   8.393  21.831  0.00  0.00    +0.000 OA
ATOM      9  N   UNL     1       1.235   9.034  19.602  0.00  0.00    +0.000 N 
ATOM     10  H   UNL     1       1.102   9.811  18.966  0.00  0.00    +0.000 HD
BRANCH   7  15
ATOM     11  C   UNL     1      -2.811  13.490  22.401  0.00  0.00    +0.000 C 
ATOM     12  C   UNL     1      -1.888  12.380  21.990  0.00  0.00    +0.000 A 
ATOM     13  C   UNL     1      -1.291  11.562  22.951  0.00  0.00    +0.000 A 
ATOM     14  C   UNL     1      -0.439  10.532  22.561  0.00  0.00    +0.000 A 
ATOM     15  C   UNL     1      -0.159  10.300  21.203  0.00  0.00    +0.000 A 
ATOM     16  C   UNL     1      -0.759  11.109  20.235  0.00  0.00    +0.000 A 
ATOM     17  C   UNL     1      -1.616  12.146  20.632  0.00  0.00    +0.000 A 
ENDBRANCH   7  15
ENDBRANCH   1   9
BRANCH   4  18
ATOM     18  S   UNL     1       4.888   4.580  17.867  0.00  0.00    +0.000 S 
ATOM     19  O   UNL     1       5.539   4.950  16.639  0.00  0.00    +0.000 OA
ATOM     20  O   UNL     1       5.635   4.200  19.046  0.00  0.00    +0.000 OA
BRANCH  18  21
ATOM     21  N   UNL     1       3.801   3.320  17.546  0.00  0.00    +0.000 NA
ATOM     22  H   UNL     1       3.897   2.971  16.591  0.00  0.00    +0.000 HD
BRANCH  21  23
ATOM     23  C   UNL     1       3.860   2.227  18.523  0.00  0.00    +0.000 C 
BRANCH  23  24
ATOM     24  C   UNL     1       2.835   2.475  19.566  0.00  0.00    +0.000 A 
ATOM     25  C   UNL     1       1.465   2.642  19.528  0.00  0.00    +0.000 A 
ATOM     26  C   UNL     1       1.053   2.862  20.863  0.00  0.00    +0.000 A 
ATOM     27  C   UNL     1       2.197   2.821  21.628  0.00  0.00    +0.000 A 
ATOM     28  O   UNL     1       3.282   2.577  20.849  0.00  0.00    +0.000 OA
ENDBRANCH  23  24
ENDBRANCH  21  23
ENDBRANCH  18  21
ENDBRANCH   4  18
TORSDOF 6
ENDMDL
MODEL 9
REMARK VINA RESULT:      -7.8      2.485      3.957
REMARK  Name = 
REMARK  7 active torsions:
REMARK  status: ('A' for Active; 'I' for Inactive)
REMARK    1  A    between atoms: C_1  and  C_2
REMARK    2  A    between atoms: C_5  and  C_6
REMARK    3  A    between atoms: N_8  and  C_9
REMARK    4  A    between atoms: C_12  and  S_13
REMARK    5  A    between atoms: S_13  and  N_16
REMARK    6  A    between atoms: N_16  and  C_17
REMARK    7  A    between atoms: C_17  and  C_18
REMARK                            x       y       z     vdW  Elec       q    Type
REMARK                         _______ _______ _______ _____ _____    ______ ____
ROOT
ATOM      1  C   UNL     1       1.255   8.752  19.478  0.00  0.00    +0.000 A 
ATOM      2  C   UNL     1       1.679   7.629  20.202  0.00  0.00    +0.000 A 
ATOM      3  C   UNL     1       2.630   6.749  19.694  0.00  0.00    +0.000 A 
ATOM      4  C   UNL     1       3.169   6.970  18.431  0.00  0.00    +0.000 A 
ATOM      5  C   UNL     1       2.790   8.095  17.695  0.00  0.00    +0.000 A 
ATOM      6  C   UNL     1       1.820   8.978  18.214  0.00  0.00    +0.000 A 
ENDROOT
BRANCH   1   9
ATOM      7  C   UNL     1       0.377  10.271  21.237  0.00  0.00    +0.000 C 
ATOM      8  O   UNL     1       1.330  10.193  22.004  0.00  0.00    +0.000 OA
ATOM      9  N   UNL     1       0.271   9.635  20.000  0.00  0.00    +0.000 N 
ATOM     10  H   UNL     1      -0.472   9.922  19.375  0.00  0.00    +0.000 HD
BRANCH   7  15
ATOM     11  C   UNL     1      -3.987  13.640  23.040  0.00  0.00    +0.000 C 
ATOM     12  C   UNL     1      -2.847  12.790  22.559  0.00  0.00    +0.000 A 
ATOM     13  C   UNL     1      -2.270  11.836  23.400  0.00  0.00    +0.000 A 
ATOM     14  C   UNL     1      -1.216  11.049  22.944  0.00  0.00    +0.000 A 
ATOM     15  C   UNL     1      -0.709  11.201  21.643  0.00  0.00    +0.000 A 
ATOM     16  C   UNL     1      -1.285  12.149  20.792  0.00  0.00    +0.000 A 
ATOM     17  C   UNL     1      -2.347  12.940  21.255  0.00  0.00    +0.000 A 
ENDBRANCH   7  15
ENDBRANCH   1   9
BRANCH   4  18
ATOM     18  S   UNL     1       4.395   5.833  17.826  0.00  0.00    +0.000 S 
ATOM     19  O   UNL     1       4.890   6.334  16.571  0.00  0.00    +0.000 OA
ATOM     20  O   UNL     1       5.277   5.532  18.932  0.00  0.00    +0.000 OA
BRANCH  18  21
ATOM     21  N   UNL     1       3.484   4.435  17.529  0.00  0.00    +0.000 NA
ATOM     22  H   UNL     1       3.507   4.169  16.543  0.00  0.00    +0.000 HD
BRANCH  21  23
ATOM     23  C   UNL     1       3.837   3.306  18.396  0.00  0.00    +0.000 C 
BRANCH  23  24
ATOM     24  C   UNL     1       2.807   3.190  19.458  0.00  0.00    +0.000 A 
ATOM     25  C   UNL     1       2.853   2.829  20.789  0.00  0.00    +0.000 A 
ATOM     26  C   UNL     1       1.525   2.898  21.268  0.00  0.00    +0.000 A 
ATOM     27  C   UNL     1       0.752   3.291  20.198  0.00  0.00    +0.000 A 
ATOM     28  O   UNL     1       1.524   3.479  19.097  0.00  0.00    +0.000 OA
ENDBRANCH  23  24
ENDBRANCH  21  23
ENDBRANCH  18  21
ENDBRANCH   4  18
TORSDOF 6
ENDMDL
