MODEL 1
REMARK VINA RESULT:      -7.0      0.000      0.000
REMARK  Name = 
REMARK  6 active torsions:
REMARK  status: ('A' for Active; 'I' for Inactive)
REMARK    1  A    between atoms: C_2  and  C_3
REMARK    2  A    between atoms: C_6  and  C_7
REMARK    3  A    between atoms: C_7  and  O_9
REMARK    4  A    between atoms: O_9  and  C_10
REMARK    5  A    between atoms: C_10  and  C_11
REMARK    6  A    between atoms: N_13  and  C_14
REMARK                            x       y       z     vdW  Elec       q    Type
REMARK                         _______ _______ _______ _____ _____    ______ ____
ROOT
ATOM      1  C   UNL     1       2.342   3.488  21.457  0.00  0.00    +0.000 C 
ENDROOT
BRANCH   1   2
ATOM      2  C   UNL     1       1.673   4.661  20.747  0.00  0.00    +0.000 C 
ATOM      3  O   UNL     1       0.612   4.493  20.146  0.00  0.00    +0.000 OA
ATOM      4  N   UNL     1       2.358   5.861  20.853  0.00  0.00    +0.000 N 
ATOM      5  H   UNL     1       3.326   5.826  21.178  0.00  0.00    +0.000 HD
BRANCH   4   6
ATOM      6  C   UNL     1       1.886   7.131  20.427  0.00  0.00    +0.000 A 
ATOM      7  C   UNL     1       1.151   7.980  21.256  0.00  0.00    +0.000 A 
ATOM      8  C   UNL     1       0.695   9.209  20.779  0.00  0.00    +0.000 A 
ATOM      9  C   UNL     1       1.002   9.568  19.478  0.00  0.00    +0.000 A 
ATOM     10  N   UNL     1       1.737   8.801  18.647  0.00  0.00    +0.000 NA
ATOM     11  C   UNL     1       2.159   7.613  19.142  0.00  0.00    +0.000 A 
ATOM     12 CL   UNL     1       3.071   6.694  18.004  0.00  0.00    +0.000 Cl
ENDBRANCH   4   6
ENDBRANCH   1   2
BRANCH   1  13
ATOM     13  O   UNL     1       2.802   2.547  20.482  0.00  0.00    +0.000 OA
BRANCH  13  14
ATOM     14  C   UNL     1       4.145   2.515  20.322  0.00  0.00    +0.000 C 
ATOM     15  O   UNL     1       4.918   1.854  20.995  0.00  0.00    +0.000 OA
BRANCH  14  19
ATOM     16  C   UNL     1       5.546   4.515  16.800  0.00  0.00    +0.000 A 
ATOM     17  C   UNL     1       6.105   4.789  18.053  0.00  0.00    +0.000 A 
ATOM     18  C   UNL     1       5.606   4.159  19.196  0.00  0.00    +0.000 A 
ATOM     19  C   UNL     1       4.543   3.250  19.095  0.00  0.00    +0.000 A 
ATOM     20  C   UNL     1       3.974   2.987  17.842  0.00  0.00    +0.000 A 
ATOM     21  C   UNL     1       4.477   3.617  16.699  0.00  0.00    +0.000 A 
BRANCH  16  23
ATOM     22  N   UNL     1       6.502   5.643  14.671  0.00  0.00    +0.000 NA
ATOM     23  C   UNL     1       6.072   5.140  15.626  0.00  0.00    +0.000 C 
ENDBRANCH  16  23
ENDBRANCH  14  19
ENDBRANCH  13  14
ENDBRANCH   1  13
TORSDOF 6
ENDMDL
MODEL 2
REMARK VINA RESULT:      -6.9      0.647      1.305
REMARK  Name = 
REMARK  6 active torsions:
REMARK  status: ('A' for Active; 'I' for Inactive)
REMARK    1  A    between atoms: C_2  and  C_3
REMARK    2  A    between atoms: C_6  and  C_7
REMARK    3  A    between atoms: C_7  and  O_9
REMARK    4  A    between atoms: O_9  and  C_10
REMARK    5  A    between atoms: C_10  and  C_11
REMARK    6  A    between atoms: N_13  and  C_14
REMARK                            x       y       z     vdW  Elec       q    Type
REMARK                         _______ _______ _______ _____ _____    ______ ____
ROOT
ATOM      1  C   UNL     1       2.169   3.567  21.539  0.00  0.00    +0.000 C 
ENDROOT
BRANCH   1   2
ATOM      2  C   UNL     1       1.563   4.741  20.774  0.00  0.00    +0.000 C 
ATOM      3  O   UNL     1       0.508   4.594  20.157  0.00  0.00    +0.000 OA
ATOM      4  N   UNL     1       2.294   5.915  20.852  0.00  0.00    +0.000 N 
ATOM      5  H   UNL     1       3.253   5.853  21.198  0.00  0.00    +0.000 HD
BRANCH   4   6
ATOM      6  C   UNL     1       1.882   7.187  20.372  0.00  0.00    +0.000 A 
ATOM      7  C   UNL     1       1.169   8.094  21.156  0.00  0.00    +0.000 A 
ATOM      8  C   UNL     1       0.772   9.323  20.626  0.00  0.00    +0.000 A 
ATOM      9  C   UNL     1       1.117   9.622  19.320  0.00  0.00    +0.000 A 
ATOM     10  N   UNL     1       1.835   8.795  18.531  0.00  0.00    +0.000 NA
ATOM     11  C   UNL     1       2.198   7.610  19.076  0.00  0.00    +0.000 A 
ATOM     12 CL   UNL     1       3.092   6.614  17.989  0.00  0.00    +0.000 Cl
ENDBRANCH   4   6
ENDBRANCH   1   2
BRANCH   1  13
ATOM     13  O   UNL     1       3.388   3.170  20.903  0.00  0.00    +0.000 OA
BRANCH  13  14
ATOM     14  C   UNL     1       3.231   2.652  19.662  0.00  0.00    +0.000 C 
ATOM     15  O   UNL     1       2.312   1.932  19.312  0.00  0.00    +0.000 OA
BRANCH  14  19
ATOM     16  C   UNL     1       5.914   4.478  16.862  0.00  0.00    +0.000 A 
ATOM     17  C   UNL     1       4.833   3.705  16.424  0.00  0.00    +0.000 A 
ATOM     18  C   UNL     1       3.995   3.082  17.352  0.00  0.00    +0.000 A 
ATOM     19  C   UNL     1       4.230   3.226  18.726  0.00  0.00    +0.000 A 
ATOM     20  C   UNL     1       5.322   3.988  19.165  0.00  0.00    +0.000 A 
ATOM     21  C   UNL     1       6.158   4.612  18.234  0.00  0.00    +0.000 A 
BRANCH  16  23
ATOM     22  N   UNL     1       7.446   5.666  15.143  0.00  0.00    +0.000 NA
ATOM     23  C   UNL     1       6.758   5.136  15.915  0.00  0.00    +0.000 C 
ENDBRANCH  16  23
ENDBRANCH  14  19
ENDBRANCH  13  14
ENDBRANCH   1  13
TORSDOF 6
ENDMDL
MODEL 3
REMARK VINA RESULT:      -6.8      3.611      6.813
REMARK  Name = 
REMARK  6 active torsions:
REMARK  status: ('A' for Active; 'I' for Inactive)
REMARK    1  A    between atoms: C_2  and  C_3
REMARK    2  A    between atoms: C_6  and  C_7
REMARK    3  A    between atoms: C_7  and  O_9
REMARK    4  A    between atoms: O_9  and  C_10
REMARK    5  A    between atoms: C_10  and  C_11
REMARK    6  A    between atoms: N_13  and  C_14
REMARK                            x       y       z     vdW  Elec       q    Type
REMARK                         _______ _______ _______ _____ _____    ______ ____
ROOT
ATOM      1  C   UNL     1       7.520   6.547  17.680  0.00  0.00    +0.000 C 
ENDROOT
BRANCH   1   2
ATOM      2  C   UNL     1       7.549   5.464  16.605  0.00  0.00    +0.000 C 
ATOM      3  O   UNL     1       7.990   4.346  16.869  0.00  0.00    +0.000 OA
ATOM      4  N   UNL     1       7.053   5.865  15.375  0.00  0.00    +0.000 N 
ATOM      5  H   UNL     1       6.930   6.867  15.218  0.00  0.00    +0.000 HD
BRANCH   4   6
ATOM      6  C   UNL     1       6.818   5.022  14.256  0.00  0.00    +0.000 A 
ATOM      7  C   UNL     1       7.608   5.056  13.106  0.00  0.00    +0.000 A 
ATOM      8  C   UNL     1       7.319   4.220  12.028  0.00  0.00    +0.000 A 
ATOM      9  C   UNL     1       6.247   3.351  12.134  0.00  0.00    +0.000 A 
ATOM     10  N   UNL     1       5.473   3.254  13.234  0.00  0.00    +0.000 NA
ATOM     11  C   UNL     1       5.779   4.084  14.260  0.00  0.00    +0.000 A 
ATOM     12 CL   UNL     1       4.725   3.904  15.612  0.00  0.00    +0.000 Cl
ENDBRANCH   4   6
ENDBRANCH   1   2
BRANCH   1  13
ATOM     13  O   UNL     1       6.297   6.448  18.416  0.00  0.00    +0.000 OA
BRANCH  13  14
ATOM     14  C   UNL     1       6.262   5.437  19.314  0.00  0.00    +0.000 C 
ATOM     15  O   UNL     1       7.113   5.218  20.161  0.00  0.00    +0.000 OA
BRANCH  14  19
ATOM     16  C   UNL     1       2.485   3.460  18.877  0.00  0.00    +0.000 A 
ATOM     17  C   UNL     1       2.595   4.844  18.712  0.00  0.00    +0.000 A 
ATOM     18  C   UNL     1       3.826   5.477  18.901  0.00  0.00    +0.000 A 
ATOM     19  C   UNL     1       4.958   4.731  19.257  0.00  0.00    +0.000 A 
ATOM     20  C   UNL     1       4.844   3.344  19.436  0.00  0.00    +0.000 A 
ATOM     21  C   UNL     1       3.611   2.713  19.244  0.00  0.00    +0.000 A 
BRANCH  16  23
ATOM     22  N   UNL     1       0.215   2.272  18.482  0.00  0.00    +0.000 NA
ATOM     23  C   UNL     1       1.232   2.807  18.659  0.00  0.00    +0.000 C 
ENDBRANCH  16  23
ENDBRANCH  14  19
ENDBRANCH  13  14
ENDBRANCH   1  13
TORSDOF 6
ENDMDL
MODEL 4
REMARK VINA RESULT:      -6.7      3.623      6.844
REMARK  Name = 
REMARK  6 active torsions:
REMARK  status: ('A' for Active; 'I' for Inactive)
REMARK    1  A    between atoms: C_2  and  C_3
REMARK    2  A    between atoms: C_6  and  C_7
REMARK    3  A    between atoms: C_7  and  O_9
REMARK    4  A    between atoms: O_9  and  C_10
REMARK    5  A    between atoms: C_10  and  C_11
REMARK    6  A    between atoms: N_13  and  C_14
REMARK                            x       y       z     vdW  Elec       q    Type
REMARK                         _______ _______ _______ _____ _____    ______ ____
ROOT
ATOM      1  C   UNL     1       7.593   6.556  17.660  0.00  0.00    +0.000 C 
ENDROOT
BRANCH   1   2
ATOM      2  C   UNL     1       7.603   5.471  16.586  0.00  0.00    +0.000 C 
ATOM      3  O   UNL     1       8.011   4.342  16.856  0.00  0.00    +0.000 OA
ATOM      4  N   UNL     1       7.128   5.883  15.351  0.00  0.00    +0.000 N 
ATOM      5  H   UNL     1       7.034   6.888  15.192  0.00  0.00    +0.000 HD
BRANCH   4   6
ATOM      6  C   UNL     1       6.881   5.046  14.231  0.00  0.00    +0.000 A 
ATOM      7  C   UNL     1       7.684   5.057  13.089  0.00  0.00    +0.000 A 
ATOM      8  C   UNL     1       7.382   4.227  12.009  0.00  0.00    +0.000 A 
ATOM      9  C   UNL     1       6.286   3.387  12.106  0.00  0.00    +0.000 A 
ATOM     10  N   UNL     1       5.499   3.313  13.199  0.00  0.00    +0.000 NA
ATOM     11  C   UNL     1       5.818   4.136  14.226  0.00  0.00    +0.000 A 
ATOM     12 CL   UNL     1       4.746   3.986  15.568  0.00  0.00    +0.000 Cl
ENDBRANCH   4   6
ENDBRANCH   1   2
BRANCH   1  13
ATOM     13  O   UNL     1       6.341   6.521  18.352  0.00  0.00    +0.000 OA
BRANCH  13  14
ATOM     14  C   UNL     1       6.191   5.469  19.190  0.00  0.00    +0.000 C 
ATOM     15  O   UNL     1       6.935   5.197  20.117  0.00  0.00    +0.000 OA
BRANCH  14  19
ATOM     16  C   UNL     1       2.444   3.434  18.761  0.00  0.00    +0.000 A 
ATOM     17  C   UNL     1       3.609   2.734  19.089  0.00  0.00    +0.000 A 
ATOM     18  C   UNL     1       4.830   3.407  19.182  0.00  0.00    +0.000 A 
ATOM     19  C   UNL     1       4.895   4.787  18.947  0.00  0.00    +0.000 A 
ATOM     20  C   UNL     1       3.730   5.487  18.604  0.00  0.00    +0.000 A 
ATOM     21  C   UNL     1       2.509   4.811  18.514  0.00  0.00    +0.000 A 
BRANCH  16  23
ATOM     22  N   UNL     1       0.168   2.200  18.632  0.00  0.00    +0.000 NA
ATOM     23  C   UNL     1       1.190   2.751  18.690  0.00  0.00    +0.000 C 
ENDBRANCH  16  23
ENDBRANCH  14  19
ENDBRANCH  13  14
ENDBRANCH   1  13
TORSDOF 6
ENDMDL
MODEL 5
REMARK VINA RESULT:      -6.7      3.943      6.929
REMARK  Name = 
REMARK  6 active torsions:
REMARK  status: ('A' for Active; 'I' for Inactive)
REMARK    1  A    between atoms: C_2  and  C_3
REMARK    2  A    between atoms: C_6  and  C_7
REMARK    3  A    between atoms: C_7  and  O_9
REMARK    4  A    between atoms: O_9  and  C_10
REMARK    5  A    between atoms: C_10  and  C_11
REMARK    6  A    between atoms: N_13  and  C_14
REMARK                            x       y       z     vdW  Elec       q    Type
REMARK                         _______ _______ _______ _____ _____    ______ ____
ROOT
ATOM      1  C   UNL     1       7.485   6.581  17.495  0.00  0.00    +0.000 C 
ENDROOT
BRANCH   1   2
ATOM      2  C   UNL     1       7.479   5.480  16.437  0.00  0.00    +0.000 C 
ATOM      3  O   UNL     1       7.975   4.382  16.690  0.00  0.00    +0.000 OA
ATOM      4  N   UNL     1       6.887   5.841  15.238  0.00  0.00    +0.000 N 
ATOM      5  H   UNL     1       6.720   6.835  15.073  0.00  0.00    +0.000 HD
BRANCH   4   6
ATOM      6  C   UNL     1       6.607   4.970  14.151  0.00  0.00    +0.000 A 
ATOM      7  C   UNL     1       5.494   4.129  14.126  0.00  0.00    +0.000 A 
ATOM      8  C   UNL     1       5.279   3.279  13.041  0.00  0.00    +0.000 A 
ATOM      9  C   UNL     1       6.181   3.304  11.991  0.00  0.00    +0.000 A 
ATOM     10  N   UNL     1       7.253   4.122  11.951  0.00  0.00    +0.000 NA
ATOM     11  C   UNL     1       7.434   4.930  13.023  0.00  0.00    +0.000 A 
ATOM     12 CL   UNL     1       8.838   5.922  12.890  0.00  0.00    +0.000 Cl
ENDBRANCH   4   6
ENDBRANCH   1   2
BRANCH   1  13
ATOM     13  O   UNL     1       6.253   6.544  18.221  0.00  0.00    +0.000 OA
BRANCH  13  14
ATOM     14  C   UNL     1       6.139   5.506  19.081  0.00  0.00    +0.000 C 
ATOM     15  O   UNL     1       6.892   5.279  20.014  0.00  0.00    +0.000 OA
BRANCH  14  19
ATOM     16  C   UNL     1       2.437   3.378  18.708  0.00  0.00    +0.000 A 
ATOM     17  C   UNL     1       3.573   2.758  19.239  0.00  0.00    +0.000 A 
ATOM     18  C   UNL     1       4.782   3.453  19.312  0.00  0.00    +0.000 A 
ATOM     19  C   UNL     1       4.866   4.776  18.855  0.00  0.00    +0.000 A 
ATOM     20  C   UNL     1       3.732   5.393  18.310  0.00  0.00    +0.000 A 
ATOM     21  C   UNL     1       2.522   4.695  18.239  0.00  0.00    +0.000 A 
BRANCH  16  23
ATOM     22  N   UNL     1       0.179   2.110  18.610  0.00  0.00    +0.000 NA
ATOM     23  C   UNL     1       1.193   2.676  18.654  0.00  0.00    +0.000 C 
ENDBRANCH  16  23
ENDBRANCH  14  19
ENDBRANCH  13  14
ENDBRANCH   1  13
TORSDOF 6
ENDMDL
MODEL 6
REMARK VINA RESULT:      -6.7      1.978      5.475
REMARK  Name = 
REMARK  6 active torsions:
REMARK  status: ('A' for Active; 'I' for Inactive)
REMARK    1  A    between atoms: C_2  and  C_3
REMARK    2  A    between atoms: C_6  and  C_7
REMARK    3  A    between atoms: C_7  and  O_9
REMARK    4  A    between atoms: O_9  and  C_10
REMARK    5  A    between atoms: C_10  and  C_11
REMARK    6  A    between atoms: N_13  and  C_14
REMARK                            x       y       z     vdW  Elec       q    Type
REMARK                         _______ _______ _______ _____ _____    ______ ____
ROOT
ATOM      1  C   UNL     1       3.734   2.485  20.118  0.00  0.00    +0.000 C 
ENDROOT
BRANCH   1   2
ATOM      2  C   UNL     1       4.211   2.620  18.674  0.00  0.00    +0.000 C 
ATOM      3  O   UNL     1       3.785   1.853  17.811  0.00  0.00    +0.000 OA
ATOM      4  N   UNL     1       5.121   3.644  18.465  0.00  0.00    +0.000 N 
ATOM      5  H   UNL     1       5.563   4.059  19.287  0.00  0.00    +0.000 HD
BRANCH   4   6
ATOM      6  C   UNL     1       5.600   4.089  17.204  0.00  0.00    +0.000 A 
ATOM      7  C   UNL     1       4.803   4.114  16.060  0.00  0.00    +0.000 A 
ATOM      8  C   UNL     1       5.332   4.542  14.842  0.00  0.00    +0.000 A 
ATOM      9  C   UNL     1       6.654   4.953  14.803  0.00  0.00    +0.000 A 
ATOM     10  N   UNL     1       7.457   4.980  15.886  0.00  0.00    +0.000 NA
ATOM     11  C   UNL     1       6.911   4.554  17.050  0.00  0.00    +0.000 A 
ATOM     12 CL   UNL     1       8.017   4.605  18.372  0.00  0.00    +0.000 Cl
ENDBRANCH   4   6
ENDBRANCH   1   2
BRANCH   1  13
ATOM     13  O   UNL     1       3.345   3.772  20.608  0.00  0.00    +0.000 OA
BRANCH  13  14
ATOM     14  C   UNL     1       2.063   4.111  20.338  0.00  0.00    +0.000 C 
ATOM     15  O   UNL     1       1.079   3.486  20.696  0.00  0.00    +0.000 OA
BRANCH  14  19
ATOM     16  C   UNL     1       2.103   8.053  18.655  0.00  0.00    +0.000 A 
ATOM     17  C   UNL     1       1.820   7.852  20.010  0.00  0.00    +0.000 A 
ATOM     18  C   UNL     1       1.768   6.557  20.532  0.00  0.00    +0.000 A 
ATOM     19  C   UNL     1       1.999   5.451  19.702  0.00  0.00    +0.000 A 
ATOM     20  C   UNL     1       2.269   5.652  18.341  0.00  0.00    +0.000 A 
ATOM     21  C   UNL     1       2.322   6.949  17.822  0.00  0.00    +0.000 A 
BRANCH  16  23
ATOM     22  N   UNL     1       2.242  10.454  17.690  0.00  0.00    +0.000 NA
ATOM     23  C   UNL     1       2.181   9.378  18.125  0.00  0.00    +0.000 C 
ENDBRANCH  16  23
ENDBRANCH  14  19
ENDBRANCH  13  14
ENDBRANCH   1  13
TORSDOF 6
ENDMDL
MODEL 7
REMARK VINA RESULT:      -6.7      1.540      1.937
REMARK  Name = 
REMARK  6 active torsions:
REMARK  status: ('A' for Active; 'I' for Inactive)
REMARK    1  A    between atoms: C_2  and  C_3
REMARK    2  A    between atoms: C_6  and  C_7
REMARK    3  A    between atoms: C_7  and  O_9
REMARK    4  A    between atoms: O_9  and  C_10
REMARK    5  A    between atoms: C_10  and  C_11
REMARK    6  A    between atoms: N_13  and  C_14
REMARK                            x       y       z     vdW  Elec       q    Type
REMARK                         _______ _______ _______ _____ _____    ______ ____
ROOT
ATOM      1  C   UNL     1       3.409   3.675  20.042  0.00  0.00    +0.000 C 
ENDROOT
BRANCH   1   2
ATOM      2  C   UNL     1       2.606   4.847  19.483  0.00  0.00    +0.000 C 
ATOM      3  O   UNL     1       1.736   4.648  18.637  0.00  0.00    +0.000 OA
ATOM      4  N   UNL     1       2.952   6.081  20.010  0.00  0.00    +0.000 N 
ATOM      5  H   UNL     1       3.830   6.145  20.528  0.00  0.00    +0.000 HD
BRANCH   4   6
ATOM      6  C   UNL     1       2.266   7.304  19.787  0.00  0.00    +0.000 A 
ATOM      7  C   UNL     1       1.433   7.887  20.743  0.00  0.00    +0.000 A 
ATOM      8  C   UNL     1       0.767   9.081  20.463  0.00  0.00    +0.000 A 
ATOM      9  C   UNL     1       0.966   9.675  19.229  0.00  0.00    +0.000 A 
ATOM     10  N   UNL     1       1.786   9.172  18.283  0.00  0.00    +0.000 NA
ATOM     11  C   UNL     1       2.412   8.010  18.588  0.00  0.00    +0.000 A 
ATOM     12 CL   UNL     1       3.421   7.434  17.313  0.00  0.00    +0.000 Cl
ENDBRANCH   4   6
ENDBRANCH   1   2
BRANCH   1  13
ATOM     13  O   UNL     1       4.423   3.307  19.102  0.00  0.00    +0.000 OA
BRANCH  13  14
ATOM     14  C   UNL     1       5.352   4.264  18.873  0.00  0.00    +0.000 C 
ATOM     15  O   UNL     1       5.976   4.859  19.736  0.00  0.00    +0.000 OA
BRANCH  14  19
ATOM     16  C   UNL     1       6.384   4.348  14.714  0.00  0.00    +0.000 A 
ATOM     17  C   UNL     1       7.336   4.637  15.698  0.00  0.00    +0.000 A 
ATOM     18  C   UNL     1       6.971   4.648  17.046  0.00  0.00    +0.000 A 
ATOM     19  C   UNL     1       5.650   4.369  17.423  0.00  0.00    +0.000 A 
ATOM     20  C   UNL     1       4.692   4.093  16.436  0.00  0.00    +0.000 A 
ATOM     21  C   UNL     1       5.061   4.082  15.087  0.00  0.00    +0.000 A 
BRANCH  16  23
ATOM     22  N   UNL     1       7.074   4.284  12.217  0.00  0.00    +0.000 NA
ATOM     23  C   UNL     1       6.762   4.313  13.336  0.00  0.00    +0.000 C 
ENDBRANCH  16  23
ENDBRANCH  14  19
ENDBRANCH  13  14
ENDBRANCH   1  13
TORSDOF 6
ENDMDL
MODEL 8
REMARK VINA RESULT:      -6.6      3.400      4.842
REMARK  Name = 
REMARK  6 active torsions:
REMARK  status: ('A' for Active; 'I' for Inactive)
REMARK    1  A    between atoms: C_2  and  C_3
REMARK    2  A    between atoms: C_6  and  C_7
REMARK    3  A    between atoms: C_7  and  O_9
REMARK    4  A    between atoms: O_9  and  C_10
REMARK    5  A    between atoms: C_10  and  C_11
REMARK    6  A    between atoms: N_13  and  C_14
REMARK                            x       y       z     vdW  Elec       q    Type
REMARK                         _______ _______ _______ _____ _____    ______ ____
ROOT
ATOM      1  C   UNL     1       6.521   5.630  19.055  0.00  0.00    +0.000 C 
ENDROOT
BRANCH   1   2
ATOM      2  C   UNL     1       5.004   5.469  18.995  0.00  0.00    +0.000 C 
ATOM      3  O   UNL     1       4.321   6.296  18.392  0.00  0.00    +0.000 OA
ATOM      4  N   UNL     1       4.520   4.353  19.659  0.00  0.00    +0.000 N 
ATOM      5  H   UNL     1       5.152   3.875  20.304  0.00  0.00    +0.000 HD
BRANCH   4   6
ATOM      6  C   UNL     1       3.180   3.881  19.629  0.00  0.00    +0.000 A 
ATOM      7  C   UNL     1       2.154   4.477  20.362  0.00  0.00    +0.000 A 
ATOM      8  C   UNL     1       0.860   3.958  20.311  0.00  0.00    +0.000 A 
ATOM      9  C   UNL     1       0.619   2.857  19.508  0.00  0.00    +0.000 A 
ATOM     10  N   UNL     1       1.568   2.265  18.753  0.00  0.00    +0.000 NA
ATOM     11  C   UNL     1       2.813   2.792  18.831  0.00  0.00    +0.000 A 
ATOM     12 CL   UNL     1       3.960   1.958  17.850  0.00  0.00    +0.000 Cl
ENDBRANCH   4   6
ENDBRANCH   1   2
BRANCH   1  13
ATOM     13  O   UNL     1       7.104   5.031  17.893  0.00  0.00    +0.000 OA
BRANCH  13  14
ATOM     14  C   UNL     1       7.182   5.849  16.818  0.00  0.00    +0.000 C 
ATOM     15  O   UNL     1       7.737   6.935  16.800  0.00  0.00    +0.000 OA
BRANCH  14  19
ATOM     16  C   UNL     1       5.903   3.726  13.321  0.00  0.00    +0.000 A 
ATOM     17  C   UNL     1       7.051   4.525  13.298  0.00  0.00    +0.000 A 
ATOM     18  C   UNL     1       7.428   5.244  14.435  0.00  0.00    +0.000 A 
ATOM     19  C   UNL     1       6.660   5.171  15.605  0.00  0.00    +0.000 A 
ATOM     20  C   UNL     1       5.502   4.381  15.625  0.00  0.00    +0.000 A 
ATOM     21  C   UNL     1       5.128   3.660  14.486  0.00  0.00    +0.000 A 
BRANCH  16  23
ATOM     22  N   UNL     1       5.231   2.356  11.227  0.00  0.00    +0.000 NA
ATOM     23  C   UNL     1       5.530   2.970  12.167  0.00  0.00    +0.000 C 
ENDBRANCH  16  23
ENDBRANCH  14  19
ENDBRANCH  13  14
ENDBRANCH   1  13
TORSDOF 6
ENDMDL
MODEL 9
REMARK VINA RESULT:      -6.6      3.410      4.925
REMARK  Name = 
REMARK  6 active torsions:
REMARK  status: ('A' for Active; 'I' for Inactive)
REMARK    1  A    between atoms: C_2  and  C_3
REMARK    2  A    between atoms: C_6  and  C_7
REMARK    3  A    between atoms: C_7  and  O_9
REMARK    4  A    between atoms: O_9  and  C_10
REMARK    5  A    between atoms: C_10  and  C_11
REMARK    6  A    between atoms: N_13  and  C_14
REMARK                            x       y       z     vdW  Elec       q    Type
REMARK                         _______ _______ _______ _____ _____    ______ ____
ROOT
ATOM      1  C   UNL     1       6.439   5.661  18.907  0.00  0.00    +0.000 C 
ENDROOT
BRANCH   1   2
ATOM      2  C   UNL     1       4.924   5.469  18.905  0.00  0.00    +0.000 C 
ATOM      3  O   UNL     1       4.203   6.274  18.317  0.00  0.00    +0.000 OA
ATOM      4  N   UNL     1       4.488   4.353  19.601  0.00  0.00    +0.000 N 
ATOM      5  H   UNL     1       5.152   3.897  20.228  0.00  0.00    +0.000 HD
BRANCH   4   6
ATOM      6  C   UNL     1       3.158   3.854  19.626  0.00  0.00    +0.000 A 
ATOM      7  C   UNL     1       2.145   4.443  20.384  0.00  0.00    +0.000 A 
ATOM      8  C   UNL     1       0.861   3.898  20.388  0.00  0.00    +0.000 A 
ATOM      9  C   UNL     1       0.616   2.777  19.614  0.00  0.00    +0.000 A 
ATOM     10  N   UNL     1       1.549   2.190  18.837  0.00  0.00    +0.000 NA
ATOM     11  C   UNL     1       2.786   2.743  18.862  0.00  0.00    +0.000 A 
ATOM     12 CL   UNL     1       3.915   1.913  17.857  0.00  0.00    +0.000 Cl
ENDBRANCH   4   6
ENDBRANCH   1   2
BRANCH   1  13
ATOM     13  O   UNL     1       7.001   4.978  17.782  0.00  0.00    +0.000 OA
BRANCH  13  14
ATOM     14  C   UNL     1       7.150   5.744  16.677  0.00  0.00    +0.000 C 
ATOM     15  O   UNL     1       7.725   6.819  16.638  0.00  0.00    +0.000 OA
BRANCH  14  19
ATOM     16  C   UNL     1       5.577   3.830  13.180  0.00  0.00    +0.000 A 
ATOM     17  C   UNL     1       4.878   3.801  14.391  0.00  0.00    +0.000 A 
ATOM     18  C   UNL     1       5.427   4.392  15.532  0.00  0.00    +0.000 A 
ATOM     19  C   UNL     1       6.680   5.019  15.470  0.00  0.00    +0.000 A 
ATOM     20  C   UNL     1       7.386   5.036  14.259  0.00  0.00    +0.000 A 
ATOM     21  C   UNL     1       6.834   4.444  13.119  0.00  0.00    +0.000 A 
BRANCH  16  23
ATOM     22  N   UNL     1       4.546   2.768  11.052  0.00  0.00    +0.000 NA
ATOM     23  C   UNL     1       5.006   3.246  12.006  0.00  0.00    +0.000 C 
ENDBRANCH  16  23
ENDBRANCH  14  19
ENDBRANCH  13  14
ENDBRANCH   1  13
TORSDOF 6
ENDMDL
