MODEL 1
REMARK VINA RESULT:      -7.7      0.000      0.000
REMARK  Name = 
REMARK  8 active torsions:
REMARK  status: ('A' for Active; 'I' for Inactive)
REMARK    1  A    between atoms: C_1  and  C_2
REMARK    2  A    between atoms: C_2  and  N_3
REMARK    3  A    between atoms: C_4  and  O_6
REMARK    4  A    between atoms: O_6  and  C_7
REMARK    5  A    between atoms: C_18  and  O_19
REMARK    6  A    between atoms: O_19  and  C_20
REMARK    7  A    between atoms: C_21  and  O_22
REMARK    8  A    between atoms: O_22  and  C_23
REMARK                            x       y       z     vdW  Elec       q    Type
REMARK                         _______ _______ _______ _____ _____    ______ ____
ROOT
ATOM      1  C   UNL     1       6.802   4.232  15.661  0.00  0.00    +0.000 C 
ATOM      2  C   UNL     1       5.275   4.087  15.620  0.00  0.00    +0.000 C 
ATOM      3  C   UNL     1       4.569   4.930  16.677  0.00  0.00    +0.000 C 
ATOM      4  N   UNL     1       5.167   4.686  17.985  0.00  0.00    +0.000 N 
ATOM      5  C   UNL     1       4.426   4.311  19.095  0.00  0.00    +0.000 A 
ATOM      6  N   UNL     1       4.631   3.152  19.657  0.00  0.00    +0.000 NA
ATOM      7  N   UNL     1       3.826   2.769  20.695  0.00  0.00    +0.000 N 
ATOM      8  C   UNL     1       2.755   3.471  21.194  0.00  0.00    +0.000 A 
ATOM      9  O   UNL     1       2.032   3.039  22.082  0.00  0.00    +0.000 OA
ATOM     10  C   UNL     1       2.536   4.807  20.619  0.00  0.00    +0.000 A 
ATOM     11  C   UNL     1       1.509   5.641  21.093  0.00  0.00    +0.000 A 
ATOM     12  C   UNL     1       1.351   6.937  20.579  0.00  0.00    +0.000 A 
ATOM     13  C   UNL     1       2.260   7.398  19.609  0.00  0.00    +0.000 A 
ATOM     14  C   UNL     1       3.273   6.549  19.149  0.00  0.00    +0.000 A 
ATOM     15  C   UNL     1       3.389   5.243  19.620  0.00  0.00    +0.000 A 
ATOM     16  C   UNL     1       6.579   5.019  18.078  0.00  0.00    +0.000 C 
ATOM     17  C   UNL     1       7.366   4.171  17.088  0.00  0.00    +0.000 C 
ATOM     18  H   UNL     1       3.991   1.841  21.072  0.00  0.00    +0.000 HD
ENDROOT
BRANCH  12  19
ATOM     19  O   UNL     1       0.361   7.790  20.979  0.00  0.00    +0.000 OA
ATOM     20  C   UNL     1       0.667   8.802  21.927  0.00  0.00    +0.000 C 
ENDBRANCH  12  19
BRANCH  13  21
ATOM     21  O   UNL     1       2.327   8.619  18.993  0.00  0.00    +0.000 OA
ATOM     22  C   UNL     1       1.573   8.841  17.814  0.00  0.00    +0.000 C 
ENDBRANCH  13  21
BRANCH   1  23
ATOM     23  O   UNL     1       7.206   5.464  15.015  0.00  0.00    +0.000 OA
BRANCH  23  25
ATOM     24  N   UNL     1       6.909   4.329  13.100  0.00  0.00    +0.000 N 
ATOM     25  C   UNL     1       7.625   5.304  13.725  0.00  0.00    +0.000 C 
ATOM     26  O   UNL     1       8.526   5.943  13.198  0.00  0.00    +0.000 OA
ATOM     27  H   UNL     1       6.203   3.853  13.643  0.00  0.00    +0.000 HD
BRANCH  24  29
ATOM     28  C   UNL     1       6.892   2.487  11.465  0.00  0.00    +0.000 C 
ATOM     29  C   UNL     1       7.159   3.960  11.723  0.00  0.00    +0.000 C 
ENDBRANCH  24  29
ENDBRANCH  23  25
ENDBRANCH   1  23
TORSDOF 5
ENDMDL
MODEL 2
REMARK VINA RESULT:      -6.8      1.788      3.737
REMARK  Name = 
REMARK  8 active torsions:
REMARK  status: ('A' for Active; 'I' for Inactive)
REMARK    1  A    between atoms: C_1  and  C_2
REMARK    2  A    between atoms: C_2  and  N_3
REMARK    3  A    between atoms: C_4  and  O_6
REMARK    4  A    between atoms: O_6  and  C_7
REMARK    5  A    between atoms: C_18  and  O_19
REMARK    6  A    between atoms: O_19  and  C_20
REMARK    7  A    between atoms: C_21  and  O_22
REMARK    8  A    between atoms: O_22  and  C_23
REMARK                            x       y       z     vdW  Elec       q    Type
REMARK                         _______ _______ _______ _____ _____    ______ ____
ROOT
ATOM      1  C   UNL     1       7.048   6.160  15.414  0.00  0.00    +0.000 C 
ATOM      2  C   UNL     1       7.244   6.266  16.933  0.00  0.00    +0.000 C 
ATOM      3  C   UNL     1       6.200   5.486  17.724  0.00  0.00    +0.000 C 
ATOM      4  N   UNL     1       4.863   5.837  17.260  0.00  0.00    +0.000 N 
ATOM      5  C   UNL     1       3.859   6.273  18.110  0.00  0.00    +0.000 A 
ATOM      6  N   UNL     1       3.367   7.475  17.979  0.00  0.00    +0.000 NA
ATOM      7  N   UNL     1       2.442   7.912  18.887  0.00  0.00    +0.000 N 
ATOM      8  C   UNL     1       1.997   7.223  19.989  0.00  0.00    +0.000 A 
ATOM      9  O   UNL     1       1.217   7.702  20.802  0.00  0.00    +0.000 OA
ATOM     10  C   UNL     1       2.490   5.845  20.130  0.00  0.00    +0.000 A 
ATOM     11  C   UNL     1       2.055   5.024  21.184  0.00  0.00    +0.000 A 
ATOM     12  C   UNL     1       2.485   3.690  21.272  0.00  0.00    +0.000 A 
ATOM     13  C   UNL     1       3.327   3.182  20.266  0.00  0.00    +0.000 A 
ATOM     14  C   UNL     1       3.750   4.019  19.227  0.00  0.00    +0.000 A 
ATOM     15  C   UNL     1       3.368   5.358  19.178  0.00  0.00    +0.000 A 
ATOM     16  C   UNL     1       4.612   5.544  15.857  0.00  0.00    +0.000 C 
ATOM     17  C   UNL     1       5.582   6.337  14.993  0.00  0.00    +0.000 C 
ATOM     18  H   UNL     1       2.121   8.869  18.774  0.00  0.00    +0.000 HD
ENDROOT
BRANCH  12  19
ATOM     19  O   UNL     1       2.119   2.846  22.282  0.00  0.00    +0.000 OA
ATOM     20  C   UNL     1       0.881   2.156  22.186  0.00  0.00    +0.000 C 
ENDBRANCH  12  19
BRANCH  13  21
ATOM     21  O   UNL     1       3.842   1.921  20.120  0.00  0.00    +0.000 OA
ATOM     22  C   UNL     1       3.867   1.330  18.832  0.00  0.00    +0.000 C 
ENDBRANCH  13  21
BRANCH   1  23
ATOM     23  O   UNL     1       7.559   4.894  14.931  0.00  0.00    +0.000 OA
BRANCH  23  25
ATOM     24  N   UNL     1       6.541   3.603  13.399  0.00  0.00    +0.000 N 
ATOM     25  C   UNL     1       7.349   4.682  13.598  0.00  0.00    +0.000 C 
ATOM     26  O   UNL     1       7.824   5.362  12.697  0.00  0.00    +0.000 OA
ATOM     27  H   UNL     1       6.226   3.104  14.219  0.00  0.00    +0.000 HD
BRANCH  24  29
ATOM     28  C   UNL     1       4.697   3.420  11.777  0.00  0.00    +0.000 C 
ATOM     29  C   UNL     1       6.165   3.163  12.073  0.00  0.00    +0.000 C 
ENDBRANCH  24  29
ENDBRANCH  23  25
ENDBRANCH   1  23
TORSDOF 5
ENDMDL
MODEL 3
REMARK VINA RESULT:      -6.7      1.970      3.782
REMARK  Name = 
REMARK  8 active torsions:
REMARK  status: ('A' for Active; 'I' for Inactive)
REMARK    1  A    between atoms: C_1  and  C_2
REMARK    2  A    between atoms: C_2  and  N_3
REMARK    3  A    between atoms: C_4  and  O_6
REMARK    4  A    between atoms: O_6  and  C_7
REMARK    5  A    between atoms: C_18  and  O_19
REMARK    6  A    between atoms: O_19  and  C_20
REMARK    7  A    between atoms: C_21  and  O_22
REMARK    8  A    between atoms: O_22  and  C_23
REMARK                            x       y       z     vdW  Elec       q    Type
REMARK                         _______ _______ _______ _____ _____    ______ ____
ROOT
ATOM      1  C   UNL     1       7.073   5.215  15.017  0.00  0.00    +0.000 C 
ATOM      2  C   UNL     1       7.174   5.114  16.545  0.00  0.00    +0.000 C 
ATOM      3  C   UNL     1       5.883   4.633  17.197  0.00  0.00    +0.000 C 
ATOM      4  N   UNL     1       4.759   5.428  16.715  0.00  0.00    +0.000 N 
ATOM      5  C   UNL     1       3.876   6.078  17.563  0.00  0.00    +0.000 A 
ATOM      6  N   UNL     1       3.790   7.380  17.544  0.00  0.00    +0.000 NA
ATOM      7  N   UNL     1       2.977   8.001  18.453  0.00  0.00    +0.000 N 
ATOM      8  C   UNL     1       2.257   7.389  19.450  0.00  0.00    +0.000 A 
ATOM      9  O   UNL     1       1.602   8.012  20.276  0.00  0.00    +0.000 OA
ATOM     10  C   UNL     1       2.289   5.919  19.459  0.00  0.00    +0.000 A 
ATOM     11  C   UNL     1       1.543   5.183  20.395  0.00  0.00    +0.000 A 
ATOM     12  C   UNL     1       1.533   3.780  20.353  0.00  0.00    +0.000 A 
ATOM     13  C   UNL     1       2.252   3.127  19.335  0.00  0.00    +0.000 A 
ATOM     14  C   UNL     1       2.991   3.880  18.416  0.00  0.00    +0.000 A 
ATOM     15  C   UNL     1       3.045   5.270  18.499  0.00  0.00    +0.000 A 
ATOM     16  C   UNL     1       4.539   5.359  15.279  0.00  0.00    +0.000 C 
ATOM     17  C   UNL     1       5.770   5.882  14.552  0.00  0.00    +0.000 C 
ATOM     18  H   UNL     1       2.977   9.016  18.432  0.00  0.00    +0.000 HD
ENDROOT
BRANCH  12  19
ATOM     19  O   UNL     1       0.847   3.005  21.245  0.00  0.00    +0.000 OA
ATOM     20  C   UNL     1       1.575   2.269  22.218  0.00  0.00    +0.000 C 
ENDBRANCH  12  19
BRANCH  13  21
ATOM     21  O   UNL     1       2.363   1.788  19.073  0.00  0.00    +0.000 OA
ATOM     22  C   UNL     1       3.572   1.288  18.528  0.00  0.00    +0.000 C 
ENDBRANCH  13  21
BRANCH   1  23
ATOM     23  O   UNL     1       7.205   3.902  14.419  0.00  0.00    +0.000 OA
BRANCH  23  25
ATOM     24  N   UNL     1       5.938   2.941  12.832  0.00  0.00    +0.000 N 
ATOM     25  C   UNL     1       6.905   3.866  13.087  0.00  0.00    +0.000 C 
ATOM     26  O   UNL     1       7.435   4.562  12.230  0.00  0.00    +0.000 OA
ATOM     27  H   UNL     1       5.589   2.409  13.616  0.00  0.00    +0.000 HD
BRANCH  24  29
ATOM     28  C   UNL     1       4.041   3.261  11.293  0.00  0.00    +0.000 C 
ATOM     29  C   UNL     1       5.440   2.703  11.494  0.00  0.00    +0.000 C 
ENDBRANCH  24  29
ENDBRANCH  23  25
ENDBRANCH   1  23
TORSDOF 5
ENDMDL
MODEL 4
REMARK VINA RESULT:      -6.2      6.363      9.713
REMARK  Name = 
REMARK  8 active torsions:
REMARK  status: ('A' for Active; 'I' for Inactive)
REMARK    1  A    between atoms: C_1  and  C_2
REMARK    2  A    between atoms: C_2  and  N_3
REMARK    3  A    between atoms: C_4  and  O_6
REMARK    4  A    between atoms: O_6  and  C_7
REMARK    5  A    between atoms: C_18  and  O_19
REMARK    6  A    between atoms: O_19  and  C_20
REMARK    7  A    between atoms: C_21  and  O_22
REMARK    8  A    between atoms: O_22  and  C_23
REMARK                            x       y       z     vdW  Elec       q    Type
REMARK                         _______ _______ _______ _____ _____    ______ ____
ROOT
ATOM      1  C   UNL     1       1.010   9.017  19.264  0.00  0.00    +0.000 C 
ATOM      2  C   UNL     1       1.514   9.914  18.125  0.00  0.00    +0.000 C 
ATOM      3  C   UNL     1       2.085  11.239  18.618  0.00  0.00    +0.000 C 
ATOM      4  N   UNL     1       1.137  11.881  19.521  0.00  0.00    +0.000 N 
ATOM      5  C   UNL     1       0.690  13.181  19.346  0.00  0.00    +0.000 A 
ATOM      6  N   UNL     1      -0.574  13.413  19.117  0.00  0.00    +0.000 NA
ATOM      7  N   UNL     1      -0.974  14.695  18.858  0.00  0.00    +0.000 N 
ATOM      8  C   UNL     1      -0.158  15.796  18.758  0.00  0.00    +0.000 A 
ATOM      9  O   UNL     1      -0.573  16.907  18.454  0.00  0.00    +0.000 OA
ATOM     10  C   UNL     1       1.263  15.575  19.067  0.00  0.00    +0.000 A 
ATOM     11  C   UNL     1       2.181  16.639  19.057  0.00  0.00    +0.000 A 
ATOM     12  C   UNL     1       3.521  16.426  19.416  0.00  0.00    +0.000 A 
ATOM     13  C   UNL     1       3.918  15.139  19.822  0.00  0.00    +0.000 A 
ATOM     14  C   UNL     1       2.988  14.094  19.821  0.00  0.00    +0.000 A 
ATOM     15  C   UNL     1       1.673  14.298  19.407  0.00  0.00    +0.000 A 
ATOM     16  C   UNL     1       0.815  11.109  20.711  0.00  0.00    +0.000 C 
ATOM     17  C   UNL     1       0.181   9.787  20.302  0.00  0.00    +0.000 C 
ATOM     18  H   UNL     1      -1.957  14.822  18.640  0.00  0.00    +0.000 HD
ENDROOT
BRANCH  12  19
ATOM     19  O   UNL     1       4.468  17.411  19.406  0.00  0.00    +0.000 OA
ATOM     20  C   UNL     1       4.711  18.144  20.598  0.00  0.00    +0.000 C 
ENDBRANCH  12  19
BRANCH  13  21
ATOM     21  O   UNL     1       5.145  14.702  20.244  0.00  0.00    +0.000 OA
ATOM     22  C   UNL     1       5.408  14.617  21.634  0.00  0.00    +0.000 C 
ENDBRANCH  13  21
BRANCH   1  23
ATOM     23  O   UNL     1       2.124   8.351  19.907  0.00  0.00    +0.000 OA
BRANCH  23  25
ATOM     24  N   UNL     1       2.158   6.214  20.599  0.00  0.00    +0.000 N 
ATOM     25  C   UNL     1       2.285   7.048  19.530  0.00  0.00    +0.000 C 
ATOM     26  O   UNL     1       2.519   6.673  18.388  0.00  0.00    +0.000 OA
ATOM     27  H   UNL     1       1.987   6.639  21.499  0.00  0.00    +0.000 HD
BRANCH  24  29
ATOM     28  C   UNL     1       0.942   4.089  20.332  0.00  0.00    +0.000 C 
ATOM     29  C   UNL     1       2.289   4.779  20.469  0.00  0.00    +0.000 C 
ENDBRANCH  24  29
ENDBRANCH  23  25
ENDBRANCH   1  23
TORSDOF 5
ENDMDL
MODEL 5
REMARK VINA RESULT:      -6.2      6.660     10.369
REMARK  Name = 
REMARK  8 active torsions:
REMARK  status: ('A' for Active; 'I' for Inactive)
REMARK    1  A    between atoms: C_1  and  C_2
REMARK    2  A    between atoms: C_2  and  N_3
REMARK    3  A    between atoms: C_4  and  O_6
REMARK    4  A    between atoms: O_6  and  C_7
REMARK    5  A    between atoms: C_18  and  O_19
REMARK    6  A    between atoms: O_19  and  C_20
REMARK    7  A    between atoms: C_21  and  O_22
REMARK    8  A    between atoms: O_22  and  C_23
REMARK                            x       y       z     vdW  Elec       q    Type
REMARK                         _______ _______ _______ _____ _____    ______ ____
ROOT
ATOM      1  C   UNL     1      -0.163   8.908  21.125  0.00  0.00    +0.000 C 
ATOM      2  C   UNL     1      -0.709  10.096  20.321  0.00  0.00    +0.000 C 
ATOM      3  C   UNL     1      -0.578  11.424  21.058  0.00  0.00    +0.000 C 
ATOM      4  N   UNL     1      -1.125  11.300  22.404  0.00  0.00    +0.000 N 
ATOM      5  C   UNL     1      -2.093  12.156  22.907  0.00  0.00    +0.000 A 
ATOM      6  N   UNL     1      -3.269  11.693  23.234  0.00  0.00    +0.000 NA
ATOM      7  N   UNL     1      -4.234  12.573  23.642  0.00  0.00    +0.000 N 
ATOM      8  C   UNL     1      -4.115  13.941  23.699  0.00  0.00    +0.000 A 
ATOM      9  O   UNL     1      -5.043  14.677  24.009  0.00  0.00    +0.000 OA
ATOM     10  C   UNL     1      -2.784  14.485  23.393  0.00  0.00    +0.000 A 
ATOM     11  C   UNL     1      -2.527  15.864  23.478  0.00  0.00    +0.000 A 
ATOM     12  C   UNL     1      -1.236  16.364  23.244  0.00  0.00    +0.000 A 
ATOM     13  C   UNL     1      -0.199  15.457  22.960  0.00  0.00    +0.000 A 
ATOM     14  C   UNL     1      -0.478  14.088  22.877  0.00  0.00    +0.000 A 
ATOM     15  C   UNL     1      -1.773  13.604  23.051  0.00  0.00    +0.000 A 
ATOM     16  C   UNL     1      -0.466  10.307  23.238  0.00  0.00    +0.000 C 
ATOM     17  C   UNL     1      -0.605   8.934  22.596  0.00  0.00    +0.000 C 
ATOM     18  H   UNL     1      -5.146  12.175  23.842  0.00  0.00    +0.000 HD
ENDROOT
BRANCH  12  19
ATOM     19  O   UNL     1      -0.924  17.694  23.289  0.00  0.00    +0.000 OA
ATOM     20  C   UNL     1      -1.047  18.468  22.105  0.00  0.00    +0.000 C 
ENDBRANCH  12  19
BRANCH  13  21
ATOM     21  O   UNL     1       1.129  15.700  22.733  0.00  0.00    +0.000 OA
ATOM     22  C   UNL     1       1.820  14.921  21.772  0.00  0.00    +0.000 C 
ENDBRANCH  13  21
BRANCH   1  23
ATOM     23  O   UNL     1       1.283   8.868  21.038  0.00  0.00    +0.000 OA
BRANCH  23  25
ATOM     24  N   UNL     1       1.840   6.692  20.995  0.00  0.00    +0.000 N 
ATOM     25  C   UNL     1       1.765   7.844  20.273  0.00  0.00    +0.000 C 
ATOM     26  O   UNL     1       2.094   7.943  19.098  0.00  0.00    +0.000 OA
ATOM     27  H   UNL     1       1.561   6.735  21.965  0.00  0.00    +0.000 HD
BRANCH  24  29
ATOM     28  C   UNL     1       1.208   4.443  20.213  0.00  0.00    +0.000 C 
ATOM     29  C   UNL     1       2.322   5.456  20.417  0.00  0.00    +0.000 C 
ENDBRANCH  24  29
ENDBRANCH  23  25
ENDBRANCH   1  23
TORSDOF 5
ENDMDL
MODEL 6
REMARK VINA RESULT:      -6.1      7.682     12.830
REMARK  Name = 
REMARK  8 active torsions:
REMARK  status: ('A' for Active; 'I' for Inactive)
REMARK    1  A    between atoms: C_1  and  C_2
REMARK    2  A    between atoms: C_2  and  N_3
REMARK    3  A    between atoms: C_4  and  O_6
REMARK    4  A    between atoms: O_6  and  C_7
REMARK    5  A    between atoms: C_18  and  O_19
REMARK    6  A    between atoms: O_19  and  C_20
REMARK    7  A    between atoms: C_21  and  O_22
REMARK    8  A    between atoms: O_22  and  C_23
REMARK                            x       y       z     vdW  Elec       q    Type
REMARK                         _______ _______ _______ _____ _____    ______ ____
ROOT
ATOM      1  C   UNL     1      -1.976  14.792  23.102  0.00  0.00    +0.000 C 
ATOM      2  C   UNL     1      -1.618  15.091  21.640  0.00  0.00    +0.000 C 
ATOM      3  C   UNL     1      -2.196  14.070  20.666  0.00  0.00    +0.000 C 
ATOM      4  N   UNL     1      -1.865  12.721  21.108  0.00  0.00    +0.000 N 
ATOM      5  C   UNL     1      -1.238  11.792  20.292  0.00  0.00    +0.000 A 
ATOM      6  N   UNL     1      -0.055  11.340  20.605  0.00  0.00    +0.000 NA
ATOM      7  N   UNL     1       0.579  10.493  19.737  0.00  0.00    +0.000 N 
ATOM      8  C   UNL     1       0.115  10.093  18.507  0.00  0.00    +0.000 A 
ATOM      9  O   UNL     1       0.766   9.387  17.748  0.00  0.00    +0.000 OA
ATOM     10  C   UNL     1      -1.240  10.540  18.153  0.00  0.00    +0.000 A 
ATOM     11  C   UNL     1      -1.844  10.143  16.948  0.00  0.00    +0.000 A 
ATOM     12  C   UNL     1      -3.161  10.526  16.652  0.00  0.00    +0.000 A 
ATOM     13  C   UNL     1      -3.878  11.280  17.598  0.00  0.00    +0.000 A 
ATOM     14  C   UNL     1      -3.256  11.667  18.791  0.00  0.00    +0.000 A 
ATOM     15  C   UNL     1      -1.928  11.335  19.053  0.00  0.00    +0.000 A 
ATOM     16  C   UNL     1      -2.384  12.368  22.420  0.00  0.00    +0.000 C 
ATOM     17  C   UNL     1      -1.802  13.310  23.464  0.00  0.00    +0.000 C 
ATOM     18  H   UNL     1       1.517  10.203  19.998  0.00  0.00    +0.000 HD
ENDROOT
BRANCH  12  19
ATOM     19  O   UNL     1      -3.798  10.193  15.489  0.00  0.00    +0.000 OA
ATOM     20  C   UNL     1      -3.046  10.136  14.286  0.00  0.00    +0.000 C 
ENDBRANCH  12  19
BRANCH  13  21
ATOM     21  O   UNL     1      -5.169  11.735  17.549  0.00  0.00    +0.000 OA
ATOM     22  C   UNL     1      -6.155  11.103  18.347  0.00  0.00    +0.000 C 
ENDBRANCH  13  21
BRANCH   1  23
ATOM     23  O   UNL     1      -3.331  15.222  23.383  0.00  0.00    +0.000 OA
BRANCH  23  25
ATOM     24  N   UNL     1      -2.201  16.639  24.711  0.00  0.00    +0.000 N 
ATOM     25  C   UNL     1      -3.426  16.132  24.397  0.00  0.00    +0.000 C 
ATOM     26  O   UNL     1      -4.467  16.450  24.958  0.00  0.00    +0.000 OA
ATOM     27  H   UNL     1      -1.408  16.285  24.195  0.00  0.00    +0.000 HD
BRANCH  24  29
ATOM     28  C   UNL     1      -0.822  17.322  26.634  0.00  0.00    +0.000 C 
ATOM     29  C   UNL     1      -2.025  17.624  25.757  0.00  0.00    +0.000 C 
ENDBRANCH  24  29
ENDBRANCH  23  25
ENDBRANCH   1  23
TORSDOF 5
ENDMDL
MODEL 7
REMARK VINA RESULT:      -6.1      8.311     13.521
REMARK  Name = 
REMARK  8 active torsions:
REMARK  status: ('A' for Active; 'I' for Inactive)
REMARK    1  A    between atoms: C_1  and  C_2
REMARK    2  A    between atoms: C_2  and  N_3
REMARK    3  A    between atoms: C_4  and  O_6
REMARK    4  A    between atoms: O_6  and  C_7
REMARK    5  A    between atoms: C_18  and  O_19
REMARK    6  A    between atoms: O_19  and  C_20
REMARK    7  A    between atoms: C_21  and  O_22
REMARK    8  A    between atoms: O_22  and  C_23
REMARK                            x       y       z     vdW  Elec       q    Type
REMARK                         _______ _______ _______ _____ _____    ______ ____
ROOT
ATOM      1  C   UNL     1      -7.896  13.247  21.098  0.00  0.00    +0.000 C 
ATOM      2  C   UNL     1      -7.223  11.869  21.167  0.00  0.00    +0.000 C 
ATOM      3  C   UNL     1      -5.747  11.908  20.790  0.00  0.00    +0.000 C 
ATOM      4  N   UNL     1      -5.579  12.602  19.519  0.00  0.00    +0.000 N 
ATOM      5  C   UNL     1      -4.904  12.049  18.441  0.00  0.00    +0.000 A 
ATOM      6  N   UNL     1      -5.539  11.806  17.327  0.00  0.00    +0.000 NA
ATOM      7  N   UNL     1      -4.873  11.178  16.311  0.00  0.00    +0.000 N 
ATOM      8  C   UNL     1      -3.581  10.712  16.352  0.00  0.00    +0.000 A 
ATOM      9  O   UNL     1      -3.066  10.096  15.428  0.00  0.00    +0.000 OA
ATOM     10  C   UNL     1      -2.822  11.024  17.573  0.00  0.00    +0.000 A 
ATOM     11  C   UNL     1      -1.474  10.652  17.703  0.00  0.00    +0.000 A 
ATOM     12  C   UNL     1      -0.744  11.011  18.847  0.00  0.00    +0.000 A 
ATOM     13  C   UNL     1      -1.375  11.780  19.841  0.00  0.00    +0.000 A 
ATOM     14  C   UNL     1      -2.721  12.136  19.692  0.00  0.00    +0.000 A 
ATOM     15  C   UNL     1      -3.457  11.726  18.582  0.00  0.00    +0.000 A 
ATOM     16  C   UNL     1      -6.034  13.983  19.516  0.00  0.00    +0.000 C 
ATOM     17  C   UNL     1      -7.524  14.025  19.828  0.00  0.00    +0.000 C 
ATOM     18  H   UNL     1      -5.418  10.967  15.481  0.00  0.00    +0.000 HD
ENDROOT
BRANCH  12  19
ATOM     19  O   UNL     1       0.563  10.662  19.047  0.00  0.00    +0.000 OA
ATOM     20  C   UNL     1       0.854   9.466  19.754  0.00  0.00    +0.000 C 
ENDBRANCH  12  19
BRANCH  13  21
ATOM     21  O   UNL     1      -0.866  12.272  21.013  0.00  0.00    +0.000 OA
ATOM     22  C   UNL     1      -1.149  11.597  22.227  0.00  0.00    +0.000 C 
ENDBRANCH  13  21
BRANCH   1  23
ATOM     23  O   UNL     1      -7.568  14.024  22.276  0.00  0.00    +0.000 OA
BRANCH  23  25
ATOM     24  N   UNL     1      -5.814  13.354  23.510  0.00  0.00    +0.000 N 
ATOM     25  C   UNL     1      -7.163  13.272  23.342  0.00  0.00    +0.000 C 
ATOM     26  O   UNL     1      -7.907  12.606  24.052  0.00  0.00    +0.000 OA
ATOM     27  H   UNL     1      -5.299  13.918  22.849  0.00  0.00    +0.000 HD
BRANCH  24  29
ATOM     28  C   UNL     1      -3.674  13.061  24.694  0.00  0.00    +0.000 C 
ATOM     29  C   UNL     1      -5.131  12.646  24.572  0.00  0.00    +0.000 C 
ENDBRANCH  24  29
ENDBRANCH  23  25
ENDBRANCH   1  23
TORSDOF 5
ENDMDL
MODEL 8
REMARK VINA RESULT:      -6.0      6.989     10.630
REMARK  Name = 
REMARK  8 active torsions:
REMARK  status: ('A' for Active; 'I' for Inactive)
REMARK    1  A    between atoms: C_1  and  C_2
REMARK    2  A    between atoms: C_2  and  N_3
REMARK    3  A    between atoms: C_4  and  O_6
REMARK    4  A    between atoms: O_6  and  C_7
REMARK    5  A    between atoms: C_18  and  O_19
REMARK    6  A    between atoms: O_19  and  C_20
REMARK    7  A    between atoms: C_21  and  O_22
REMARK    8  A    between atoms: O_22  and  C_23
REMARK                            x       y       z     vdW  Elec       q    Type
REMARK                         _______ _______ _______ _____ _____    ______ ____
ROOT
ATOM      1  C   UNL     1       1.021  10.094  21.591  0.00  0.00    +0.000 C 
ATOM      2  C   UNL     1       0.027   9.898  22.744  0.00  0.00    +0.000 C 
ATOM      3  C   UNL     1      -1.267  10.680  22.554  0.00  0.00    +0.000 C 
ATOM      4  N   UNL     1      -0.964  12.073  22.245  0.00  0.00    +0.000 N 
ATOM      5  C   UNL     1      -1.493  13.137  22.959  0.00  0.00    +0.000 A 
ATOM      6  N   UNL     1      -0.703  13.932  23.628  0.00  0.00    +0.000 NA
ATOM      7  N   UNL     1      -1.257  14.919  24.396  0.00  0.00    +0.000 N 
ATOM      8  C   UNL     1      -2.599  15.141  24.590  0.00  0.00    +0.000 A 
ATOM      9  O   UNL     1      -3.028  16.002  25.347  0.00  0.00    +0.000 OA
ATOM     10  C   UNL     1      -3.512  14.298  23.804  0.00  0.00    +0.000 A 
ATOM     11  C   UNL     1      -4.904  14.476  23.873  0.00  0.00    +0.000 A 
ATOM     12  C   UNL     1      -5.760  13.706  23.070  0.00  0.00    +0.000 A 
ATOM     13  C   UNL     1      -5.199  12.783  22.169  0.00  0.00    +0.000 A 
ATOM     14  C   UNL     1      -3.810  12.621  22.120  0.00  0.00    +0.000 A 
ATOM     15  C   UNL     1      -2.968  13.344  22.962  0.00  0.00    +0.000 A 
ATOM     16  C   UNL     1      -0.188  12.270  21.030  0.00  0.00    +0.000 C 
ATOM     17  C   UNL     1       1.153  11.564  21.166  0.00  0.00    +0.000 C 
ATOM     18  H   UNL     1      -0.608  15.484  24.935  0.00  0.00    +0.000 HD
ENDROOT
BRANCH  12  19
ATOM     19  O   UNL     1      -7.123  13.813  23.105  0.00  0.00    +0.000 OA
ATOM     20  C   UNL     1      -7.768  13.965  24.361  0.00  0.00    +0.000 C 
ENDBRANCH  12  19
BRANCH  13  21
ATOM     21  O   UNL     1      -5.821  11.956  21.272  0.00  0.00    +0.000 OA
ATOM     22  C   UNL     1      -6.068  12.424  19.957  0.00  0.00    +0.000 C 
ENDBRANCH  13  21
BRANCH   1  23
ATOM     23  O   UNL     1       0.639   9.277  20.458  0.00  0.00    +0.000 OA
BRANCH  23  25
ATOM     24  N   UNL     1       2.040   8.138  19.120  0.00  0.00    +0.000 N 
ATOM     25  C   UNL     1       1.385   8.142  20.315  0.00  0.00    +0.000 C 
ATOM     26  O   UNL     1       1.455   7.241  21.142  0.00  0.00    +0.000 OA
ATOM     27  H   UNL     1       1.888   8.926  18.508  0.00  0.00    +0.000 HD
BRANCH  24  29
ATOM     28  C   UNL     1       2.124   5.924  18.045  0.00  0.00    +0.000 C 
ATOM     29  C   UNL     1       2.898   7.043  18.721  0.00  0.00    +0.000 C 
ENDBRANCH  24  29
ENDBRANCH  23  25
ENDBRANCH   1  23
TORSDOF 5
ENDMDL
MODEL 9
REMARK VINA RESULT:      -6.0      9.562     13.459
REMARK  Name = 
REMARK  8 active torsions:
REMARK  status: ('A' for Active; 'I' for Inactive)
REMARK    1  A    between atoms: C_1  and  C_2
REMARK    2  A    between atoms: C_2  and  N_3
REMARK    3  A    between atoms: C_4  and  O_6
REMARK    4  A    between atoms: O_6  and  C_7
REMARK    5  A    between atoms: C_18  and  O_19
REMARK    6  A    between atoms: O_19  and  C_20
REMARK    7  A    between atoms: C_21  and  O_22
REMARK    8  A    between atoms: O_22  and  C_23
REMARK                            x       y       z     vdW  Elec       q    Type
REMARK                         _______ _______ _______ _____ _____    ______ ____
ROOT
ATOM      1  C   UNL     1      -2.686  14.149  24.033  0.00  0.00    +0.000 C 
ATOM      2  C   UNL     1      -3.144  12.725  23.687  0.00  0.00    +0.000 C 
ATOM      3  C   UNL     1      -2.920  12.367  22.222  0.00  0.00    +0.000 C 
ATOM      4  N   UNL     1      -3.478  13.409  21.367  0.00  0.00    +0.000 N 
ATOM      5  C   UNL     1      -4.382  13.146  20.350  0.00  0.00    +0.000 A 
ATOM      6  N   UNL     1      -5.589  13.640  20.405  0.00  0.00    +0.000 NA
ATOM      7  N   UNL     1      -6.490  13.292  19.435  0.00  0.00    +0.000 N 
ATOM      8  C   UNL     1      -6.273  12.409  18.404  0.00  0.00    +0.000 A 
ATOM      9  O   UNL     1      -7.146  12.089  17.609  0.00  0.00    +0.000 OA
ATOM     10  C   UNL     1      -4.906  11.882  18.284  0.00  0.00    +0.000 A 
ATOM     11  C   UNL     1      -4.551  11.020  17.233  0.00  0.00    +0.000 A 
ATOM     12  C   UNL     1      -3.227  10.574  17.094  0.00  0.00    +0.000 A 
ATOM     13  C   UNL     1      -2.257  11.036  18.002  0.00  0.00    +0.000 A 
ATOM     14  C   UNL     1      -2.634  11.891  19.043  0.00  0.00    +0.000 A 
ATOM     15  C   UNL     1      -3.960  12.283  19.211  0.00  0.00    +0.000 A 
ATOM     16  C   UNL     1      -2.893  14.727  21.556  0.00  0.00    +0.000 C 
ATOM     17  C   UNL     1      -3.129  15.184  22.989  0.00  0.00    +0.000 C 
ATOM     18  H   UNL     1      -7.429  13.662  19.543  0.00  0.00    +0.000 HD
ENDROOT
BRANCH  12  19
ATOM     19  O   UNL     1      -2.821   9.718  16.109  0.00  0.00    +0.000 OA
ATOM     20  C   UNL     1      -3.073  10.060  14.754  0.00  0.00    +0.000 C 
ENDBRANCH  12  19
BRANCH  13  21
ATOM     21  O   UNL     1      -0.914  10.771  18.047  0.00  0.00    +0.000 OA
ATOM     22  C   UNL     1      -0.067  11.618  18.804  0.00  0.00    +0.000 C 
ENDBRANCH  13  21
BRANCH   1  23
ATOM     23  O   UNL     1      -1.247  14.185  24.196  0.00  0.00    +0.000 OA
BRANCH  23  25
ATOM     24  N   UNL     1      -1.267  15.554  25.977  0.00  0.00    +0.000 N 
ATOM     25  C   UNL     1      -0.777  15.355  24.722  0.00  0.00    +0.000 C 
ATOM     26  O   UNL     1      -0.022  16.128  24.146  0.00  0.00    +0.000 OA
ATOM     27  H   UNL     1      -1.900  14.857  26.342  0.00  0.00    +0.000 HD
BRANCH  24  29
ATOM     28  C   UNL     1       0.273  16.482  27.661  0.00  0.00    +0.000 C 
ATOM     29  C   UNL     1      -0.923  16.724  26.755  0.00  0.00    +0.000 C 
ENDBRANCH  24  29
ENDBRANCH  23  25
ENDBRANCH   1  23
TORSDOF 5
ENDMDL
