MODEL 1
REMARK VINA RESULT:      -7.2      0.000      0.000
REMARK  Name = 
REMARK  8 active torsions:
REMARK  status: ('A' for Active; 'I' for Inactive)
REMARK    1  A    between atoms: C_1  and  C_2
REMARK    2  A    between atoms: C_2  and  C_3
REMARK    3  A    between atoms: C_2  and  C_4
REMARK    4  A    between atoms: C_4  and  C_5
REMARK    5  A    between atoms: C_4  and  N_16
REMARK    6  A    between atoms: C_5  and  N_6
REMARK    7  A    between atoms: N_9  and  C_10
REMARK    8  A    between atoms: C_10  and  C_11
REMARK                            x       y       z     vdW  Elec       q    Type
REMARK                         _______ _______ _______ _____ _____    ______ ____
ROOT
ATOM      1  N   UNL     1       4.595   4.480  19.301  0.00  0.00    +0.000 N 
ATOM      2  C   UNL     1       5.573   5.037  18.541  0.00  0.00    +0.000 C 
ATOM      3  O   UNL     1       5.604   6.230  18.200  0.00  0.00    +0.000 OA
ATOM      4  N   UNL     1       6.485   4.122  18.092  0.00  0.00    +0.000 N 
ATOM      5  H   UNL     1       4.828   3.660  19.842  0.00  0.00    +0.000 HD
ATOM      6  H   UNL     1       6.550   3.223  18.532  0.00  0.00    +0.000 HD
ENDROOT
BRANCH   1   7
ATOM      7  C   UNL     1       3.552   5.333  19.869  0.00  0.00    +0.000 C 
BRANCH   7   8
ATOM      8  C   UNL     1       2.383   5.574  18.866  0.00  0.00    +0.000 C 
BRANCH   8   9
ATOM      9  N   UNL     1       1.335   4.532  19.052  0.00  0.00    +0.000 NA
ATOM     10  C   UNL     1       0.924   4.231  20.424  0.00  0.00    +0.000 C 
ATOM     11  C   UNL     1       1.800   3.175  21.105  0.00  0.00    +0.000 C 
ATOM     12  O   UNL     1       1.886   1.958  20.357  0.00  0.00    +0.000 OA
ATOM     13  C   UNL     1       2.153   2.116  18.960  0.00  0.00    +0.000 C 
ATOM     14  C   UNL     1       1.401   3.276  18.294  0.00  0.00    +0.000 C 
ENDBRANCH   8   9
BRANCH   8  16
ATOM     15  C   UNL     1       1.917   7.895  20.044  0.00  0.00    +0.000 C 
ATOM     16  C   UNL     1       1.992   7.101  18.741  0.00  0.00    +0.000 C 
ATOM     17  C   UNL     1       2.916   7.904  17.806  0.00  0.00    +0.000 C 
ENDBRANCH   8  16
ENDBRANCH   7   8
ENDBRANCH   1   7
BRANCH   4  18
ATOM     18  C   UNL     1       7.604   4.510  17.239  0.00  0.00    +0.000 C 
BRANCH  18  19
ATOM     19  C   UNL     1       7.177   4.539  15.803  0.00  0.00    +0.000 A 
ATOM     20  C   UNL     1       6.240   3.692  15.166  0.00  0.00    +0.000 A 
ATOM     21  C   UNL     1       6.198   4.122  13.855  0.00  0.00    +0.000 A 
ATOM     22  N   UNL     1       7.068   5.157  13.778  0.00  0.00    +0.000 N 
ATOM     23  N   UNL     1       7.683   5.439  14.939  0.00  0.00    +0.000 NA
ATOM     24  H   UNL     1       7.297   5.718  12.963  0.00  0.00    +0.000 HD
ENDBRANCH  18  19
ENDBRANCH   4  18
TORSDOF 6
ENDMDL
MODEL 2
REMARK VINA RESULT:      -7.1      3.850      7.327
REMARK  Name = 
REMARK  8 active torsions:
REMARK  status: ('A' for Active; 'I' for Inactive)
REMARK    1  A    between atoms: C_1  and  C_2
REMARK    2  A    between atoms: C_2  and  C_3
REMARK    3  A    between atoms: C_2  and  C_4
REMARK    4  A    between atoms: C_4  and  C_5
REMARK    5  A    between atoms: C_4  and  N_16
REMARK    6  A    between atoms: C_5  and  N_6
REMARK    7  A    between atoms: N_9  and  C_10
REMARK    8  A    between atoms: C_10  and  C_11
REMARK                            x       y       z     vdW  Elec       q    Type
REMARK                         _______ _______ _______ _____ _____    ______ ____
ROOT
ATOM      1  N   UNL     1       2.681   7.379  18.213  0.00  0.00    +0.000 N 
ATOM      2  C   UNL     1       2.003   8.111  19.135  0.00  0.00    +0.000 C 
ATOM      3  O   UNL     1       1.850   7.779  20.320  0.00  0.00    +0.000 OA
ATOM      4  N   UNL     1       1.407   9.220  18.601  0.00  0.00    +0.000 N 
ATOM      5  H   UNL     1       3.085   7.868  17.428  0.00  0.00    +0.000 HD
ATOM      6  H   UNL     1       1.702   9.565  17.707  0.00  0.00    +0.000 HD
ENDROOT
BRANCH   1   7
ATOM      7  C   UNL     1       3.386   6.169  18.633  0.00  0.00    +0.000 C 
BRANCH   7   8
ATOM      8  C   UNL     1       3.932   5.358  17.419  0.00  0.00    +0.000 C 
BRANCH   8   9
ATOM      9  N   UNL     1       5.143   6.027  16.868  0.00  0.00    +0.000 NA
ATOM     10  C   UNL     1       5.580   5.629  15.528  0.00  0.00    +0.000 C 
ATOM     11  C   UNL     1       6.508   4.410  15.528  0.00  0.00    +0.000 C 
ATOM     12  O   UNL     1       7.653   4.583  16.370  0.00  0.00    +0.000 OA
ATOM     13  C   UNL     1       7.379   5.100  17.676  0.00  0.00    +0.000 C 
ATOM     14  C   UNL     1       6.329   6.217  17.713  0.00  0.00    +0.000 C 
ENDBRANCH   8   9
BRANCH   8  16
ATOM     15  C   UNL     1       4.313   3.328  19.069  0.00  0.00    +0.000 C 
ATOM     16  C   UNL     1       3.915   3.798  17.672  0.00  0.00    +0.000 C 
ATOM     17  C   UNL     1       2.557   3.135  17.371  0.00  0.00    +0.000 C 
ENDBRANCH   8  16
ENDBRANCH   7   8
ENDBRANCH   1   7
BRANCH   4  18
ATOM     18  C   UNL     1       0.610  10.131  19.417  0.00  0.00    +0.000 C 
BRANCH  18  19
ATOM     19  C   UNL     1      -0.412  10.827  18.571  0.00  0.00    +0.000 A 
ATOM     20  C   UNL     1      -1.496  10.243  17.874  0.00  0.00    +0.000 A 
ATOM     21  C   UNL     1      -2.136  11.296  17.254  0.00  0.00    +0.000 A 
ATOM     22  N   UNL     1      -1.438  12.406  17.597  0.00  0.00    +0.000 N 
ATOM     23  N   UNL     1      -0.384  12.162  18.394  0.00  0.00    +0.000 NA
ATOM     24  H   UNL     1      -1.621  13.365  17.322  0.00  0.00    +0.000 HD
ENDBRANCH  18  19
ENDBRANCH   4  18
TORSDOF 6
ENDMDL
MODEL 3
REMARK VINA RESULT:      -7.0      3.004      7.064
REMARK  Name = 
REMARK  8 active torsions:
REMARK  status: ('A' for Active; 'I' for Inactive)
REMARK    1  A    between atoms: C_1  and  C_2
REMARK    2  A    between atoms: C_2  and  C_3
REMARK    3  A    between atoms: C_2  and  C_4
REMARK    4  A    between atoms: C_4  and  C_5
REMARK    5  A    between atoms: C_4  and  N_16
REMARK    6  A    between atoms: C_5  and  N_6
REMARK    7  A    between atoms: N_9  and  C_10
REMARK    8  A    between atoms: C_10  and  C_11
REMARK                            x       y       z     vdW  Elec       q    Type
REMARK                         _______ _______ _______ _____ _____    ______ ____
ROOT
ATOM      1  N   UNL     1       3.479   6.132  19.625  0.00  0.00    +0.000 N 
ATOM      2  C   UNL     1       2.351   6.340  20.352  0.00  0.00    +0.000 C 
ATOM      3  O   UNL     1       1.597   5.440  20.751  0.00  0.00    +0.000 OA
ATOM      4  N   UNL     1       2.063   7.666  20.521  0.00  0.00    +0.000 N 
ATOM      5  H   UNL     1       4.209   6.827  19.679  0.00  0.00    +0.000 HD
ATOM      6  H   UNL     1       2.774   8.357  20.365  0.00  0.00    +0.000 HD
ENDROOT
BRANCH   1   7
ATOM      7  C   UNL     1       3.928   4.764  19.371  0.00  0.00    +0.000 C 
BRANCH   7   8
ATOM      8  C   UNL     1       4.058   4.464  17.847  0.00  0.00    +0.000 C 
BRANCH   8   9
ATOM      9  N   UNL     1       5.472   4.134  17.515  0.00  0.00    +0.000 NA
ATOM     10  C   UNL     1       6.518   4.897  18.199  0.00  0.00    +0.000 C 
ATOM     11  C   UNL     1       6.876   6.209  17.493  0.00  0.00    +0.000 C 
ATOM     12  O   UNL     1       7.245   6.019  16.122  0.00  0.00    +0.000 OA
ATOM     13  C   UNL     1       6.372   5.175  15.366  0.00  0.00    +0.000 C 
ATOM     14  C   UNL     1       5.874   3.933  16.117  0.00  0.00    +0.000 C 
ENDBRANCH   8   9
BRANCH   8  16
ATOM     15  C   UNL     1       2.798   2.139  17.813  0.00  0.00    +0.000 C 
ATOM     16  C   UNL     1       2.871   3.575  17.298  0.00  0.00    +0.000 C 
ATOM     17  C   UNL     1       1.477   4.185  17.540  0.00  0.00    +0.000 C 
ENDBRANCH   8  16
ENDBRANCH   7   8
ENDBRANCH   1   7
BRANCH   4  18
ATOM     18  C   UNL     1       0.880   8.108  21.253  0.00  0.00    +0.000 C 
BRANCH  18  19
ATOM     19  C   UNL     1       0.572   9.538  20.929  0.00  0.00    +0.000 A 
ATOM     20  C   UNL     1      -0.149  10.033  19.817  0.00  0.00    +0.000 A 
ATOM     21  C   UNL     1      -0.159  11.404  19.975  0.00  0.00    +0.000 A 
ATOM     22  N   UNL     1       0.522  11.649  21.120  0.00  0.00    +0.000 N 
ATOM     23  N   UNL     1       0.982  10.542  21.727  0.00  0.00    +0.000 NA
ATOM     24  H   UNL     1       0.715  12.548  21.549  0.00  0.00    +0.000 HD
ENDBRANCH  18  19
ENDBRANCH   4  18
TORSDOF 6
ENDMDL
MODEL 4
REMARK VINA RESULT:      -6.9      3.622      6.879
REMARK  Name = 
REMARK  8 active torsions:
REMARK  status: ('A' for Active; 'I' for Inactive)
REMARK    1  A    between atoms: C_1  and  C_2
REMARK    2  A    between atoms: C_2  and  C_3
REMARK    3  A    between atoms: C_2  and  C_4
REMARK    4  A    between atoms: C_4  and  C_5
REMARK    5  A    between atoms: C_4  and  N_16
REMARK    6  A    between atoms: C_5  and  N_6
REMARK    7  A    between atoms: N_9  and  C_10
REMARK    8  A    between atoms: C_10  and  C_11
REMARK                            x       y       z     vdW  Elec       q    Type
REMARK                         _______ _______ _______ _____ _____    ______ ____
ROOT
ATOM      1  N   UNL     1       3.089   6.987  17.982  0.00  0.00    +0.000 N 
ATOM      2  C   UNL     1       2.363   7.756  18.834  0.00  0.00    +0.000 C 
ATOM      3  O   UNL     1       2.117   7.459  20.013  0.00  0.00    +0.000 OA
ATOM      4  N   UNL     1       1.832   8.863  18.231  0.00  0.00    +0.000 N 
ATOM      5  H   UNL     1       3.560   7.447  17.217  0.00  0.00    +0.000 HD
ATOM      6  H   UNL     1       2.198   9.178  17.352  0.00  0.00    +0.000 HD
ENDROOT
BRANCH   1   7
ATOM      7  C   UNL     1       3.735   5.775  18.483  0.00  0.00    +0.000 C 
BRANCH   7   8
ATOM      8  C   UNL     1       4.010   4.745  17.345  0.00  0.00    +0.000 C 
BRANCH   8   9
ATOM      9  N   UNL     1       5.458   4.394  17.320  0.00  0.00    +0.000 NA
ATOM     10  C   UNL     1       6.382   5.305  17.999  0.00  0.00    +0.000 C 
ATOM     11  C   UNL     1       6.859   6.461  17.113  0.00  0.00    +0.000 C 
ATOM     12  O   UNL     1       7.448   6.014  15.887  0.00  0.00    +0.000 OA
ATOM     13  C   UNL     1       6.706   5.014  15.182  0.00  0.00    +0.000 C 
ATOM     14  C   UNL     1       6.083   3.932  16.074  0.00  0.00    +0.000 C 
ENDBRANCH   8   9
BRANCH   8  16
ATOM     15  C   UNL     1       3.238   2.284  17.925  0.00  0.00    +0.000 C 
ATOM     16  C   UNL     1       2.904   3.619  17.263  0.00  0.00    +0.000 C 
ATOM     17  C   UNL     1       1.539   4.047  17.833  0.00  0.00    +0.000 C 
ENDBRANCH   8  16
ENDBRANCH   7   8
ENDBRANCH   1   7
BRANCH   4  18
ATOM     18  C   UNL     1       0.998   9.811  18.964  0.00  0.00    +0.000 C 
BRANCH  18  19
ATOM     19  C   UNL     1       1.373  11.216  18.607  0.00  0.00    +0.000 A 
ATOM     20  C   UNL     1       0.680  12.404  18.942  0.00  0.00    +0.000 A 
ATOM     21  C   UNL     1       1.425  13.425  18.388  0.00  0.00    +0.000 A 
ATOM     22  N   UNL     1       2.478  12.826  17.781  0.00  0.00    +0.000 N 
ATOM     23  N   UNL     1       2.481  11.487  17.892  0.00  0.00    +0.000 NA
ATOM     24  H   UNL     1       3.235  13.268  17.270  0.00  0.00    +0.000 HD
ENDBRANCH  18  19
ENDBRANCH   4  18
TORSDOF 6
ENDMDL
MODEL 5
REMARK VINA RESULT:      -6.8      2.976      6.945
REMARK  Name = 
REMARK  8 active torsions:
REMARK  status: ('A' for Active; 'I' for Inactive)
REMARK    1  A    between atoms: C_1  and  C_2
REMARK    2  A    between atoms: C_2  and  C_3
REMARK    3  A    between atoms: C_2  and  C_4
REMARK    4  A    between atoms: C_4  and  C_5
REMARK    5  A    between atoms: C_4  and  N_16
REMARK    6  A    between atoms: C_5  and  N_6
REMARK    7  A    between atoms: N_9  and  C_10
REMARK    8  A    between atoms: C_10  and  C_11
REMARK                            x       y       z     vdW  Elec       q    Type
REMARK                         _______ _______ _______ _____ _____    ______ ____
ROOT
ATOM      1  N   UNL     1       3.382   6.484  19.063  0.00  0.00    +0.000 N 
ATOM      2  C   UNL     1       2.355   6.836  19.880  0.00  0.00    +0.000 C 
ATOM      3  O   UNL     1       1.722   6.044  20.594  0.00  0.00    +0.000 OA
ATOM      4  N   UNL     1       2.009   8.154  19.763  0.00  0.00    +0.000 N 
ATOM      5  H   UNL     1       4.067   7.191  18.837  0.00  0.00    +0.000 HD
ATOM      6  H   UNL     1       2.646   8.803  19.339  0.00  0.00    +0.000 HD
ENDROOT
BRANCH   1   7
ATOM      7  C   UNL     1       3.877   5.109  19.085  0.00  0.00    +0.000 C 
BRANCH   7   8
ATOM      8  C   UNL     1       4.031   4.520  17.650  0.00  0.00    +0.000 C 
BRANCH   8   9
ATOM      9  N   UNL     1       5.456   4.166  17.398  0.00  0.00    +0.000 NA
ATOM     10  C   UNL     1       6.477   4.982  18.059  0.00  0.00    +0.000 C 
ATOM     11  C   UNL     1       6.864   6.234  17.264  0.00  0.00    +0.000 C 
ATOM     12  O   UNL     1       7.284   5.935  15.928  0.00  0.00    +0.000 OA
ATOM     13  C   UNL     1       6.438   5.033  15.208  0.00  0.00    +0.000 C 
ATOM     14  C   UNL     1       5.910   3.855  16.037  0.00  0.00    +0.000 C 
ENDBRANCH   8   9
BRANCH   8  16
ATOM     15  C   UNL     1       2.986   2.099  17.841  0.00  0.00    +0.000 C 
ATOM     16  C   UNL     1       2.870   3.513  17.277  0.00  0.00    +0.000 C 
ATOM     17  C   UNL     1       1.467   4.013  17.667  0.00  0.00    +0.000 C 
ENDBRANCH   8  16
ENDBRANCH   7   8
ENDBRANCH   1   7
BRANCH   4  18
ATOM     18  C   UNL     1       0.914   8.732  20.535  0.00  0.00    +0.000 C 
BRANCH  18  19
ATOM     19  C   UNL     1       0.227   9.802  19.743  0.00  0.00    +0.000 A 
ATOM     20  C   UNL     1      -0.645  10.806  20.227  0.00  0.00    +0.000 A 
ATOM     21  C   UNL     1      -1.006  11.538  19.113  0.00  0.00    +0.000 A 
ATOM     22  N   UNL     1      -0.359  10.964  18.069  0.00  0.00    +0.000 N 
ATOM     23  N   UNL     1       0.397   9.908  18.412  0.00  0.00    +0.000 NA
ATOM     24  H   UNL     1      -0.389  11.239  17.093  0.00  0.00    +0.000 HD
ENDBRANCH  18  19
ENDBRANCH   4  18
TORSDOF 6
ENDMDL
MODEL 6
REMARK VINA RESULT:      -6.8      3.730      6.942
REMARK  Name = 
REMARK  8 active torsions:
REMARK  status: ('A' for Active; 'I' for Inactive)
REMARK    1  A    between atoms: C_1  and  C_2
REMARK    2  A    between atoms: C_2  and  C_3
REMARK    3  A    between atoms: C_2  and  C_4
REMARK    4  A    between atoms: C_4  and  C_5
REMARK    5  A    between atoms: C_4  and  N_16
REMARK    6  A    between atoms: C_5  and  N_6
REMARK    7  A    between atoms: N_9  and  C_10
REMARK    8  A    between atoms: C_10  and  C_11
REMARK                            x       y       z     vdW  Elec       q    Type
REMARK                         _______ _______ _______ _____ _____    ______ ____
ROOT
ATOM      1  N   UNL     1       2.497   7.321  18.782  0.00  0.00    +0.000 N 
ATOM      2  C   UNL     1       1.774   8.126  19.603  0.00  0.00    +0.000 C 
ATOM      3  O   UNL     1       1.494   7.857  20.781  0.00  0.00    +0.000 OA
ATOM      4  N   UNL     1       1.289   9.236  18.969  0.00  0.00    +0.000 N 
ATOM      5  H   UNL     1       2.998   7.754  18.020  0.00  0.00    +0.000 HD
ATOM      6  H   UNL     1       1.684   9.525  18.094  0.00  0.00    +0.000 HD
ENDROOT
BRANCH   1   7
ATOM      7  C   UNL     1       3.097   6.100  19.318  0.00  0.00    +0.000 C 
BRANCH   7   8
ATOM      8  C   UNL     1       2.644   4.832  18.532  0.00  0.00    +0.000 C 
BRANCH   8   9
ATOM      9  N   UNL     1       3.833   4.015  18.162  0.00  0.00    +0.000 NA
ATOM     10  C   UNL     1       4.911   3.914  19.148  0.00  0.00    +0.000 C 
ATOM     11  C   UNL     1       5.928   5.057  19.058  0.00  0.00    +0.000 C 
ATOM     12  O   UNL     1       6.491   5.198  17.750  0.00  0.00    +0.000 OA
ATOM     13  C   UNL     1       5.549   5.178  16.673  0.00  0.00    +0.000 C 
ATOM     14  C   UNL     1       4.428   4.142  16.825  0.00  0.00    +0.000 C 
ENDBRANCH   8   9
BRANCH   8  16
ATOM     15  C   UNL     1       1.070   2.717  18.731  0.00  0.00    +0.000 C 
ATOM     16  C   UNL     1       1.360   4.154  19.159  0.00  0.00    +0.000 C 
ATOM     17  C   UNL     1       1.350   4.150  20.699  0.00  0.00    +0.000 C 
ENDBRANCH   8  16
ENDBRANCH   7   8
ENDBRANCH   1   7
BRANCH   4  18
ATOM     18  C   UNL     1       0.466  10.220  19.666  0.00  0.00    +0.000 C 
BRANCH  18  19
ATOM     19  C   UNL     1      -0.484  10.873  18.711  0.00  0.00    +0.000 A 
ATOM     20  C   UNL     1      -1.530  10.259  17.982  0.00  0.00    +0.000 A 
ATOM     21  C   UNL     1      -2.109  11.279  17.253  0.00  0.00    +0.000 A 
ATOM     22  N   UNL     1      -1.415  12.399  17.570  0.00  0.00    +0.000 N 
ATOM     23  N   UNL     1      -0.421  12.193  18.450  0.00  0.00    +0.000 NA
ATOM     24  H   UNL     1      -1.562  13.341  17.221  0.00  0.00    +0.000 HD
ENDBRANCH  18  19
ENDBRANCH   4  18
TORSDOF 6
ENDMDL
MODEL 7
REMARK VINA RESULT:      -6.7      3.302      7.091
REMARK  Name = 
REMARK  8 active torsions:
REMARK  status: ('A' for Active; 'I' for Inactive)
REMARK    1  A    between atoms: C_1  and  C_2
REMARK    2  A    between atoms: C_2  and  C_3
REMARK    3  A    between atoms: C_2  and  C_4
REMARK    4  A    between atoms: C_4  and  C_5
REMARK    5  A    between atoms: C_4  and  N_16
REMARK    6  A    between atoms: C_5  and  N_6
REMARK    7  A    between atoms: N_9  and  C_10
REMARK    8  A    between atoms: C_10  and  C_11
REMARK                            x       y       z     vdW  Elec       q    Type
REMARK                         _______ _______ _______ _____ _____    ______ ____
ROOT
ATOM      1  N   UNL     1       2.769   7.334  18.801  0.00  0.00    +0.000 N 
ATOM      2  C   UNL     1       1.999   8.443  18.643  0.00  0.00    +0.000 C 
ATOM      3  O   UNL     1       1.988   9.151  17.625  0.00  0.00    +0.000 OA
ATOM      4  N   UNL     1       1.299   8.769  19.771  0.00  0.00    +0.000 N 
ATOM      5  H   UNL     1       2.450   6.627  19.446  0.00  0.00    +0.000 HD
ATOM      6  H   UNL     1       1.173   8.088  20.497  0.00  0.00    +0.000 HD
ENDROOT
BRANCH   1   7
ATOM      7  C   UNL     1       3.567   6.849  17.676  0.00  0.00    +0.000 C 
BRANCH   7   8
ATOM      8  C   UNL     1       4.172   5.439  17.953  0.00  0.00    +0.000 C 
BRANCH   8   9
ATOM      9  N   UNL     1       3.128   4.547  18.533  0.00  0.00    +0.000 NA
ATOM     10  C   UNL     1       3.455   3.856  19.781  0.00  0.00    +0.000 C 
ATOM     11  C   UNL     1       4.180   2.523  19.568  0.00  0.00    +0.000 C 
ATOM     12  O   UNL     1       3.464   1.633  18.705  0.00  0.00    +0.000 OA
ATOM     13  C   UNL     1       2.968   2.220  17.498  0.00  0.00    +0.000 C 
ATOM     14  C   UNL     1       2.381   3.627  17.667  0.00  0.00    +0.000 C 
ENDBRANCH   8   9
BRANCH   8  16
ATOM     15  C   UNL     1       5.244   5.860  15.573  0.00  0.00    +0.000 C 
ATOM     16  C   UNL     1       5.105   4.935  16.780  0.00  0.00    +0.000 C 
ATOM     17  C   UNL     1       6.540   4.601  17.229  0.00  0.00    +0.000 C 
ENDBRANCH   8  16
ENDBRANCH   7   8
ENDBRANCH   1   7
BRANCH   4  18
ATOM     18  C   UNL     1       0.428   9.939  19.823  0.00  0.00    +0.000 C 
BRANCH  18  19
ATOM     19  C   UNL     1      -0.160  10.090  21.192  0.00  0.00    +0.000 A 
ATOM     20  C   UNL     1      -0.692  11.264  21.776  0.00  0.00    +0.000 A 
ATOM     21  C   UNL     1      -1.104  10.884  23.038  0.00  0.00    +0.000 A 
ATOM     22  N   UNL     1      -0.814   9.564  23.139  0.00  0.00    +0.000 N 
ATOM     23  N   UNL     1      -0.239   9.047  22.040  0.00  0.00    +0.000 NA
ATOM     24  H   UNL     1      -0.978   8.950  23.931  0.00  0.00    +0.000 HD
ENDBRANCH  18  19
ENDBRANCH   4  18
TORSDOF 6
ENDMDL
MODEL 8
REMARK VINA RESULT:      -6.7      3.833      6.765
REMARK  Name = 
REMARK  8 active torsions:
REMARK  status: ('A' for Active; 'I' for Inactive)
REMARK    1  A    between atoms: C_1  and  C_2
REMARK    2  A    between atoms: C_2  and  C_3
REMARK    3  A    between atoms: C_2  and  C_4
REMARK    4  A    between atoms: C_4  and  C_5
REMARK    5  A    between atoms: C_4  and  N_16
REMARK    6  A    between atoms: C_5  and  N_6
REMARK    7  A    between atoms: N_9  and  C_10
REMARK    8  A    between atoms: C_10  and  C_11
REMARK                            x       y       z     vdW  Elec       q    Type
REMARK                         _______ _______ _______ _____ _____    ______ ____
ROOT
ATOM      1  N   UNL     1       2.017   7.792  18.953  0.00  0.00    +0.000 N 
ATOM      2  C   UNL     1       1.769   9.033  18.458  0.00  0.00    +0.000 C 
ATOM      3  O   UNL     1       2.324   9.513  17.458  0.00  0.00    +0.000 OA
ATOM      4  N   UNL     1       0.909   9.756  19.238  0.00  0.00    +0.000 N 
ATOM      5  H   UNL     1       1.287   7.345  19.488  0.00  0.00    +0.000 HD
ATOM      6  H   UNL     1       0.335   9.289  19.915  0.00  0.00    +0.000 HD
ENDROOT
BRANCH   1   7
ATOM      7  C   UNL     1       2.907   6.892  18.222  0.00  0.00    +0.000 C 
BRANCH   7   8
ATOM      8  C   UNL     1       3.170   5.568  19.002  0.00  0.00    +0.000 C 
BRANCH   8   9
ATOM      9  N   UNL     1       1.874   4.917  19.344  0.00  0.00    +0.000 NA
ATOM     10  C   UNL     1       1.555   4.760  20.764  0.00  0.00    +0.000 C 
ATOM     11  C   UNL     1       2.124   3.477  21.378  0.00  0.00    +0.000 C 
ATOM     12  O   UNL     1       1.727   2.298  20.668  0.00  0.00    +0.000 OA
ATOM     13  C   UNL     1       1.862   2.367  19.245  0.00  0.00    +0.000 C 
ATOM     14  C   UNL     1       1.445   3.708  18.629  0.00  0.00    +0.000 C 
ENDBRANCH   8   9
BRANCH   8  16
ATOM     15  C   UNL     1       4.653   4.937  16.906  0.00  0.00    +0.000 C 
ATOM     16  C   UNL     1       4.360   4.727  18.391  0.00  0.00    +0.000 C 
ATOM     17  C   UNL     1       5.701   4.928  19.122  0.00  0.00    +0.000 C 
ENDBRANCH   8  16
ENDBRANCH   7   8
ENDBRANCH   1   7
BRANCH   4  18
ATOM     18  C   UNL     1       0.529  11.123  18.898  0.00  0.00    +0.000 C 
BRANCH  18  19
ATOM     19  C   UNL     1      -0.877  11.158  18.381  0.00  0.00    +0.000 A 
ATOM     20  C   UNL     1      -1.775  10.072  18.254  0.00  0.00    +0.000 A 
ATOM     21  C   UNL     1      -2.932  10.619  17.737  0.00  0.00    +0.000 A 
ATOM     22  N   UNL     1      -2.682  11.942  17.591  0.00  0.00    +0.000 N 
ATOM     23  N   UNL     1      -1.445  12.307  17.971  0.00  0.00    +0.000 NA
ATOM     24  H   UNL     1      -3.308  12.658  17.236  0.00  0.00    +0.000 HD
ENDBRANCH  18  19
ENDBRANCH   4  18
TORSDOF 6
ENDMDL
MODEL 9
REMARK VINA RESULT:      -6.7      3.851      7.454
REMARK  Name = 
REMARK  8 active torsions:
REMARK  status: ('A' for Active; 'I' for Inactive)
REMARK    1  A    between atoms: C_1  and  C_2
REMARK    2  A    between atoms: C_2  and  C_3
REMARK    3  A    between atoms: C_2  and  C_4
REMARK    4  A    between atoms: C_4  and  C_5
REMARK    5  A    between atoms: C_4  and  N_16
REMARK    6  A    between atoms: C_5  and  N_6
REMARK    7  A    between atoms: N_9  and  C_10
REMARK    8  A    between atoms: C_10  and  C_11
REMARK                            x       y       z     vdW  Elec       q    Type
REMARK                         _______ _______ _______ _____ _____    ______ ____
ROOT
ATOM      1  N   UNL     1       2.774   7.636  18.209  0.00  0.00    +0.000 N 
ATOM      2  C   UNL     1       1.984   8.180  19.170  0.00  0.00    +0.000 C 
ATOM      3  O   UNL     1       1.824   7.700  20.302  0.00  0.00    +0.000 OA
ATOM      4  N   UNL     1       1.289   9.273  18.732  0.00  0.00    +0.000 N 
ATOM      5  H   UNL     1       3.151   8.252  17.504  0.00  0.00    +0.000 HD
ATOM      6  H   UNL     1       1.577   9.749  17.897  0.00  0.00    +0.000 HD
ENDROOT
BRANCH   1   7
ATOM      7  C   UNL     1       3.594   6.468  18.529  0.00  0.00    +0.000 C 
BRANCH   7   8
ATOM      8  C   UNL     1       3.938   5.629  17.261  0.00  0.00    +0.000 C 
BRANCH   8   9
ATOM      9  N   UNL     1       5.182   6.153  16.631  0.00  0.00    +0.000 NA
ATOM     10  C   UNL     1       5.662   5.473  15.427  0.00  0.00    +0.000 C 
ATOM     11  C   UNL     1       6.567   4.273  15.725  0.00  0.00    +0.000 C 
ATOM     12  O   UNL     1       7.682   4.610  16.557  0.00  0.00    +0.000 OA
ATOM     13  C   UNL     1       7.367   5.397  17.711  0.00  0.00    +0.000 C 
ATOM     14  C   UNL     1       6.338   6.507  17.465  0.00  0.00    +0.000 C 
ENDBRANCH   8   9
BRANCH   8  16
ATOM     15  C   UNL     1       4.375   3.479  18.737  0.00  0.00    +0.000 C 
ATOM     16  C   UNL     1       3.737   4.077  17.485  0.00  0.00    +0.000 C 
ATOM     17  C   UNL     1       2.260   3.640  17.509  0.00  0.00    +0.000 C 
ENDBRANCH   8  16
ENDBRANCH   7   8
ENDBRANCH   1   7
BRANCH   4  18
ATOM     18  C   UNL     1       0.364   9.994  19.601  0.00  0.00    +0.000 C 
BRANCH  18  19
ATOM     19  C   UNL     1      -0.127  11.236  18.922  0.00  0.00    +0.000 A 
ATOM     20  C   UNL     1       0.383  12.549  19.055  0.00  0.00    +0.000 A 
ATOM     21  C   UNL     1      -0.404  13.327  18.230  0.00  0.00    +0.000 A 
ATOM     22  N   UNL     1      -1.302  12.480  17.670  0.00  0.00    +0.000 N 
ATOM     23  N   UNL     1      -1.166  11.203  18.066  0.00  0.00    +0.000 NA
ATOM     24  H   UNL     1      -2.039  12.703  17.008  0.00  0.00    +0.000 HD
ENDBRANCH  18  19
ENDBRANCH   4  18
TORSDOF 6
ENDMDL
