MODEL 1
REMARK VINA RESULT:      -9.4      0.000      0.000
REMARK  Name = 
REMARK  5 active torsions:
REMARK  status: ('A' for Active; 'I' for Inactive)
REMARK    1  A    between atoms: C_4  and  N_5
REMARK    2  A    between atoms: N_5  and  C_6
REMARK    3  A    between atoms: C_6  and  C_7
REMARK    4  A    between atoms: C_10  and  C_11
REMARK    5  A    between atoms: C_14  and  C_15
REMARK                            x       y       z     vdW  Elec       q    Type
REMARK                         _______ _______ _______ _____ _____    ______ ____
ROOT
ATOM      1  C   UNL     1       1.007  10.457  19.346  0.00  0.00    +0.000 A 
ATOM      2  C   UNL     1       0.817   9.804  20.572  0.00  0.00    +0.000 A 
ATOM      3  C   UNL     1       1.246   8.484  20.747  0.00  0.00    +0.000 A 
ATOM      4  C   UNL     1       1.873   7.797  19.701  0.00  0.00    +0.000 A 
ATOM      5  C   UNL     1       2.082   8.452  18.482  0.00  0.00    +0.000 A 
ATOM      6  C   UNL     1       1.659   9.773  18.309  0.00  0.00    +0.000 A 
ENDROOT
BRANCH   4   7
ATOM      7  C   UNL     1       2.240   6.382  19.860  0.00  0.00    +0.000 A 
ATOM      8  C   UNL     1       3.147   5.876  18.998  0.00  0.00    +0.000 A 
ATOM      9  N   UNL     1       3.540   4.555  19.138  0.00  0.00    +0.000 N 
ATOM     10  C   UNL     1       4.455   3.754  18.470  0.00  0.00    +0.000 A 
ATOM     11  C   UNL     1       4.295   2.511  19.076  0.00  0.00    +0.000 A 
ATOM     12  N   UNL     1       3.375   2.539  20.096  0.00  0.00    +0.000 NA
ATOM     13  C   UNL     1       2.958   3.782  20.110  0.00  0.00    +0.000 A 
ATOM     14  C   UNL     1       1.990   4.388  20.984  0.00  0.00    +0.000 A 
ATOM     15  N   UNL     1       1.647   5.643  20.873  0.00  0.00    +0.000 NA
BRANCH  10  16
ATOM     16  C   UNL     1       5.340   4.165  17.378  0.00  0.00    +0.000 A 
ATOM     17  C   UNL     1       4.902   4.145  16.049  0.00  0.00    +0.000 A 
ATOM     18  C   UNL     1       5.752   4.560  15.024  0.00  0.00    +0.000 A 
ATOM     19  C   UNL     1       7.026   4.990  15.353  0.00  0.00    +0.000 A 
ATOM     20  N   UNL     1       7.502   4.998  16.614  0.00  0.00    +0.000 NA
ATOM     21  C   UNL     1       6.659   4.569  17.584  0.00  0.00    +0.000 A 
ENDBRANCH  10  16
ENDBRANCH   4   7
BRANCH   1  22
ATOM     22  C   UNL     1       0.536  11.882  19.140  0.00  0.00    +0.000 C 
BRANCH  22  23
ATOM     23  N   UNL     1      -0.274  11.958  17.931  0.00  0.00    +0.000 N 
ATOM     24  H   UNL     1      -0.276  12.897  17.541  0.00  0.00    +0.000 HD
BRANCH  23  28
ATOM     25  C   UNL     1      -4.218  10.439  17.890  0.00  0.00    +0.000 A 
ATOM     26  C   UNL     1      -3.907  11.599  18.590  0.00  0.00    +0.000 A 
ATOM     27  C   UNL     1      -2.592  12.079  18.601  0.00  0.00    +0.000 A 
ATOM     28  C   UNL     1      -1.557  11.394  17.946  0.00  0.00    +0.000 A 
ATOM     29  C   UNL     1      -1.901  10.246  17.220  0.00  0.00    +0.000 A 
ATOM     30  C   UNL     1      -3.216   9.767  17.197  0.00  0.00    +0.000 A 
ENDBRANCH  23  28
ENDBRANCH  22  23
ENDBRANCH   1  22
TORSDOF 5
ENDMDL
MODEL 2
REMARK VINA RESULT:      -9.1      0.191      1.277
REMARK  Name = 
REMARK  5 active torsions:
REMARK  status: ('A' for Active; 'I' for Inactive)
REMARK    1  A    between atoms: C_4  and  N_5
REMARK    2  A    between atoms: N_5  and  C_6
REMARK    3  A    between atoms: C_6  and  C_7
REMARK    4  A    between atoms: C_10  and  C_11
REMARK    5  A    between atoms: C_14  and  C_15
REMARK                            x       y       z     vdW  Elec       q    Type
REMARK                         _______ _______ _______ _____ _____    ______ ____
ROOT
ATOM      1  C   UNL     1       1.029  10.323  19.426  0.00  0.00    +0.000 A 
ATOM      2  C   UNL     1       1.625   9.616  18.372  0.00  0.00    +0.000 A 
ATOM      3  C   UNL     1       1.995   8.276  18.534  0.00  0.00    +0.000 A 
ATOM      4  C   UNL     1       1.771   7.621  19.751  0.00  0.00    +0.000 A 
ATOM      5  C   UNL     1       1.159   8.317  20.799  0.00  0.00    +0.000 A 
ATOM      6  C   UNL     1       0.785   9.655  20.635  0.00  0.00    +0.000 A 
ENDROOT
BRANCH   4   7
ATOM      7  C   UNL     1       2.242   6.242  19.946  0.00  0.00    +0.000 A 
ATOM      8  C   UNL     1       3.154   5.768  19.071  0.00  0.00    +0.000 A 
ATOM      9  N   UNL     1       3.644   4.484  19.243  0.00  0.00    +0.000 N 
ATOM     10  C   UNL     1       4.590   3.724  18.573  0.00  0.00    +0.000 A 
ATOM     11  C   UNL     1       4.539   2.497  19.227  0.00  0.00    +0.000 A 
ATOM     12  N   UNL     1       3.654   2.500  20.278  0.00  0.00    +0.000 NA
ATOM     13  C   UNL     1       3.151   3.710  20.263  0.00  0.00    +0.000 A 
ATOM     14  C   UNL     1       2.172   4.279  21.149  0.00  0.00    +0.000 A 
ATOM     15  N   UNL     1       1.737   5.503  21.006  0.00  0.00    +0.000 NA
BRANCH  10  16
ATOM     16  C   UNL     1       5.407   4.154  17.435  0.00  0.00    +0.000 A 
ATOM     17  C   UNL     1       4.876   4.193  16.141  0.00  0.00    +0.000 A 
ATOM     18  C   UNL     1       5.662   4.625  15.073  0.00  0.00    +0.000 A 
ATOM     19  C   UNL     1       6.968   5.011  15.326  0.00  0.00    +0.000 A 
ATOM     20  N   UNL     1       7.531   4.962  16.549  0.00  0.00    +0.000 NA
ATOM     21  C   UNL     1       6.748   4.518  17.561  0.00  0.00    +0.000 A 
ENDBRANCH  10  16
ENDBRANCH   4   7
BRANCH   1  22
ATOM     22  C   UNL     1       0.637  11.777  19.267  0.00  0.00    +0.000 C 
BRANCH  22  23
ATOM     23  N   UNL     1      -0.100  11.951  18.022  0.00  0.00    +0.000 N 
ATOM     24  H   UNL     1       0.029  12.883  17.638  0.00  0.00    +0.000 HD
BRANCH  23  28
ATOM     25  C   UNL     1      -4.081  10.531  17.950  0.00  0.00    +0.000 A 
ATOM     26  C   UNL     1      -3.091   9.920  17.189  0.00  0.00    +0.000 A 
ATOM     27  C   UNL     1      -1.781  10.414  17.217  0.00  0.00    +0.000 A 
ATOM     28  C   UNL     1      -1.441  11.544  17.975  0.00  0.00    +0.000 A 
ATOM     29  C   UNL     1      -2.447  12.122  18.759  0.00  0.00    +0.000 A 
ATOM     30  C   UNL     1      -3.757  11.627  18.743  0.00  0.00    +0.000 A 
ENDBRANCH  23  28
ENDBRANCH  22  23
ENDBRANCH   1  22
TORSDOF 5
ENDMDL
MODEL 3
REMARK VINA RESULT:      -8.9      0.537      1.262
REMARK  Name = 
REMARK  5 active torsions:
REMARK  status: ('A' for Active; 'I' for Inactive)
REMARK    1  A    between atoms: C_4  and  N_5
REMARK    2  A    between atoms: N_5  and  C_6
REMARK    3  A    between atoms: C_6  and  C_7
REMARK    4  A    between atoms: C_10  and  C_11
REMARK    5  A    between atoms: C_14  and  C_15
REMARK                            x       y       z     vdW  Elec       q    Type
REMARK                         _______ _______ _______ _____ _____    ______ ____
ROOT
ATOM      1  C   UNL     1       0.923  10.380  19.408  0.00  0.00    +0.000 A 
ATOM      2  C   UNL     1       0.761   9.737  20.644  0.00  0.00    +0.000 A 
ATOM      3  C   UNL     1       1.207   8.424  20.826  0.00  0.00    +0.000 A 
ATOM      4  C   UNL     1       1.826   7.733  19.777  0.00  0.00    +0.000 A 
ATOM      5  C   UNL     1       2.008   8.377  18.548  0.00  0.00    +0.000 A 
ATOM      6  C   UNL     1       1.567   9.692  18.368  0.00  0.00    +0.000 A 
ENDROOT
BRANCH   4   7
ATOM      7  C   UNL     1       2.212   6.324  19.945  0.00  0.00    +0.000 A 
ATOM      8  C   UNL     1       3.111   5.820  19.074  0.00  0.00    +0.000 A 
ATOM      9  N   UNL     1       3.521   4.504  19.221  0.00  0.00    +0.000 N 
ATOM     10  C   UNL     1       4.435   3.707  18.547  0.00  0.00    +0.000 A 
ATOM     11  C   UNL     1       4.298   2.469  19.168  0.00  0.00    +0.000 A 
ATOM     12  N   UNL     1       3.395   2.498  20.202  0.00  0.00    +0.000 NA
ATOM     13  C   UNL     1       2.964   3.736  20.211  0.00  0.00    +0.000 A 
ATOM     14  C   UNL     1       2.003   4.339  21.093  0.00  0.00    +0.000 A 
ATOM     15  N   UNL     1       1.643   5.590  20.975  0.00  0.00    +0.000 NA
BRANCH  10  16
ATOM     16  C   UNL     1       5.297   4.117  17.436  0.00  0.00    +0.000 A 
ATOM     17  C   UNL     1       6.585   4.610  17.668  0.00  0.00    +0.000 A 
ATOM     18  C   UNL     1       7.400   4.975  16.596  0.00  0.00    +0.000 A 
ATOM     19  C   UNL     1       6.904   4.836  15.311  0.00  0.00    +0.000 A 
ATOM     20  N   UNL     1       5.660   4.394  15.040  0.00  0.00    +0.000 NA
ATOM     21  C   UNL     1       4.887   4.068  16.104  0.00  0.00    +0.000 A 
ENDBRANCH  10  16
ENDBRANCH   4   7
BRANCH   1  22
ATOM     22  C   UNL     1       0.433  11.796  19.195  0.00  0.00    +0.000 C 
BRANCH  22  23
ATOM     23  N   UNL     1      -0.277  11.881  17.925  0.00  0.00    +0.000 N 
ATOM     24  H   UNL     1      -0.116  12.774  17.466  0.00  0.00    +0.000 HD
BRANCH  23  28
ATOM     25  C   UNL     1      -4.289  10.554  17.870  0.00  0.00    +0.000 A 
ATOM     26  C   UNL     1      -3.322   9.937  17.086  0.00  0.00    +0.000 A 
ATOM     27  C   UNL     1      -2.002  10.399  17.108  0.00  0.00    +0.000 A 
ATOM     28  C   UNL     1      -1.627  11.507  17.885  0.00  0.00    +0.000 A 
ATOM     29  C   UNL     1      -2.611  12.092  18.692  0.00  0.00    +0.000 A 
ATOM     30  C   UNL     1      -3.932  11.627  18.681  0.00  0.00    +0.000 A 
ENDBRANCH  23  28
ENDBRANCH  22  23
ENDBRANCH   1  22
TORSDOF 5
ENDMDL
MODEL 4
REMARK VINA RESULT:      -8.8      1.971      3.284
REMARK  Name = 
REMARK  5 active torsions:
REMARK  status: ('A' for Active; 'I' for Inactive)
REMARK    1  A    between atoms: C_4  and  N_5
REMARK    2  A    between atoms: N_5  and  C_6
REMARK    3  A    between atoms: C_6  and  C_7
REMARK    4  A    between atoms: C_10  and  C_11
REMARK    5  A    between atoms: C_14  and  C_15
REMARK                            x       y       z     vdW  Elec       q    Type
REMARK                         _______ _______ _______ _____ _____    ______ ____
ROOT
ATOM      1  C   UNL     1       1.059  10.567  19.056  0.00  0.00    +0.000 A 
ATOM      2  C   UNL     1       0.847   9.961  20.302  0.00  0.00    +0.000 A 
ATOM      3  C   UNL     1       1.271   8.648  20.535  0.00  0.00    +0.000 A 
ATOM      4  C   UNL     1       1.916   7.922  19.528  0.00  0.00    +0.000 A 
ATOM      5  C   UNL     1       2.147   8.529  18.288  0.00  0.00    +0.000 A 
ATOM      6  C   UNL     1       1.728   9.843  18.057  0.00  0.00    +0.000 A 
ENDROOT
BRANCH   4   7
ATOM      7  C   UNL     1       2.279   6.514  19.747  0.00  0.00    +0.000 A 
ATOM      8  C   UNL     1       3.180   5.967  18.903  0.00  0.00    +0.000 A 
ATOM      9  N   UNL     1       3.569   4.652  19.099  0.00  0.00    +0.000 N 
ATOM     10  C   UNL     1       4.477   3.819  18.464  0.00  0.00    +0.000 A 
ATOM     11  C   UNL     1       4.316   2.604  19.124  0.00  0.00    +0.000 A 
ATOM     12  N   UNL     1       3.402   2.681  20.147  0.00  0.00    +0.000 NA
ATOM     13  C   UNL     1       2.990   3.925  20.109  0.00  0.00    +0.000 A 
ATOM     14  C   UNL     1       2.028   4.572  20.960  0.00  0.00    +0.000 A 
ATOM     15  N   UNL     1       1.689   5.823  20.795  0.00  0.00    +0.000 NA
BRANCH  10  16
ATOM     16  C   UNL     1       5.357   4.178  17.349  0.00  0.00    +0.000 A 
ATOM     17  C   UNL     1       4.893   4.158  16.029  0.00  0.00    +0.000 A 
ATOM     18  C   UNL     1       5.740   4.523  14.982  0.00  0.00    +0.000 A 
ATOM     19  C   UNL     1       7.037   4.903  15.282  0.00  0.00    +0.000 A 
ATOM     20  N   UNL     1       7.537   4.909  16.533  0.00  0.00    +0.000 NA
ATOM     21  C   UNL     1       6.696   4.528  17.525  0.00  0.00    +0.000 A 
ENDBRANCH  10  16
ENDBRANCH   4   7
BRANCH   1  22
ATOM     22  C   UNL     1       0.592  11.982  18.787  0.00  0.00    +0.000 C 
BRANCH  22  23
ATOM     23  N   UNL     1       1.414  12.919  19.544  0.00  0.00    +0.000 N 
ATOM     24  H   UNL     1       0.988  13.152  20.437  0.00  0.00    +0.000 HD
BRANCH  23  28
ATOM     25  C   UNL     1       2.920  16.443  17.761  0.00  0.00    +0.000 A 
ATOM     26  C   UNL     1       1.713  16.451  18.450  0.00  0.00    +0.000 A 
ATOM     27  C   UNL     1       1.225  15.270  19.022  0.00  0.00    +0.000 A 
ATOM     28  C   UNL     1       1.912  14.054  18.889  0.00  0.00    +0.000 A 
ATOM     29  C   UNL     1       3.142  14.077  18.220  0.00  0.00    +0.000 A 
ATOM     30  C   UNL     1       3.641  15.257  17.654  0.00  0.00    +0.000 A 
ENDBRANCH  23  28
ENDBRANCH  22  23
ENDBRANCH   1  22
TORSDOF 5
ENDMDL
MODEL 5
REMARK VINA RESULT:      -8.7      2.076      3.611
REMARK  Name = 
REMARK  5 active torsions:
REMARK  status: ('A' for Active; 'I' for Inactive)
REMARK    1  A    between atoms: C_4  and  N_5
REMARK    2  A    between atoms: N_5  and  C_6
REMARK    3  A    between atoms: C_6  and  C_7
REMARK    4  A    between atoms: C_10  and  C_11
REMARK    5  A    between atoms: C_14  and  C_15
REMARK                            x       y       z     vdW  Elec       q    Type
REMARK                         _______ _______ _______ _____ _____    ______ ____
ROOT
ATOM      1  C   UNL     1       1.228  10.656  18.927  0.00  0.00    +0.000 A 
ATOM      2  C   UNL     1       1.860   9.887  17.940  0.00  0.00    +0.000 A 
ATOM      3  C   UNL     1       2.174   8.544  18.177  0.00  0.00    +0.000 A 
ATOM      4  C   UNL     1       1.858   7.948  19.404  0.00  0.00    +0.000 A 
ATOM      5  C   UNL     1       1.210   8.707  20.385  0.00  0.00    +0.000 A 
ATOM      6  C   UNL     1       0.891  10.047  20.145  0.00  0.00    +0.000 A 
ENDROOT
BRANCH   4   7
ATOM      7  C   UNL     1       2.270   6.565  19.682  0.00  0.00    +0.000 A 
ATOM      8  C   UNL     1       3.174   6.008  18.850  0.00  0.00    +0.000 A 
ATOM      9  N   UNL     1       3.610   4.717  19.100  0.00  0.00    +0.000 N 
ATOM     10  C   UNL     1       4.535   3.884  18.488  0.00  0.00    +0.000 A 
ATOM     11  C   UNL     1       4.424   2.698  19.208  0.00  0.00    +0.000 A 
ATOM     12  N   UNL     1       3.525   2.794  20.242  0.00  0.00    +0.000 NA
ATOM     13  C   UNL     1       3.071   4.021  20.153  0.00  0.00    +0.000 A 
ATOM     14  C   UNL     1       2.103   4.676  20.989  0.00  0.00    +0.000 A 
ATOM     15  N   UNL     1       1.720   5.906  20.772  0.00  0.00    +0.000 NA
BRANCH  10  16
ATOM     16  C   UNL     1       5.384   4.217  17.342  0.00  0.00    +0.000 A 
ATOM     17  C   UNL     1       4.884   4.170  16.036  0.00  0.00    +0.000 A 
ATOM     18  C   UNL     1       5.703   4.511  14.959  0.00  0.00    +0.000 A 
ATOM     19  C   UNL     1       7.007   4.896  15.215  0.00  0.00    +0.000 A 
ATOM     20  N   UNL     1       7.541   4.929  16.452  0.00  0.00    +0.000 NA
ATOM     21  C   UNL     1       6.727   4.571  17.474  0.00  0.00    +0.000 A 
ENDBRANCH  10  16
ENDBRANCH   4   7
BRANCH   1  22
ATOM     22  C   UNL     1       0.895  12.114  18.687  0.00  0.00    +0.000 C 
BRANCH  22  23
ATOM     23  N   UNL     1       1.759  12.954  19.506  0.00  0.00    +0.000 N 
ATOM     24  H   UNL     1       1.384  13.074  20.443  0.00  0.00    +0.000 HD
BRANCH  23  28
ATOM     25  C   UNL     1       3.160  16.504  17.690  0.00  0.00    +0.000 A 
ATOM     26  C   UNL     1       3.879  15.319  17.590  0.00  0.00    +0.000 A 
ATOM     27  C   UNL     1       3.405  14.157  18.210  0.00  0.00    +0.000 A 
ATOM     28  C   UNL     1       2.224  14.162  18.969  0.00  0.00    +0.000 A 
ATOM     29  C   UNL     1       1.500  15.359  19.027  0.00  0.00    +0.000 A 
ATOM     30  C   UNL     1       1.964  16.522  18.402  0.00  0.00    +0.000 A 
ENDBRANCH  23  28
ENDBRANCH  22  23
ENDBRANCH   1  22
TORSDOF 5
ENDMDL
MODEL 6
REMARK VINA RESULT:      -8.6      2.036      3.726
REMARK  Name = 
REMARK  5 active torsions:
REMARK  status: ('A' for Active; 'I' for Inactive)
REMARK    1  A    between atoms: C_4  and  N_5
REMARK    2  A    between atoms: N_5  and  C_6
REMARK    3  A    between atoms: C_6  and  C_7
REMARK    4  A    between atoms: C_10  and  C_11
REMARK    5  A    between atoms: C_14  and  C_15
REMARK                            x       y       z     vdW  Elec       q    Type
REMARK                         _______ _______ _______ _____ _____    ______ ____
ROOT
ATOM      1  C   UNL     1       1.214  10.637  18.942  0.00  0.00    +0.000 A 
ATOM      2  C   UNL     1       1.867   9.881  17.958  0.00  0.00    +0.000 A 
ATOM      3  C   UNL     1       2.185   8.538  18.189  0.00  0.00    +0.000 A 
ATOM      4  C   UNL     1       1.853   7.930  19.406  0.00  0.00    +0.000 A 
ATOM      5  C   UNL     1       1.185   8.676  20.383  0.00  0.00    +0.000 A 
ATOM      6  C   UNL     1       0.862  10.016  20.149  0.00  0.00    +0.000 A 
ENDROOT
BRANCH   4   7
ATOM      7  C   UNL     1       2.270   6.546  19.680  0.00  0.00    +0.000 A 
ATOM      8  C   UNL     1       3.177   5.996  18.846  0.00  0.00    +0.000 A 
ATOM      9  N   UNL     1       3.616   4.705  19.092  0.00  0.00    +0.000 N 
ATOM     10  C   UNL     1       4.545   3.878  18.479  0.00  0.00    +0.000 A 
ATOM     11  C   UNL     1       4.437   2.688  19.193  0.00  0.00    +0.000 A 
ATOM     12  N   UNL     1       3.536   2.777  20.226  0.00  0.00    +0.000 NA
ATOM     13  C   UNL     1       3.078   4.003  20.141  0.00  0.00    +0.000 A 
ATOM     14  C   UNL     1       2.106   4.652  20.978  0.00  0.00    +0.000 A 
ATOM     15  N   UNL     1       1.720   5.881  20.765  0.00  0.00    +0.000 NA
BRANCH  10  16
ATOM     16  C   UNL     1       5.396   4.219  17.336  0.00  0.00    +0.000 A 
ATOM     17  C   UNL     1       4.900   4.170  16.029  0.00  0.00    +0.000 A 
ATOM     18  C   UNL     1       5.719   4.518  14.954  0.00  0.00    +0.000 A 
ATOM     19  C   UNL     1       7.020   4.912  15.215  0.00  0.00    +0.000 A 
ATOM     20  N   UNL     1       7.550   4.946  16.453  0.00  0.00    +0.000 NA
ATOM     21  C   UNL     1       6.736   4.581  17.472  0.00  0.00    +0.000 A 
ENDBRANCH  10  16
ENDBRANCH   4   7
BRANCH   1  22
ATOM     22  C   UNL     1       0.876  12.095  18.708  0.00  0.00    +0.000 C 
BRANCH  22  23
ATOM     23  N   UNL     1       1.947  12.729  17.949  0.00  0.00    +0.000 N 
ATOM     24  H   UNL     1       2.553  12.041  17.511  0.00  0.00    +0.000 HD
BRANCH  23  28
ATOM     25  C   UNL     1       4.279  15.688  19.866  0.00  0.00    +0.000 A 
ATOM     26  C   UNL     1       3.624  14.707  20.602  0.00  0.00    +0.000 A 
ATOM     27  C   UNL     1       2.846  13.744  19.949  0.00  0.00    +0.000 A 
ATOM     28  C   UNL     1       2.678  13.760  18.556  0.00  0.00    +0.000 A 
ATOM     29  C   UNL     1       3.374  14.737  17.833  0.00  0.00    +0.000 A 
ATOM     30  C   UNL     1       4.162  15.697  18.479  0.00  0.00    +0.000 A 
ENDBRANCH  23  28
ENDBRANCH  22  23
ENDBRANCH   1  22
TORSDOF 5
ENDMDL
MODEL 7
REMARK VINA RESULT:      -8.6      0.805      1.089
REMARK  Name = 
REMARK  5 active torsions:
REMARK  status: ('A' for Active; 'I' for Inactive)
REMARK    1  A    between atoms: C_4  and  N_5
REMARK    2  A    between atoms: N_5  and  C_6
REMARK    3  A    between atoms: C_6  and  C_7
REMARK    4  A    between atoms: C_10  and  C_11
REMARK    5  A    between atoms: C_14  and  C_15
REMARK                            x       y       z     vdW  Elec       q    Type
REMARK                         _______ _______ _______ _____ _____    ______ ____
ROOT
ATOM      1  C   UNL     1       0.753  10.201  19.307  0.00  0.00    +0.000 A 
ATOM      2  C   UNL     1       0.587   9.578  20.551  0.00  0.00    +0.000 A 
ATOM      3  C   UNL     1       1.097   8.295  20.778  0.00  0.00    +0.000 A 
ATOM      4  C   UNL     1       1.785   7.616  19.765  0.00  0.00    +0.000 A 
ATOM      5  C   UNL     1       1.970   8.243  18.527  0.00  0.00    +0.000 A 
ATOM      6  C   UNL     1       1.465   9.527  18.303  0.00  0.00    +0.000 A 
ENDROOT
BRANCH   4   7
ATOM      7  C   UNL     1       2.241   6.234  19.977  0.00  0.00    +0.000 A 
ATOM      8  C   UNL     1       3.143   5.738  19.104  0.00  0.00    +0.000 A 
ATOM      9  N   UNL     1       3.618   4.450  19.292  0.00  0.00    +0.000 N 
ATOM     10  C   UNL     1       4.553   3.670  18.628  0.00  0.00    +0.000 A 
ATOM     11  C   UNL     1       4.489   2.453  19.298  0.00  0.00    +0.000 A 
ATOM     12  N   UNL     1       3.609   2.480  20.352  0.00  0.00    +0.000 NA
ATOM     13  C   UNL     1       3.120   3.696  20.324  0.00  0.00    +0.000 A 
ATOM     14  C   UNL     1       2.151   4.289  21.205  0.00  0.00    +0.000 A 
ATOM     15  N   UNL     1       1.731   5.516  21.047  0.00  0.00    +0.000 NA
BRANCH  10  16
ATOM     16  C   UNL     1       5.371   4.075  17.481  0.00  0.00    +0.000 A 
ATOM     17  C   UNL     1       6.665   4.575  17.659  0.00  0.00    +0.000 A 
ATOM     18  C   UNL     1       7.436   4.936  16.554  0.00  0.00    +0.000 A 
ATOM     19  C   UNL     1       6.892   4.786  15.290  0.00  0.00    +0.000 A 
ATOM     20  N   UNL     1       5.640   4.338  15.071  0.00  0.00    +0.000 NA
ATOM     21  C   UNL     1       4.909   4.016  16.166  0.00  0.00    +0.000 A 
ENDBRANCH  10  16
ENDBRANCH   4   7
BRANCH   1  22
ATOM     22  C   UNL     1       0.194  11.584  19.046  0.00  0.00    +0.000 C 
BRANCH  22  23
ATOM     23  N   UNL     1      -1.217  11.617  19.409  0.00  0.00    +0.000 N 
ATOM     24  H   UNL     1      -1.391  11.114  20.276  0.00  0.00    +0.000 HD
BRANCH  23  28
ATOM     25  C   UNL     1      -4.127  10.914  16.425  0.00  0.00    +0.000 A 
ATOM     26  C   UNL     1      -4.457  11.574  17.602  0.00  0.00    +0.000 A 
ATOM     27  C   UNL     1      -3.481  11.785  18.584  0.00  0.00    +0.000 A 
ATOM     28  C   UNL     1      -2.169  11.313  18.426  0.00  0.00    +0.000 A 
ATOM     29  C   UNL     1      -1.852  10.681  17.217  0.00  0.00    +0.000 A 
ATOM     30  C   UNL     1      -2.821  10.475  16.228  0.00  0.00    +0.000 A 
ENDBRANCH  23  28
ENDBRANCH  22  23
ENDBRANCH   1  22
TORSDOF 5
ENDMDL
MODEL 8
REMARK VINA RESULT:      -8.6      1.529      2.022
REMARK  Name = 
REMARK  5 active torsions:
REMARK  status: ('A' for Active; 'I' for Inactive)
REMARK    1  A    between atoms: C_4  and  N_5
REMARK    2  A    between atoms: N_5  and  C_6
REMARK    3  A    between atoms: C_6  and  C_7
REMARK    4  A    between atoms: C_10  and  C_11
REMARK    5  A    between atoms: C_14  and  C_15
REMARK                            x       y       z     vdW  Elec       q    Type
REMARK                         _______ _______ _______ _____ _____    ______ ____
ROOT
ATOM      1  C   UNL     1       0.940  10.360  19.217  0.00  0.00    +0.000 A 
ATOM      2  C   UNL     1       0.773   9.726  20.457  0.00  0.00    +0.000 A 
ATOM      3  C   UNL     1       1.246   8.425  20.659  0.00  0.00    +0.000 A 
ATOM      4  C   UNL     1       1.896   7.738  19.627  0.00  0.00    +0.000 A 
ATOM      5  C   UNL     1       2.082   8.374  18.394  0.00  0.00    +0.000 A 
ATOM      6  C   UNL     1       1.615   9.676  18.194  0.00  0.00    +0.000 A 
ENDROOT
BRANCH   4   7
ATOM      7  C   UNL     1       2.310   6.340  19.815  0.00  0.00    +0.000 A 
ATOM      8  C   UNL     1       3.209   5.837  18.943  0.00  0.00    +0.000 A 
ATOM      9  N   UNL     1       3.646   4.533  19.108  0.00  0.00    +0.000 N 
ATOM     10  C   UNL     1       4.567   3.741  18.439  0.00  0.00    +0.000 A 
ATOM     11  C   UNL     1       4.461   2.512  19.083  0.00  0.00    +0.000 A 
ATOM     12  N   UNL     1       3.569   2.542  20.127  0.00  0.00    +0.000 NA
ATOM     13  C   UNL     1       3.115   3.772  20.119  0.00  0.00    +0.000 A 
ATOM     14  C   UNL     1       2.152   4.372  21.001  0.00  0.00    +0.000 A 
ATOM     15  N   UNL     1       1.768   5.613  20.865  0.00  0.00    +0.000 NA
BRANCH  10  16
ATOM     16  C   UNL     1       5.409   4.146  17.310  0.00  0.00    +0.000 A 
ATOM     17  C   UNL     1       4.918   4.125  16.001  0.00  0.00    +0.000 A 
ATOM     18  C   UNL     1       5.727   4.534  14.941  0.00  0.00    +0.000 A 
ATOM     19  C   UNL     1       7.015   4.961  15.219  0.00  0.00    +0.000 A 
ATOM     20  N   UNL     1       7.541   4.971  16.459  0.00  0.00    +0.000 NA
ATOM     21  C   UNL     1       6.736   4.547  17.463  0.00  0.00    +0.000 A 
ENDBRANCH  10  16
ENDBRANCH   4   7
BRANCH   1  22
ATOM     22  C   UNL     1       0.422  11.763  18.982  0.00  0.00    +0.000 C 
BRANCH  22  23
ATOM     23  N   UNL     1       0.311  12.463  20.256  0.00  0.00    +0.000 N 
ATOM     24  H   UNL     1       1.040  12.177  20.904  0.00  0.00    +0.000 HD
BRANCH  23  28
ATOM     25  C   UNL     1      -3.410  12.853  22.224  0.00  0.00    +0.000 A 
ATOM     26  C   UNL     1      -2.227  12.748  22.946  0.00  0.00    +0.000 A 
ATOM     27  C   UNL     1      -1.007  12.607  22.276  0.00  0.00    +0.000 A 
ATOM     28  C   UNL     1      -0.945  12.532  20.876  0.00  0.00    +0.000 A 
ATOM     29  C   UNL     1      -2.145  12.673  20.168  0.00  0.00    +0.000 A 
ATOM     30  C   UNL     1      -3.368  12.824  20.833  0.00  0.00    +0.000 A 
ENDBRANCH  23  28
ENDBRANCH  22  23
ENDBRANCH   1  22
TORSDOF 5
ENDMDL
MODEL 9
REMARK VINA RESULT:      -8.5      1.238      1.747
REMARK  Name = 
REMARK  5 active torsions:
REMARK  status: ('A' for Active; 'I' for Inactive)
REMARK    1  A    between atoms: C_4  and  N_5
REMARK    2  A    between atoms: N_5  and  C_6
REMARK    3  A    between atoms: C_6  and  C_7
REMARK    4  A    between atoms: C_10  and  C_11
REMARK    5  A    between atoms: C_14  and  C_15
REMARK                            x       y       z     vdW  Elec       q    Type
REMARK                         _______ _______ _______ _____ _____    ______ ____
ROOT
ATOM      1  C   UNL     1       0.867  10.278  19.496  0.00  0.00    +0.000 A 
ATOM      2  C   UNL     1       0.754   9.621  20.730  0.00  0.00    +0.000 A 
ATOM      3  C   UNL     1       1.238   8.318  20.888  0.00  0.00    +0.000 A 
ATOM      4  C   UNL     1       1.845   7.652  19.816  0.00  0.00    +0.000 A 
ATOM      5  C   UNL     1       1.976   8.311  18.589  0.00  0.00    +0.000 A 
ATOM      6  C   UNL     1       1.498   9.615  18.433  0.00  0.00    +0.000 A 
ENDROOT
BRANCH   4   7
ATOM      7  C   UNL     1       2.270   6.251  19.960  0.00  0.00    +0.000 A 
ATOM      8  C   UNL     1       3.169   5.782  19.071  0.00  0.00    +0.000 A 
ATOM      9  N   UNL     1       3.616   4.476  19.195  0.00  0.00    +0.000 N 
ATOM     10  C   UNL     1       4.541   3.712  18.500  0.00  0.00    +0.000 A 
ATOM     11  C   UNL     1       4.446   2.463  19.106  0.00  0.00    +0.000 A 
ATOM     12  N   UNL     1       3.556   2.455  20.153  0.00  0.00    +0.000 NA
ATOM     13  C   UNL     1       3.093   3.681  20.183  0.00  0.00    +0.000 A 
ATOM     14  C   UNL     1       2.128   4.248  21.086  0.00  0.00    +0.000 A 
ATOM     15  N   UNL     1       1.735   5.489  20.988  0.00  0.00    +0.000 NA
BRANCH  10  16
ATOM     16  C   UNL     1       5.377   4.158  17.382  0.00  0.00    +0.000 A 
ATOM     17  C   UNL     1       4.862   4.239  16.084  0.00  0.00    +0.000 A 
ATOM     18  C   UNL     1       5.667   4.686  15.036  0.00  0.00    +0.000 A 
ATOM     19  C   UNL     1       6.975   5.046  15.314  0.00  0.00    +0.000 A 
ATOM     20  N   UNL     1       7.523   4.957  16.541  0.00  0.00    +0.000 NA
ATOM     21  C   UNL     1       6.722   4.498  17.533  0.00  0.00    +0.000 A 
ENDBRANCH  10  16
ENDBRANCH   4   7
BRANCH   1  22
ATOM     22  C   UNL     1       0.336  11.684  19.309  0.00  0.00    +0.000 C 
BRANCH  22  23
ATOM     23  N   UNL     1      -1.084  11.630  18.983  0.00  0.00    +0.000 N 
ATOM     24  H   UNL     1      -1.270  12.013  18.060  0.00  0.00    +0.000 HD
BRANCH  23  28
ATOM     25  C   UNL     1      -3.996  12.825  21.804  0.00  0.00    +0.000 A 
ATOM     26  C   UNL     1      -4.315  12.703  20.457  0.00  0.00    +0.000 A 
ATOM     27  C   UNL     1      -3.332  12.319  19.537  0.00  0.00    +0.000 A 
ATOM     28  C   UNL     1      -2.008  12.082  19.936  0.00  0.00    +0.000 A 
ATOM     29  C   UNL     1      -1.719  12.179  21.302  0.00  0.00    +0.000 A 
ATOM     30  C   UNL     1      -2.699  12.554  22.229  0.00  0.00    +0.000 A 
ENDBRANCH  23  28
ENDBRANCH  22  23
ENDBRANCH   1  22
TORSDOF 5
ENDMDL
