MODEL 1
REMARK VINA RESULT:      -7.8      0.000      0.000
REMARK  Name = 
REMARK  6 active torsions:
REMARK  status: ('A' for Active; 'I' for Inactive)
REMARK    1  A    between atoms: C_2  and  C_3
REMARK    2  A    between atoms: C_3  and  C_4
REMARK    3  A    between atoms: N_10  and  C_11
REMARK    4  A    between atoms: C_11  and  C_12
REMARK    5  A    between atoms: C_12  and  S_13
REMARK    6  A    between atoms: S_13  and  C_16
REMARK                            x       y       z     vdW  Elec       q    Type
REMARK                         _______ _______ _______ _____ _____    ______ ____
ROOT
ATOM      1  C   UNL     1       4.365   2.541  18.561  0.00  0.00    +0.000 C 
ENDROOT
BRANCH   1   4
ATOM      2  O   UNL     1       6.700   5.034  19.772  0.00  0.00    +0.000 OA
ATOM      3  C   UNL     1       5.803   4.591  19.057  0.00  0.00    +0.000 C 
ATOM      4  N   UNL     1       5.408   3.293  19.248  0.00  0.00    +0.000 N 
ATOM      5  H   UNL     1       5.860   2.863  20.050  0.00  0.00    +0.000 HD
BRANCH   3   6
ATOM      6  C   UNL     1       5.170   5.378  17.919  0.00  0.00    +0.000 C 
BRANCH   6   7
ATOM      7  C   UNL     1       5.766   5.154  16.559  0.00  0.00    +0.000 A 
ATOM      8  C   UNL     1       5.087   4.405  15.591  0.00  0.00    +0.000 A 
ATOM      9  C   UNL     1       5.691   4.157  14.363  0.00  0.00    +0.000 A 
ATOM     10  C   UNL     1       6.963   4.658  14.145  0.00  0.00    +0.000 A 
ATOM     11  N   UNL     1       7.653   5.376  15.056  0.00  0.00    +0.000 NA
ATOM     12  C   UNL     1       7.040   5.611  16.235  0.00  0.00    +0.000 A 
ENDBRANCH   6   7
ENDBRANCH   3   6
ENDBRANCH   1   4
BRANCH   1  13
ATOM     13  C   UNL     1       3.094   2.416  19.382  0.00  0.00    +0.000 C 
BRANCH  13  14
ATOM     14  S   UNL     1       1.737   3.199  18.554  0.00  0.00    +0.000 S 
ATOM     15  O   UNL     1       2.011   3.124  17.130  0.00  0.00    +0.000 OA
ATOM     16  O   UNL     1       0.497   2.679  19.093  0.00  0.00    +0.000 OA
BRANCH  14  17
ATOM     17  C   UNL     1       1.855   4.893  19.029  0.00  0.00    +0.000 A 
ATOM     18  C   UNL     1       2.077   5.882  18.068  0.00  0.00    +0.000 A 
ATOM     19  C   UNL     1       2.166   7.218  18.467  0.00  0.00    +0.000 A 
ATOM     20  C   UNL     1       2.033   7.560  19.814  0.00  0.00    +0.000 A 
ATOM     21  C   UNL     1       1.812   6.565  20.770  0.00  0.00    +0.000 A 
ATOM     22  C   UNL     1       1.724   5.235  20.370  0.00  0.00    +0.000 A 
ATOM     23  F   UNL     1       1.534   4.296  21.308  0.00  0.00    +0.000 F 
ENDBRANCH  14  17
ENDBRANCH  13  14
ENDBRANCH   1  13
TORSDOF 6
ENDMDL
MODEL 2
REMARK VINA RESULT:      -7.7      1.147      1.572
REMARK  Name = 
REMARK  6 active torsions:
REMARK  status: ('A' for Active; 'I' for Inactive)
REMARK    1  A    between atoms: C_2  and  C_3
REMARK    2  A    between atoms: C_3  and  C_4
REMARK    3  A    between atoms: N_10  and  C_11
REMARK    4  A    between atoms: C_11  and  C_12
REMARK    5  A    between atoms: C_12  and  S_13
REMARK    6  A    between atoms: S_13  and  C_16
REMARK                            x       y       z     vdW  Elec       q    Type
REMARK                         _______ _______ _______ _____ _____    ______ ____
ROOT
ATOM      1  C   UNL     1       4.275   3.067  18.880  0.00  0.00    +0.000 C 
ENDROOT
BRANCH   1   4
ATOM      2  O   UNL     1       7.017   5.223  19.861  0.00  0.00    +0.000 OA
ATOM      3  C   UNL     1       6.017   4.901  19.222  0.00  0.00    +0.000 C 
ATOM      4  N   UNL     1       5.460   3.674  19.473  0.00  0.00    +0.000 N 
ATOM      5  H   UNL     1       5.905   3.197  20.251  0.00  0.00    +0.000 HD
BRANCH   3   6
ATOM      6  C   UNL     1       5.419   5.752  18.112  0.00  0.00    +0.000 C 
BRANCH   6   7
ATOM      7  C   UNL     1       5.870   5.420  16.719  0.00  0.00    +0.000 A 
ATOM      8  C   UNL     1       5.021   4.755  15.827  0.00  0.00    +0.000 A 
ATOM      9  C   UNL     1       5.487   4.400  14.565  0.00  0.00    +0.000 A 
ATOM     10  C   UNL     1       6.795   4.715  14.238  0.00  0.00    +0.000 A 
ATOM     11  N   UNL     1       7.647   5.347  15.072  0.00  0.00    +0.000 NA
ATOM     12  C   UNL     1       7.166   5.688  16.287  0.00  0.00    +0.000 A 
ENDBRANCH   6   7
ENDBRANCH   3   6
ENDBRANCH   1   4
BRANCH   1  13
ATOM     13  C   UNL     1       3.415   2.342  19.899  0.00  0.00    +0.000 C 
BRANCH  13  14
ATOM     14  S   UNL     1       1.750   2.949  19.855  0.00  0.00    +0.000 S 
ATOM     15  O   UNL     1       1.093   2.301  18.734  0.00  0.00    +0.000 OA
ATOM     16  O   UNL     1       1.187   2.866  21.187  0.00  0.00    +0.000 OA
BRANCH  14  17
ATOM     17  C   UNL     1       1.921   4.658  19.454  0.00  0.00    +0.000 A 
ATOM     18  C   UNL     1       2.070   5.609  20.466  0.00  0.00    +0.000 A 
ATOM     19  C   UNL     1       2.205   6.957  20.124  0.00  0.00    +0.000 A 
ATOM     20  C   UNL     1       2.191   7.348  18.784  0.00  0.00    +0.000 A 
ATOM     21  C   UNL     1       2.040   6.392  17.778  0.00  0.00    +0.000 A 
ATOM     22  C   UNL     1       1.906   5.048  18.120  0.00  0.00    +0.000 A 
ATOM     23  F   UNL     1       1.739   4.152  17.138  0.00  0.00    +0.000 F 
ENDBRANCH  14  17
ENDBRANCH  13  14
ENDBRANCH   1  13
TORSDOF 6
ENDMDL
MODEL 3
REMARK VINA RESULT:      -7.3      3.084      6.698
REMARK  Name = 
REMARK  6 active torsions:
REMARK  status: ('A' for Active; 'I' for Inactive)
REMARK    1  A    between atoms: C_2  and  C_3
REMARK    2  A    between atoms: C_3  and  C_4
REMARK    3  A    between atoms: N_10  and  C_11
REMARK    4  A    between atoms: C_11  and  C_12
REMARK    5  A    between atoms: C_12  and  S_13
REMARK    6  A    between atoms: S_13  and  C_16
REMARK                            x       y       z     vdW  Elec       q    Type
REMARK                         _______ _______ _______ _____ _____    ______ ____
ROOT
ATOM      1  C   UNL     1       4.693   6.405  16.541  0.00  0.00    +0.000 C 
ENDROOT
BRANCH   1   4
ATOM      2  O   UNL     1       2.459   7.392  19.218  0.00  0.00    +0.000 OA
ATOM      3  C   UNL     1       2.914   6.642  18.357  0.00  0.00    +0.000 C 
ATOM      4  N   UNL     1       3.963   7.093  17.598  0.00  0.00    +0.000 N 
ATOM      5  H   UNL     1       4.310   7.995  17.913  0.00  0.00    +0.000 HD
BRANCH   3   6
ATOM      6  C   UNL     1       2.322   5.279  18.031  0.00  0.00    +0.000 C 
BRANCH   6   7
ATOM      7  C   UNL     1       2.303   4.288  19.159  0.00  0.00    +0.000 A 
ATOM      8  C   UNL     1       1.156   4.112  19.942  0.00  0.00    +0.000 A 
ATOM      9  C   UNL     1       1.186   3.236  21.022  0.00  0.00    +0.000 A 
ATOM     10  C   UNL     1       2.369   2.569  21.291  0.00  0.00    +0.000 A 
ATOM     11  N   UNL     1       3.497   2.718  20.566  0.00  0.00    +0.000 NA
ATOM     12  C   UNL     1       3.438   3.567  19.518  0.00  0.00    +0.000 A 
ENDBRANCH   6   7
ENDBRANCH   3   6
ENDBRANCH   1   4
BRANCH   1  13
ATOM     13  C   UNL     1       5.527   5.247  17.062  0.00  0.00    +0.000 C 
BRANCH  13  14
ATOM     14  S   UNL     1       7.186   5.347  16.446  0.00  0.00    +0.000 S 
ATOM     15  O   UNL     1       7.563   6.749  16.473  0.00  0.00    +0.000 OA
ATOM     16  O   UNL     1       7.995   4.353  17.120  0.00  0.00    +0.000 OA
BRANCH  14  17
ATOM     17  C   UNL     1       7.052   4.867  14.754  0.00  0.00    +0.000 A 
ATOM     18  C   UNL     1       7.772   5.546  13.769  0.00  0.00    +0.000 A 
ATOM     19  C   UNL     1       7.651   5.147  12.435  0.00  0.00    +0.000 A 
ATOM     20  C   UNL     1       6.820   4.079  12.093  0.00  0.00    +0.000 A 
ATOM     21  C   UNL     1       6.101   3.406  13.083  0.00  0.00    +0.000 A 
ATOM     22  C   UNL     1       6.223   3.805  14.412  0.00  0.00    +0.000 A 
ATOM     23  F   UNL     1       5.507   3.158  15.342  0.00  0.00    +0.000 F 
ENDBRANCH  14  17
ENDBRANCH  13  14
ENDBRANCH   1  13
TORSDOF 6
ENDMDL
MODEL 4
REMARK VINA RESULT:      -7.1      3.344      6.766
REMARK  Name = 
REMARK  6 active torsions:
REMARK  status: ('A' for Active; 'I' for Inactive)
REMARK    1  A    between atoms: C_2  and  C_3
REMARK    2  A    between atoms: C_3  and  C_4
REMARK    3  A    between atoms: N_10  and  C_11
REMARK    4  A    between atoms: C_11  and  C_12
REMARK    5  A    between atoms: C_12  and  S_13
REMARK    6  A    between atoms: S_13  and  C_16
REMARK                            x       y       z     vdW  Elec       q    Type
REMARK                         _______ _______ _______ _____ _____    ______ ____
ROOT
ATOM      1  C   UNL     1       4.846   6.881  17.542  0.00  0.00    +0.000 C 
ENDROOT
BRANCH   1   4
ATOM      2  O   UNL     1       1.600   8.246  18.400  0.00  0.00    +0.000 OA
ATOM      3  C   UNL     1       2.578   7.512  18.530  0.00  0.00    +0.000 C 
ATOM      4  N   UNL     1       3.585   7.609  17.605  0.00  0.00    +0.000 N 
ATOM      5  H   UNL     1       3.436   8.370  16.948  0.00  0.00    +0.000 HD
BRANCH   3   6
ATOM      6  C   UNL     1       2.691   6.445  19.609  0.00  0.00    +0.000 C 
BRANCH   6   7
ATOM      7  C   UNL     1       1.995   5.146  19.320  0.00  0.00    +0.000 A 
ATOM      8  C   UNL     1       1.484   4.358  20.357  0.00  0.00    +0.000 A 
ATOM      9  C   UNL     1       0.904   3.128  20.066  0.00  0.00    +0.000 A 
ATOM     10  C   UNL     1       0.861   2.719  18.744  0.00  0.00    +0.000 A 
ATOM     11  N   UNL     1       1.351   3.446  17.718  0.00  0.00    +0.000 NA
ATOM     12  C   UNL     1       1.900   4.640  18.027  0.00  0.00    +0.000 A 
ENDBRANCH   6   7
ENDBRANCH   3   6
ENDBRANCH   1   4
BRANCH   1  13
ATOM     13  C   UNL     1       5.051   6.177  16.212  0.00  0.00    +0.000 C 
BRANCH  13  14
ATOM     14  S   UNL     1       6.687   5.502  16.111  0.00  0.00    +0.000 S 
ATOM     15  O   UNL     1       7.612   6.611  16.258  0.00  0.00    +0.000 OA
ATOM     16  O   UNL     1       6.773   4.350  16.985  0.00  0.00    +0.000 OA
BRANCH  14  17
ATOM     17  C   UNL     1       6.816   4.921  14.451  0.00  0.00    +0.000 A 
ATOM     18  C   UNL     1       7.771   5.461  13.586  0.00  0.00    +0.000 A 
ATOM     19  C   UNL     1       7.856   4.984  12.275  0.00  0.00    +0.000 A 
ATOM     20  C   UNL     1       6.995   3.977  11.836  0.00  0.00    +0.000 A 
ATOM     21  C   UNL     1       6.042   3.443  12.705  0.00  0.00    +0.000 A 
ATOM     22  C   UNL     1       5.959   3.919  14.011  0.00  0.00    +0.000 A 
ATOM     23  F   UNL     1       5.021   3.407  14.820  0.00  0.00    +0.000 F 
ENDBRANCH  14  17
ENDBRANCH  13  14
ENDBRANCH   1  13
TORSDOF 6
ENDMDL
MODEL 5
REMARK VINA RESULT:      -7.1      3.513      6.839
REMARK  Name = 
REMARK  6 active torsions:
REMARK  status: ('A' for Active; 'I' for Inactive)
REMARK    1  A    between atoms: C_2  and  C_3
REMARK    2  A    between atoms: C_3  and  C_4
REMARK    3  A    between atoms: N_10  and  C_11
REMARK    4  A    between atoms: C_11  and  C_12
REMARK    5  A    between atoms: C_12  and  S_13
REMARK    6  A    between atoms: S_13  and  C_16
REMARK                            x       y       z     vdW  Elec       q    Type
REMARK                         _______ _______ _______ _____ _____    ______ ____
ROOT
ATOM      1  C   UNL     1       4.977   5.416  18.051  0.00  0.00    +0.000 C 
ENDROOT
BRANCH   1   4
ATOM      2  O   UNL     1       2.224   7.762  17.839  0.00  0.00    +0.000 OA
ATOM      3  C   UNL     1       2.913   6.886  18.358  0.00  0.00    +0.000 C 
ATOM      4  N   UNL     1       3.997   6.421  17.660  0.00  0.00    +0.000 N 
ATOM      5  H   UNL     1       4.159   6.941  16.802  0.00  0.00    +0.000 HD
BRANCH   3   6
ATOM      6  C   UNL     1       2.578   6.231  19.689  0.00  0.00    +0.000 C 
BRANCH   6   7
ATOM      7  C   UNL     1       2.212   4.776  19.629  0.00  0.00    +0.000 A 
ATOM      8  C   UNL     1       1.533   4.250  18.523  0.00  0.00    +0.000 A 
ATOM      9  C   UNL     1       1.148   2.914  18.523  0.00  0.00    +0.000 A 
ATOM     10  C   UNL     1       1.446   2.145  19.635  0.00  0.00    +0.000 A 
ATOM     11  N   UNL     1       2.090   2.617  20.723  0.00  0.00    +0.000 NA
ATOM     12  C   UNL     1       2.462   3.915  20.693  0.00  0.00    +0.000 A 
ENDBRANCH   6   7
ENDBRANCH   3   6
ENDBRANCH   1   4
BRANCH   1  13
ATOM     13  C   UNL     1       5.367   4.499  16.905  0.00  0.00    +0.000 C 
BRANCH  13  14
ATOM     14  S   UNL     1       6.809   5.114  16.077  0.00  0.00    +0.000 S 
ATOM     15  O   UNL     1       6.709   6.562  16.074  0.00  0.00    +0.000 OA
ATOM     16  O   UNL     1       7.978   4.458  16.626  0.00  0.00    +0.000 OA
BRANCH  14  17
ATOM     17  C   UNL     1       6.622   4.565  14.412  0.00  0.00    +0.000 A 
ATOM     18  C   UNL     1       5.554   3.738  14.056  0.00  0.00    +0.000 A 
ATOM     19  C   UNL     1       5.426   3.317  12.730  0.00  0.00    +0.000 A 
ATOM     20  C   UNL     1       6.356   3.721  11.770  0.00  0.00    +0.000 A 
ATOM     21  C   UNL     1       7.422   4.546  12.134  0.00  0.00    +0.000 A 
ATOM     22  C   UNL     1       7.548   4.965  13.456  0.00  0.00    +0.000 A 
ATOM     23  F   UNL     1       8.592   5.739  13.784  0.00  0.00    +0.000 F 
ENDBRANCH  14  17
ENDBRANCH  13  14
ENDBRANCH   1  13
TORSDOF 6
ENDMDL
MODEL 6
REMARK VINA RESULT:      -7.1      3.495      6.961
REMARK  Name = 
REMARK  6 active torsions:
REMARK  status: ('A' for Active; 'I' for Inactive)
REMARK    1  A    between atoms: C_2  and  C_3
REMARK    2  A    between atoms: C_3  and  C_4
REMARK    3  A    between atoms: N_10  and  C_11
REMARK    4  A    between atoms: C_11  and  C_12
REMARK    5  A    between atoms: C_12  and  S_13
REMARK    6  A    between atoms: S_13  and  C_16
REMARK                            x       y       z     vdW  Elec       q    Type
REMARK                         _______ _______ _______ _____ _____    ______ ____
ROOT
ATOM      1  C   UNL     1       5.213   4.858  18.032  0.00  0.00    +0.000 C 
ENDROOT
BRANCH   1   4
ATOM      2  O   UNL     1       2.853   7.588  18.364  0.00  0.00    +0.000 OA
ATOM      3  C   UNL     1       3.201   6.422  18.187  0.00  0.00    +0.000 C 
ATOM      4  N   UNL     1       4.543   6.143  18.193  0.00  0.00    +0.000 N 
ATOM      5  H   UNL     1       5.107   6.950  18.443  0.00  0.00    +0.000 HD
BRANCH   3   6
ATOM      6  C   UNL     1       2.231   5.293  17.877  0.00  0.00    +0.000 C 
BRANCH   6   7
ATOM      7  C   UNL     1       1.970   4.328  18.997  0.00  0.00    +0.000 A 
ATOM      8  C   UNL     1       1.896   4.769  20.324  0.00  0.00    +0.000 A 
ATOM      9  C   UNL     1       1.720   3.845  21.348  0.00  0.00    +0.000 A 
ATOM     10  C   UNL     1       1.633   2.505  21.014  0.00  0.00    +0.000 A 
ATOM     11  N   UNL     1       1.709   2.040  19.750  0.00  0.00    +0.000 NA
ATOM     12  C   UNL     1       1.870   2.958  18.773  0.00  0.00    +0.000 A 
ENDBRANCH   6   7
ENDBRANCH   3   6
ENDBRANCH   1   4
BRANCH   1  13
ATOM     13  C   UNL     1       5.224   4.379  16.591  0.00  0.00    +0.000 C 
BRANCH  13  14
ATOM     14  S   UNL     1       6.177   5.477  15.577  0.00  0.00    +0.000 S 
ATOM     15  O   UNL     1       5.376   6.672  15.380  0.00  0.00    +0.000 OA
ATOM     16  O   UNL     1       7.517   5.569  16.118  0.00  0.00    +0.000 OA
BRANCH  14  17
ATOM     17  C   UNL     1       6.285   4.650  14.023  0.00  0.00    +0.000 A 
ATOM     18  C   UNL     1       5.289   3.754  13.629  0.00  0.00    +0.000 A 
ATOM     19  C   UNL     1       5.396   3.111  12.393  0.00  0.00    +0.000 A 
ATOM     20  C   UNL     1       6.487   3.365  11.559  0.00  0.00    +0.000 A 
ATOM     21  C   UNL     1       7.480   4.261  11.961  0.00  0.00    +0.000 A 
ATOM     22  C   UNL     1       7.372   4.901  13.193  0.00  0.00    +0.000 A 
ATOM     23  F   UNL     1       8.349   5.739  13.566  0.00  0.00    +0.000 F 
ENDBRANCH  14  17
ENDBRANCH  13  14
ENDBRANCH   1  13
TORSDOF 6
ENDMDL
MODEL 7
REMARK VINA RESULT:      -7.1      3.171      6.498
REMARK  Name = 
REMARK  6 active torsions:
REMARK  status: ('A' for Active; 'I' for Inactive)
REMARK    1  A    between atoms: C_2  and  C_3
REMARK    2  A    between atoms: C_3  and  C_4
REMARK    3  A    between atoms: N_10  and  C_11
REMARK    4  A    between atoms: C_11  and  C_12
REMARK    5  A    between atoms: C_12  and  S_13
REMARK    6  A    between atoms: S_13  and  C_16
REMARK                            x       y       z     vdW  Elec       q    Type
REMARK                         _______ _______ _______ _____ _____    ______ ____
ROOT
ATOM      1  C   UNL     1       4.776   6.567  16.759  0.00  0.00    +0.000 C 
ENDROOT
BRANCH   1   4
ATOM      2  O   UNL     1       2.472   7.509  19.392  0.00  0.00    +0.000 OA
ATOM      3  C   UNL     1       2.850   6.883  18.404  0.00  0.00    +0.000 C 
ATOM      4  N   UNL     1       4.089   7.172  17.893  0.00  0.00    +0.000 N 
ATOM      5  H   UNL     1       4.602   7.832  18.470  0.00  0.00    +0.000 HD
BRANCH   3   6
ATOM      6  C   UNL     1       1.985   5.870  17.669  0.00  0.00    +0.000 C 
BRANCH   6   7
ATOM      7  C   UNL     1       2.016   4.469  18.210  0.00  0.00    +0.000 A 
ATOM      8  C   UNL     1       2.476   3.405  17.426  0.00  0.00    +0.000 A 
ATOM      9  C   UNL     1       2.431   2.109  17.928  0.00  0.00    +0.000 A 
ATOM     10  C   UNL     1       1.917   1.916  19.199  0.00  0.00    +0.000 A 
ATOM     11  N   UNL     1       1.455   2.913  19.981  0.00  0.00    +0.000 NA
ATOM     12  C   UNL     1       1.520   4.163  19.474  0.00  0.00    +0.000 A 
ENDBRANCH   6   7
ENDBRANCH   3   6
ENDBRANCH   1   4
BRANCH   1  13
ATOM     13  C   UNL     1       5.545   5.314  17.138  0.00  0.00    +0.000 C 
BRANCH  13  14
ATOM     14  S   UNL     1       7.194   5.374  16.492  0.00  0.00    +0.000 S 
ATOM     15  O   UNL     1       7.599   6.768  16.497  0.00  0.00    +0.000 OA
ATOM     16  O   UNL     1       7.996   4.372  17.163  0.00  0.00    +0.000 OA
BRANCH  14  17
ATOM     17  C   UNL     1       7.021   4.879  14.808  0.00  0.00    +0.000 A 
ATOM     18  C   UNL     1       7.766   5.506  13.807  0.00  0.00    +0.000 A 
ATOM     19  C   UNL     1       7.613   5.096  12.481  0.00  0.00    +0.000 A 
ATOM     20  C   UNL     1       6.725   4.068  12.160  0.00  0.00    +0.000 A 
ATOM     21  C   UNL     1       5.982   3.447  13.166  0.00  0.00    +0.000 A 
ATOM     22  C   UNL     1       6.135   3.857  14.487  0.00  0.00    +0.000 A 
ATOM     23  F   UNL     1       5.395   3.260  15.432  0.00  0.00    +0.000 F 
ENDBRANCH  14  17
ENDBRANCH  13  14
ENDBRANCH   1  13
TORSDOF 6
ENDMDL
MODEL 8
REMARK VINA RESULT:      -6.9      1.899      2.362
REMARK  Name = 
REMARK  6 active torsions:
REMARK  status: ('A' for Active; 'I' for Inactive)
REMARK    1  A    between atoms: C_2  and  C_3
REMARK    2  A    between atoms: C_3  and  C_4
REMARK    3  A    between atoms: N_10  and  C_11
REMARK    4  A    between atoms: C_11  and  C_12
REMARK    5  A    between atoms: C_12  and  S_13
REMARK    6  A    between atoms: S_13  and  C_16
REMARK                            x       y       z     vdW  Elec       q    Type
REMARK                         _______ _______ _______ _____ _____    ______ ____
ROOT
ATOM      1  C   UNL     1       4.826   4.214  18.333  0.00  0.00    +0.000 C 
ENDROOT
BRANCH   1   4
ATOM      2  O   UNL     1       8.339   4.227  17.442  0.00  0.00    +0.000 OA
ATOM      3  C   UNL     1       7.159   4.561  17.354  0.00  0.00    +0.000 C 
ATOM      4  N   UNL     1       6.260   3.981  18.212  0.00  0.00    +0.000 N 
ATOM      5  H   UNL     1       6.710   3.389  18.904  0.00  0.00    +0.000 HD
BRANCH   3   6
ATOM      6  C   UNL     1       6.631   5.514  16.293  0.00  0.00    +0.000 C 
BRANCH   6   7
ATOM      7  C   UNL     1       6.560   4.963  14.897  0.00  0.00    +0.000 A 
ATOM      8  C   UNL     1       5.550   4.068  14.528  0.00  0.00    +0.000 A 
ATOM      9  C   UNL     1       5.546   3.522  13.249  0.00  0.00    +0.000 A 
ATOM     10  C   UNL     1       6.561   3.883  12.379  0.00  0.00    +0.000 A 
ATOM     11  N   UNL     1       7.557   4.735  12.701  0.00  0.00    +0.000 NA
ATOM     12  C   UNL     1       7.531   5.258  13.945  0.00  0.00    +0.000 A 
ENDBRANCH   6   7
ENDBRANCH   3   6
ENDBRANCH   1   4
BRANCH   1  13
ATOM     13  C   UNL     1       4.495   5.360  19.272  0.00  0.00    +0.000 C 
BRANCH  13  14
ATOM     14  S   UNL     1       2.757   5.401  19.618  0.00  0.00    +0.000 S 
ATOM     15  O   UNL     1       2.113   4.535  18.647  0.00  0.00    +0.000 OA
ATOM     16  O   UNL     1       2.558   5.191  21.037  0.00  0.00    +0.000 OA
BRANCH  14  17
ATOM     17  C   UNL     1       2.279   7.058  19.252  0.00  0.00    +0.000 A 
ATOM     18  C   UNL     1       2.576   7.620  18.008  0.00  0.00    +0.000 A 
ATOM     19  C   UNL     1       2.186   8.934  17.739  0.00  0.00    +0.000 A 
ATOM     20  C   UNL     1       1.504   9.677  18.705  0.00  0.00    +0.000 A 
ATOM     21  C   UNL     1       1.212   9.109  19.947  0.00  0.00    +0.000 A 
ATOM     22  C   UNL     1       1.601   7.799  20.213  0.00  0.00    +0.000 A 
ATOM     23  F   UNL     1       1.329   7.283  21.419  0.00  0.00    +0.000 F 
ENDBRANCH  14  17
ENDBRANCH  13  14
ENDBRANCH   1  13
TORSDOF 6
ENDMDL
MODEL 9
REMARK VINA RESULT:      -6.9      1.426      1.946
REMARK  Name = 
REMARK  6 active torsions:
REMARK  status: ('A' for Active; 'I' for Inactive)
REMARK    1  A    between atoms: C_2  and  C_3
REMARK    2  A    between atoms: C_3  and  C_4
REMARK    3  A    between atoms: N_10  and  C_11
REMARK    4  A    between atoms: C_11  and  C_12
REMARK    5  A    between atoms: C_12  and  S_13
REMARK    6  A    between atoms: S_13  and  C_16
REMARK                            x       y       z     vdW  Elec       q    Type
REMARK                         _______ _______ _______ _____ _____    ______ ____
ROOT
ATOM      1  C   UNL     1       4.992   4.261  18.709  0.00  0.00    +0.000 C 
ENDROOT
BRANCH   1   4
ATOM      2  O   UNL     1       8.229   4.235  17.081  0.00  0.00    +0.000 OA
ATOM      3  C   UNL     1       7.032   4.492  17.192  0.00  0.00    +0.000 C 
ATOM      4  N   UNL     1       6.385   4.069  18.324  0.00  0.00    +0.000 N 
ATOM      5  H   UNL     1       7.018   3.655  19.002  0.00  0.00    +0.000 HD
BRANCH   3   6
ATOM      6  C   UNL     1       6.215   5.177  16.107  0.00  0.00    +0.000 C 
BRANCH   6   7
ATOM      7  C   UNL     1       6.522   4.762  14.697  0.00  0.00    +0.000 A 
ATOM      8  C   UNL     1       7.528   5.400  13.962  0.00  0.00    +0.000 A 
ATOM      9  C   UNL     1       7.746   5.041  12.636  0.00  0.00    +0.000 A 
ATOM     10  C   UNL     1       6.943   4.058  12.083  0.00  0.00    +0.000 A 
ATOM     11  N   UNL     1       5.959   3.426  12.756  0.00  0.00    +0.000 NA
ATOM     12  C   UNL     1       5.774   3.787  14.043  0.00  0.00    +0.000 A 
ENDBRANCH   6   7
ENDBRANCH   3   6
ENDBRANCH   1   4
BRANCH   1  13
ATOM     13  C   UNL     1       4.075   3.189  18.148  0.00  0.00    +0.000 C 
BRANCH  13  14
ATOM     14  S   UNL     1       2.426   3.394  18.765  0.00  0.00    +0.000 S 
ATOM     15  O   UNL     1       1.523   3.050  17.681  0.00  0.00    +0.000 OA
ATOM     16  O   UNL     1       2.321   2.731  20.048  0.00  0.00    +0.000 OA
BRANCH  14  17
ATOM     17  C   UNL     1       2.279   5.128  19.048  0.00  0.00    +0.000 A 
ATOM     18  C   UNL     1       2.454   6.032  17.997  0.00  0.00    +0.000 A 
ATOM     19  C   UNL     1       2.332   7.402  18.244  0.00  0.00    +0.000 A 
ATOM     20  C   UNL     1       2.036   7.861  19.529  0.00  0.00    +0.000 A 
ATOM     21  C   UNL     1       1.864   6.952  20.575  0.00  0.00    +0.000 A 
ATOM     22  C   UNL     1       1.986   5.587  20.326  0.00  0.00    +0.000 A 
ATOM     23  F   UNL     1       1.838   4.735  21.350  0.00  0.00    +0.000 F 
ENDBRANCH  14  17
ENDBRANCH  13  14
ENDBRANCH   1  13
TORSDOF 6
ENDMDL
