MODEL 1
REMARK VINA RESULT:      -9.3      0.000      0.000
REMARK  Name = 
REMARK  10 active torsions:
REMARK  status: ('A' for Active; 'I' for Inactive)
REMARK    1  A    between atoms: C_1  and  C_2
REMARK    2  A    between atoms: C_2  and  C_3
REMARK    3  A    between atoms: C_8  and  O_9
REMARK    4  A    between atoms: O_9  and  C_10
REMARK    5  A    between atoms: C_10  and  C_11
REMARK    6  A    between atoms: C_16  and  N_17
REMARK    7  A    between atoms: C_20  and  O_21
REMARK    8  A    between atoms: O_21  and  C_22
REMARK    9  A    between atoms: C_22  and  C_23
REMARK   10  A    between atoms: C_28  and  N_29
REMARK                            x       y       z     vdW  Elec       q    Type
REMARK                         _______ _______ _______ _____ _____    ______ ____
ROOT
ATOM      1  C   UNL     1       1.470  12.581  20.011  0.00  0.00    +0.000 C 
ATOM      2  C   UNL     1       0.338  11.722  19.438  0.00  0.00    +0.000 C 
ATOM      3  C   UNL     1      -0.548  12.562  18.515  0.00  0.00    +0.000 C 
ATOM      4  C   UNL     1      -0.510  11.197  20.576  0.00  0.00    +0.000 C 
ATOM      5  C   UNL     1      -0.328   9.974  21.074  0.00  0.00    +0.000 C 
ATOM      6  C   UNL     1       0.705   9.158  20.457  0.00  0.00    +0.000 A 
ATOM      7  C   UNL     1       1.072   7.960  21.044  0.00  0.00    +0.000 A 
ATOM      8  C   UNL     1       1.933   7.055  20.390  0.00  0.00    +0.000 A 
ATOM      9  C   UNL     1       2.566   7.441  19.185  0.00  0.00    +0.000 A 
ATOM     10  C   UNL     1       2.213   8.683  18.620  0.00  0.00    +0.000 A 
ATOM     11  C   UNL     1       1.282   9.525  19.248  0.00  0.00    +0.000 A 
ATOM     12  O   UNL     1       0.940  10.691  18.612  0.00  0.00    +0.000 OA
ENDROOT
BRANCH   8  13
ATOM     13  O   UNL     1       2.124   5.775  20.892  0.00  0.00    +0.000 OA
BRANCH  13  14
ATOM     14  C   UNL     1       1.253   4.795  20.278  0.00  0.00    +0.000 C 
BRANCH  14  15
ATOM     15  C   UNL     1       1.911   3.811  19.339  0.00  0.00    +0.000 A 
ATOM     16  C   UNL     1       1.820   4.013  17.954  0.00  0.00    +0.000 A 
ATOM     17  C   UNL     1       2.336   3.079  17.057  0.00  0.00    +0.000 A 
ATOM     18  C   UNL     1       2.958   1.928  17.528  0.00  0.00    +0.000 A 
ATOM     19  C   UNL     1       3.108   1.720  18.897  0.00  0.00    +0.000 A 
ATOM     20  C   UNL     1       2.605   2.662  19.805  0.00  0.00    +0.000 A 
BRANCH  20  21
ATOM     21  N   UNL     1       2.841   2.390  21.245  0.00  0.00    +0.000 N 
ATOM     22  O   UNL     1       3.983   2.087  21.615  0.00  0.00    +0.000 OA
ATOM     23  O   UNL     1       1.868   2.459  22.011  0.00  0.00    +0.000 OA
ENDBRANCH  20  21
ENDBRANCH  14  15
ENDBRANCH  13  14
ENDBRANCH   8  13
BRANCH   9  24
ATOM     24  O   UNL     1       3.456   6.558  18.597  0.00  0.00    +0.000 OA
BRANCH  24  25
ATOM     25  C   UNL     1       4.467   7.124  17.735  0.00  0.00    +0.000 C 
BRANCH  25  26
ATOM     26  C   UNL     1       5.265   6.090  16.940  0.00  0.00    +0.000 A 
ATOM     27  C   UNL     1       4.909   5.726  15.634  0.00  0.00    +0.000 A 
ATOM     28  C   UNL     1       5.654   4.780  14.914  0.00  0.00    +0.000 A 
ATOM     29  C   UNL     1       6.764   4.152  15.483  0.00  0.00    +0.000 A 
ATOM     30  C   UNL     1       7.150   4.489  16.774  0.00  0.00    +0.000 A 
ATOM     31  C   UNL     1       6.414   5.459  17.476  0.00  0.00    +0.000 A 
BRANCH  31  32
ATOM     32  N   UNL     1       6.930   5.834  18.777  0.00  0.00    +0.000 N 
ATOM     33  O   UNL     1       7.890   6.615  18.795  0.00  0.00    +0.000 OA
ATOM     34  O   UNL     1       6.389   5.325  19.767  0.00  0.00    +0.000 OA
ENDBRANCH  31  32
ENDBRANCH  25  26
ENDBRANCH  24  25
ENDBRANCH   9  24
TORSDOF 8
ENDMDL
MODEL 2
REMARK VINA RESULT:      -9.2      0.850      1.174
REMARK  Name = 
REMARK  10 active torsions:
REMARK  status: ('A' for Active; 'I' for Inactive)
REMARK    1  A    between atoms: C_1  and  C_2
REMARK    2  A    between atoms: C_2  and  C_3
REMARK    3  A    between atoms: C_8  and  O_9
REMARK    4  A    between atoms: O_9  and  C_10
REMARK    5  A    between atoms: C_10  and  C_11
REMARK    6  A    between atoms: C_16  and  N_17
REMARK    7  A    between atoms: C_20  and  O_21
REMARK    8  A    between atoms: O_21  and  C_22
REMARK    9  A    between atoms: C_22  and  C_23
REMARK   10  A    between atoms: C_28  and  N_29
REMARK                            x       y       z     vdW  Elec       q    Type
REMARK                         _______ _______ _______ _____ _____    ______ ____
ROOT
ATOM      1  C   UNL     1       0.491  12.654  20.309  0.00  0.00    +0.000 C 
ATOM      2  C   UNL     1      -0.502  11.559  19.906  0.00  0.00    +0.000 C 
ATOM      3  C   UNL     1      -1.819  12.185  19.438  0.00  0.00    +0.000 C 
ATOM      4  C   UNL     1      -0.783  10.681  21.105  0.00  0.00    +0.000 C 
ATOM      5  C   UNL     1      -0.146   9.524  21.288  0.00  0.00    +0.000 C 
ATOM      6  C   UNL     1       0.814   9.134  20.268  0.00  0.00    +0.000 A 
ATOM      7  C   UNL     1       1.644   8.047  20.487  0.00  0.00    +0.000 A 
ATOM      8  C   UNL     1       2.457   7.524  19.462  0.00  0.00    +0.000 A 
ATOM      9  C   UNL     1       2.557   8.214  18.231  0.00  0.00    +0.000 A 
ATOM     10  C   UNL     1       1.736   9.343  18.036  0.00  0.00    +0.000 A 
ATOM     11  C   UNL     1       0.867   9.788  19.044  0.00  0.00    +0.000 A 
ATOM     12  O   UNL     1       0.054  10.857  18.763  0.00  0.00    +0.000 OA
ENDROOT
BRANCH   8  13
ATOM     13  O   UNL     1       3.119   6.317  19.634  0.00  0.00    +0.000 OA
BRANCH  13  14
ATOM     14  C   UNL     1       2.217   5.186  19.708  0.00  0.00    +0.000 C 
BRANCH  14  15
ATOM     15  C   UNL     1       2.732   3.883  19.146  0.00  0.00    +0.000 A 
ATOM     16  C   UNL     1       3.318   3.864  17.872  0.00  0.00    +0.000 A 
ATOM     17  C   UNL     1       3.721   2.665  17.285  0.00  0.00    +0.000 A 
ATOM     18  C   UNL     1       3.551   1.464  17.962  0.00  0.00    +0.000 A 
ATOM     19  C   UNL     1       3.017   1.452  19.249  0.00  0.00    +0.000 A 
ATOM     20  C   UNL     1       2.623   2.654  19.852  0.00  0.00    +0.000 A 
BRANCH  20  21
ATOM     21  N   UNL     1       2.102   2.563  21.239  0.00  0.00    +0.000 N 
ATOM     22  O   UNL     1       0.898   2.772  21.438  0.00  0.00    +0.000 OA
ATOM     23  O   UNL     1       2.911   2.303  22.142  0.00  0.00    +0.000 OA
ENDBRANCH  20  21
ENDBRANCH  14  15
ENDBRANCH  13  14
ENDBRANCH   8  13
BRANCH   9  24
ATOM     24  O   UNL     1       3.412   7.713  17.264  0.00  0.00    +0.000 OA
BRANCH  24  25
ATOM     25  C   UNL     1       4.783   7.482  17.658  0.00  0.00    +0.000 C 
BRANCH  25  26
ATOM     26  C   UNL     1       5.481   6.368  16.878  0.00  0.00    +0.000 A 
ATOM     27  C   UNL     1       5.101   6.029  15.572  0.00  0.00    +0.000 A 
ATOM     28  C   UNL     1       5.755   5.009  14.866  0.00  0.00    +0.000 A 
ATOM     29  C   UNL     1       6.794   4.279  15.449  0.00  0.00    +0.000 A 
ATOM     30  C   UNL     1       7.202   4.588  16.740  0.00  0.00    +0.000 A 
ATOM     31  C   UNL     1       6.559   5.631  17.429  0.00  0.00    +0.000 A 
BRANCH  31  32
ATOM     32  N   UNL     1       7.099   5.965  18.731  0.00  0.00    +0.000 N 
ATOM     33  O   UNL     1       6.610   5.381  19.707  0.00  0.00    +0.000 OA
ATOM     34  O   UNL     1       7.988   6.825  18.769  0.00  0.00    +0.000 OA
ENDBRANCH  31  32
ENDBRANCH  25  26
ENDBRANCH  24  25
ENDBRANCH   9  24
TORSDOF 8
ENDMDL
MODEL 3
REMARK VINA RESULT:      -8.9      0.938      4.273
REMARK  Name = 
REMARK  10 active torsions:
REMARK  status: ('A' for Active; 'I' for Inactive)
REMARK    1  A    between atoms: C_1  and  C_2
REMARK    2  A    between atoms: C_2  and  C_3
REMARK    3  A    between atoms: C_8  and  O_9
REMARK    4  A    between atoms: O_9  and  C_10
REMARK    5  A    between atoms: C_10  and  C_11
REMARK    6  A    between atoms: C_16  and  N_17
REMARK    7  A    between atoms: C_20  and  O_21
REMARK    8  A    between atoms: O_21  and  C_22
REMARK    9  A    between atoms: C_22  and  C_23
REMARK   10  A    between atoms: C_28  and  N_29
REMARK                            x       y       z     vdW  Elec       q    Type
REMARK                         _______ _______ _______ _____ _____    ______ ____
ROOT
ATOM      1  C   UNL     1      -1.498  11.668  19.843  0.00  0.00    +0.000 C 
ATOM      2  C   UNL     1      -0.022  11.956  20.139  0.00  0.00    +0.000 C 
ATOM      3  C   UNL     1       0.104  13.169  21.066  0.00  0.00    +0.000 C 
ATOM      4  C   UNL     1       0.693  12.262  18.842  0.00  0.00    +0.000 C 
ATOM      5  C   UNL     1       1.387  11.328  18.191  0.00  0.00    +0.000 C 
ATOM      6  C   UNL     1       1.445  10.009  18.797  0.00  0.00    +0.000 A 
ATOM      7  C   UNL     1       1.983   8.950  18.086  0.00  0.00    +0.000 A 
ATOM      8  C   UNL     1       2.225   7.703  18.695  0.00  0.00    +0.000 A 
ATOM      9  C   UNL     1       1.763   7.468  20.011  0.00  0.00    +0.000 A 
ATOM     10  C   UNL     1       1.180   8.543  20.710  0.00  0.00    +0.000 A 
ATOM     11  C   UNL     1       1.034   9.802  20.108  0.00  0.00    +0.000 A 
ATOM     12  O   UNL     1       0.513  10.819  20.868  0.00  0.00    +0.000 OA
ENDROOT
BRANCH   8  13
ATOM     13  O   UNL     1       2.954   6.724  18.033  0.00  0.00    +0.000 OA
BRANCH  13  14
ATOM     14  C   UNL     1       4.350   7.072  17.876  0.00  0.00    +0.000 C 
BRANCH  14  15
ATOM     15  C   UNL     1       5.183   6.134  17.036  0.00  0.00    +0.000 A 
ATOM     16  C   UNL     1       5.198   6.286  15.641  0.00  0.00    +0.000 A 
ATOM     17  C   UNL     1       5.882   5.382  14.829  0.00  0.00    +0.000 A 
ATOM     18  C   UNL     1       6.569   4.315  15.395  0.00  0.00    +0.000 A 
ATOM     19  C   UNL     1       6.615   4.163  16.779  0.00  0.00    +0.000 A 
ATOM     20  C   UNL     1       5.942   5.075  17.604  0.00  0.00    +0.000 A 
BRANCH  20  21
ATOM     21  N   UNL     1       6.073   4.870  19.068  0.00  0.00    +0.000 N 
ATOM     22  O   UNL     1       6.946   5.498  19.682  0.00  0.00    +0.000 OA
ATOM     23  O   UNL     1       5.308   4.056  19.606  0.00  0.00    +0.000 OA
ENDBRANCH  20  21
ENDBRANCH  14  15
ENDBRANCH  13  14
ENDBRANCH   8  13
BRANCH   9  24
ATOM     24  O   UNL     1       1.957   6.212  20.562  0.00  0.00    +0.000 OA
BRANCH  24  25
ATOM     25  C   UNL     1       1.010   5.184  20.200  0.00  0.00    +0.000 C 
BRANCH  25  26
ATOM     26  C   UNL     1       1.616   4.017  19.421  0.00  0.00    +0.000 A 
ATOM     27  C   UNL     1       1.764   4.056  18.027  0.00  0.00    +0.000 A 
ATOM     28  C   UNL     1       2.329   2.980  17.326  0.00  0.00    +0.000 A 
ATOM     29  C   UNL     1       2.744   1.823  17.990  0.00  0.00    +0.000 A 
ATOM     30  C   UNL     1       2.616   1.749  19.371  0.00  0.00    +0.000 A 
ATOM     31  C   UNL     1       2.076   2.843  20.067  0.00  0.00    +0.000 A 
BRANCH  31  32
ATOM     32  N   UNL     1       2.064   2.738  21.513  0.00  0.00    +0.000 N 
ATOM     33  O   UNL     1       1.050   2.255  22.031  0.00  0.00    +0.000 OA
ATOM     34  O   UNL     1       3.057   3.162  22.117  0.00  0.00    +0.000 OA
ENDBRANCH  31  32
ENDBRANCH  25  26
ENDBRANCH  24  25
ENDBRANCH   9  24
TORSDOF 8
ENDMDL
MODEL 4
REMARK VINA RESULT:      -8.8      1.427      4.594
REMARK  Name = 
REMARK  10 active torsions:
REMARK  status: ('A' for Active; 'I' for Inactive)
REMARK    1  A    between atoms: C_1  and  C_2
REMARK    2  A    between atoms: C_2  and  C_3
REMARK    3  A    between atoms: C_8  and  O_9
REMARK    4  A    between atoms: O_9  and  C_10
REMARK    5  A    between atoms: C_10  and  C_11
REMARK    6  A    between atoms: C_16  and  N_17
REMARK    7  A    between atoms: C_20  and  O_21
REMARK    8  A    between atoms: O_21  and  C_22
REMARK    9  A    between atoms: C_22  and  C_23
REMARK   10  A    between atoms: C_28  and  N_29
REMARK                            x       y       z     vdW  Elec       q    Type
REMARK                         _______ _______ _______ _____ _____    ______ ____
ROOT
ATOM      1  C   UNL     1      -1.736  10.591  19.511  0.00  0.00    +0.000 C 
ATOM      2  C   UNL     1      -0.351  11.127  19.890  0.00  0.00    +0.000 C 
ATOM      3  C   UNL     1      -0.489  12.405  20.721  0.00  0.00    +0.000 C 
ATOM      4  C   UNL     1       0.417  11.451  18.628  0.00  0.00    +0.000 C 
ATOM      5  C   UNL     1       1.296  10.595  18.107  0.00  0.00    +0.000 C 
ATOM      6  C   UNL     1       1.501   9.345  18.822  0.00  0.00    +0.000 A 
ATOM      7  C   UNL     1       2.251   8.338  18.241  0.00  0.00    +0.000 A 
ATOM      8  C   UNL     1       2.626   7.189  18.965  0.00  0.00    +0.000 A 
ATOM      9  C   UNL     1       2.095   6.976  20.259  0.00  0.00    +0.000 A 
ATOM     10  C   UNL     1       1.299   7.992  20.824  0.00  0.00    +0.000 A 
ATOM     11  C   UNL     1       1.016   9.168  20.112  0.00  0.00    +0.000 A 
ATOM     12  O   UNL     1       0.285  10.141  20.746  0.00  0.00    +0.000 OA
ENDROOT
BRANCH   8  13
ATOM     13  O   UNL     1       3.548   6.293  18.441  0.00  0.00    +0.000 OA
BRANCH  13  14
ATOM     14  C   UNL     1       4.553   6.936  17.620  0.00  0.00    +0.000 C 
BRANCH  14  15
ATOM     15  C   UNL     1       5.460   6.020  16.834  0.00  0.00    +0.000 A 
ATOM     16  C   UNL     1       5.146   5.715  15.501  0.00  0.00    +0.000 A 
ATOM     17  C   UNL     1       5.910   4.803  14.775  0.00  0.00    +0.000 A 
ATOM     18  C   UNL     1       7.006   4.183  15.365  0.00  0.00    +0.000 A 
ATOM     19  C   UNL     1       7.374   4.500  16.671  0.00  0.00    +0.000 A 
ATOM     20  C   UNL     1       6.620   5.427  17.402  0.00  0.00    +0.000 A 
BRANCH  20  21
ATOM     21  N   UNL     1       7.100   5.744  18.771  0.00  0.00    +0.000 N 
ATOM     22  O   UNL     1       6.551   5.196  19.736  0.00  0.00    +0.000 OA
ATOM     23  O   UNL     1       8.022   6.566  18.882  0.00  0.00    +0.000 OA
ENDBRANCH  20  21
ENDBRANCH  14  15
ENDBRANCH  13  14
ENDBRANCH   8  13
BRANCH   9  24
ATOM     24  O   UNL     1       2.429   5.808  20.923  0.00  0.00    +0.000 OA
BRANCH  24  25
ATOM     25  C   UNL     1       1.688   4.619  20.570  0.00  0.00    +0.000 C 
BRANCH  25  26
ATOM     26  C   UNL     1       2.547   3.491  20.000  0.00  0.00    +0.000 A 
ATOM     27  C   UNL     1       3.684   3.015  20.668  0.00  0.00    +0.000 A 
ATOM     28  C   UNL     1       4.459   1.975  20.135  0.00  0.00    +0.000 A 
ATOM     29  C   UNL     1       4.137   1.390  18.908  0.00  0.00    +0.000 A 
ATOM     30  C   UNL     1       3.016   1.832  18.217  0.00  0.00    +0.000 A 
ATOM     31  C   UNL     1       2.229   2.855  18.773  0.00  0.00    +0.000 A 
BRANCH  31  32
ATOM     32  N   UNL     1       1.021   3.198  18.050  0.00  0.00    +0.000 N 
ATOM     33  O   UNL     1       1.092   4.146  17.259  0.00  0.00    +0.000 OA
ATOM     34  O   UNL     1       0.008   2.532  18.298  0.00  0.00    +0.000 OA
ENDBRANCH  31  32
ENDBRANCH  25  26
ENDBRANCH  24  25
ENDBRANCH   9  24
TORSDOF 8
ENDMDL
MODEL 5
REMARK VINA RESULT:      -8.5      0.932      1.095
REMARK  Name = 
REMARK  10 active torsions:
REMARK  status: ('A' for Active; 'I' for Inactive)
REMARK    1  A    between atoms: C_1  and  C_2
REMARK    2  A    between atoms: C_2  and  C_3
REMARK    3  A    between atoms: C_8  and  O_9
REMARK    4  A    between atoms: O_9  and  C_10
REMARK    5  A    between atoms: C_10  and  C_11
REMARK    6  A    between atoms: C_16  and  N_17
REMARK    7  A    between atoms: C_20  and  O_21
REMARK    8  A    between atoms: O_21  and  C_22
REMARK    9  A    between atoms: C_22  and  C_23
REMARK   10  A    between atoms: C_28  and  N_29
REMARK                            x       y       z     vdW  Elec       q    Type
REMARK                         _______ _______ _______ _____ _____    ______ ____
ROOT
ATOM      1  C   UNL     1       1.471  13.124  19.770  0.00  0.00    +0.000 C 
ATOM      2  C   UNL     1       0.242  12.268  19.446  0.00  0.00    +0.000 C 
ATOM      3  C   UNL     1      -0.833  13.123  18.770  0.00  0.00    +0.000 C 
ATOM      4  C   UNL     1      -0.323  11.707  20.731  0.00  0.00    +0.000 C 
ATOM      5  C   UNL     1      -0.029  10.473  21.143  0.00  0.00    +0.000 C 
ATOM      6  C   UNL     1       0.840   9.683  20.287  0.00  0.00    +0.000 A 
ATOM      7  C   UNL     1       1.336   8.474  20.742  0.00  0.00    +0.000 A 
ATOM      8  C   UNL     1       2.029   7.594  19.886  0.00  0.00    +0.000 A 
ATOM      9  C   UNL     1       2.371   8.017  18.580  0.00  0.00    +0.000 A 
ATOM     10  C   UNL     1       1.894   9.269  18.143  0.00  0.00    +0.000 A 
ATOM     11  C   UNL     1       1.127  10.086  18.988  0.00  0.00    +0.000 A 
ATOM     12  O   UNL     1       0.645  11.264  18.477  0.00  0.00    +0.000 OA
ENDROOT
BRANCH   8  13
ATOM     13  O   UNL     1       2.334   6.304  20.297  0.00  0.00    +0.000 OA
BRANCH  13  14
ATOM     14  C   UNL     1       1.285   5.354  19.989  0.00  0.00    +0.000 C 
BRANCH  14  15
ATOM     15  C   UNL     1       1.730   4.035  19.404  0.00  0.00    +0.000 A 
ATOM     16  C   UNL     1       1.889   3.915  18.015  0.00  0.00    +0.000 A 
ATOM     17  C   UNL     1       2.210   2.689  17.433  0.00  0.00    +0.000 A 
ATOM     18  C   UNL     1       2.383   1.562  18.227  0.00  0.00    +0.000 A 
ATOM     19  C   UNL     1       2.280   1.657  19.614  0.00  0.00    +0.000 A 
ATOM     20  C   UNL     1       1.973   2.888  20.208  0.00  0.00    +0.000 A 
BRANCH  20  21
ATOM     21  N   UNL     1       1.922   2.917  21.691  0.00  0.00    +0.000 N 
ATOM     22  O   UNL     1       1.119   2.177  22.274  0.00  0.00    +0.000 OA
ATOM     23  O   UNL     1       2.678   3.706  22.278  0.00  0.00    +0.000 OA
ENDBRANCH  20  21
ENDBRANCH  14  15
ENDBRANCH  13  14
ENDBRANCH   8  13
BRANCH   9  24
ATOM     24  O   UNL     1       3.108   7.158  17.783  0.00  0.00    +0.000 OA
BRANCH  24  25
ATOM     25  C   UNL     1       4.527   7.080  18.040  0.00  0.00    +0.000 C 
BRANCH  25  26
ATOM     26  C   UNL     1       5.294   6.186  17.066  0.00  0.00    +0.000 A 
ATOM     27  C   UNL     1       4.637   5.291  16.210  0.00  0.00    +0.000 A 
ATOM     28  C   UNL     1       5.353   4.481  15.317  0.00  0.00    +0.000 A 
ATOM     29  C   UNL     1       6.749   4.522  15.265  0.00  0.00    +0.000 A 
ATOM     30  C   UNL     1       7.435   5.399  16.095  0.00  0.00    +0.000 A 
ATOM     31  C   UNL     1       6.706   6.227  16.966  0.00  0.00    +0.000 A 
BRANCH  31  32
ATOM     32  N   UNL     1       7.478   7.186  17.730  0.00  0.00    +0.000 N 
ATOM     33  O   UNL     1       7.601   8.319  17.247  0.00  0.00    +0.000 OA
ATOM     34  O   UNL     1       7.975   6.792  18.793  0.00  0.00    +0.000 OA
ENDBRANCH  31  32
ENDBRANCH  25  26
ENDBRANCH  24  25
ENDBRANCH   9  24
TORSDOF 8
ENDMDL
MODEL 6
REMARK VINA RESULT:      -8.3      1.477      1.974
REMARK  Name = 
REMARK  10 active torsions:
REMARK  status: ('A' for Active; 'I' for Inactive)
REMARK    1  A    between atoms: C_1  and  C_2
REMARK    2  A    between atoms: C_2  and  C_3
REMARK    3  A    between atoms: C_8  and  O_9
REMARK    4  A    between atoms: O_9  and  C_10
REMARK    5  A    between atoms: C_10  and  C_11
REMARK    6  A    between atoms: C_16  and  N_17
REMARK    7  A    between atoms: C_20  and  O_21
REMARK    8  A    between atoms: O_21  and  C_22
REMARK    9  A    between atoms: C_22  and  C_23
REMARK   10  A    between atoms: C_28  and  N_29
REMARK                            x       y       z     vdW  Elec       q    Type
REMARK                         _______ _______ _______ _____ _____    ______ ____
ROOT
ATOM      1  C   UNL     1       0.950  12.880  19.920  0.00  0.00    +0.000 C 
ATOM      2  C   UNL     1      -0.133  11.857  19.560  0.00  0.00    +0.000 C 
ATOM      3  C   UNL     1      -1.404  12.575  19.097  0.00  0.00    +0.000 C 
ATOM      4  C   UNL     1      -0.462  11.034  20.785  0.00  0.00    +0.000 C 
ATOM      5  C   UNL     1       0.085   9.835  20.987  0.00  0.00    +0.000 C 
ATOM      6  C   UNL     1       0.994   9.345  19.963  0.00  0.00    +0.000 A 
ATOM      7  C   UNL     1       1.738   8.202  20.196  0.00  0.00    +0.000 A 
ATOM      8  C   UNL     1       2.490   7.592  19.172  0.00  0.00    +0.000 A 
ATOM      9  C   UNL     1       2.622   8.242  17.922  0.00  0.00    +0.000 A 
ATOM     10  C   UNL     1       1.890   9.427  17.712  0.00  0.00    +0.000 A 
ATOM     11  C   UNL     1       1.076   9.963  18.722  0.00  0.00    +0.000 A 
ATOM     12  O   UNL     1       0.345  11.086  18.427  0.00  0.00    +0.000 OA
ENDROOT
BRANCH   8  13
ATOM     13  O   UNL     1       3.058   6.340  19.364  0.00  0.00    +0.000 OA
BRANCH  13  14
ATOM     14  C   UNL     1       2.174   5.257  18.982  0.00  0.00    +0.000 C 
BRANCH  14  15
ATOM     15  C   UNL     1       2.181   4.042  19.878  0.00  0.00    +0.000 A 
ATOM     16  C   UNL     1       1.134   3.854  20.794  0.00  0.00    +0.000 A 
ATOM     17  C   UNL     1       1.155   2.793  21.698  0.00  0.00    +0.000 A 
ATOM     18  C   UNL     1       2.217   1.897  21.701  0.00  0.00    +0.000 A 
ATOM     19  C   UNL     1       3.249   2.027  20.773  0.00  0.00    +0.000 A 
ATOM     20  C   UNL     1       3.229   3.082  19.851  0.00  0.00    +0.000 A 
BRANCH  20  21
ATOM     21  N   UNL     1       4.340   3.128  18.868  0.00  0.00    +0.000 N 
ATOM     22  O   UNL     1       4.067   3.153  17.660  0.00  0.00    +0.000 OA
ATOM     23  O   UNL     1       5.499   3.117  19.309  0.00  0.00    +0.000 OA
ENDBRANCH  20  21
ENDBRANCH  14  15
ENDBRANCH  13  14
ENDBRANCH   8  13
BRANCH   9  24
ATOM     24  O   UNL     1       3.418   7.651  16.955  0.00  0.00    +0.000 OA
BRANCH  24  25
ATOM     25  C   UNL     1       4.838   7.599  17.219  0.00  0.00    +0.000 C 
BRANCH  25  26
ATOM     26  C   UNL     1       5.540   6.376  16.631  0.00  0.00    +0.000 A 
ATOM     27  C   UNL     1       5.201   5.861  15.372  0.00  0.00    +0.000 A 
ATOM     28  C   UNL     1       5.858   4.742  14.842  0.00  0.00    +0.000 A 
ATOM     29  C   UNL     1       6.861   4.086  15.561  0.00  0.00    +0.000 A 
ATOM     30  C   UNL     1       7.228   4.567  16.810  0.00  0.00    +0.000 A 
ATOM     31  C   UNL     1       6.582   5.707  17.320  0.00  0.00    +0.000 A 
BRANCH  31  32
ATOM     32  N   UNL     1       7.083   6.214  18.582  0.00  0.00    +0.000 N 
ATOM     33  O   UNL     1       6.509   5.826  19.608  0.00  0.00    +0.000 OA
ATOM     34  O   UNL     1       8.026   7.013  18.535  0.00  0.00    +0.000 OA
ENDBRANCH  31  32
ENDBRANCH  25  26
ENDBRANCH  24  25
ENDBRANCH   9  24
TORSDOF 8
ENDMDL
MODEL 7
REMARK VINA RESULT:      -8.2      1.143      4.365
REMARK  Name = 
REMARK  10 active torsions:
REMARK  status: ('A' for Active; 'I' for Inactive)
REMARK    1  A    between atoms: C_1  and  C_2
REMARK    2  A    between atoms: C_2  and  C_3
REMARK    3  A    between atoms: C_8  and  O_9
REMARK    4  A    between atoms: O_9  and  C_10
REMARK    5  A    between atoms: C_10  and  C_11
REMARK    6  A    between atoms: C_16  and  N_17
REMARK    7  A    between atoms: C_20  and  O_21
REMARK    8  A    between atoms: O_21  and  C_22
REMARK    9  A    between atoms: C_22  and  C_23
REMARK   10  A    between atoms: C_28  and  N_29
REMARK                            x       y       z     vdW  Elec       q    Type
REMARK                         _______ _______ _______ _____ _____    ______ ____
ROOT
ATOM      1  C   UNL     1      -1.608  11.390  20.081  0.00  0.00    +0.000 C 
ATOM      2  C   UNL     1      -0.180  11.724  20.527  0.00  0.00    +0.000 C 
ATOM      3  C   UNL     1      -0.210  12.595  21.786  0.00  0.00    +0.000 C 
ATOM      4  C   UNL     1       0.515  12.491  19.425  0.00  0.00    +0.000 C 
ATOM      5  C   UNL     1       1.322  11.884  18.554  0.00  0.00    +0.000 C 
ATOM      6  C   UNL     1       1.522  10.455  18.728  0.00  0.00    +0.000 A 
ATOM      7  C   UNL     1       2.190   9.732  17.755  0.00  0.00    +0.000 A 
ATOM      8  C   UNL     1       2.564   8.390  17.962  0.00  0.00    +0.000 A 
ATOM      9  C   UNL     1       2.111   7.710  19.118  0.00  0.00    +0.000 A 
ATOM     10  C   UNL     1       1.397   8.448  20.083  0.00  0.00    +0.000 A 
ATOM     11  C   UNL     1       1.117   9.810  19.890  0.00  0.00    +0.000 A 
ATOM     12  O   UNL     1       0.470  10.480  20.897  0.00  0.00    +0.000 OA
ENDROOT
BRANCH   8  13
ATOM     13  O   UNL     1       3.411   7.747  17.070  0.00  0.00    +0.000 OA
BRANCH  13  14
ATOM     14  C   UNL     1       4.636   7.286  17.690  0.00  0.00    +0.000 C 
BRANCH  14  15
ATOM     15  C   UNL     1       5.455   6.296  16.896  0.00  0.00    +0.000 A 
ATOM     16  C   UNL     1       5.104   6.019  15.566  0.00  0.00    +0.000 A 
ATOM     17  C   UNL     1       5.781   5.045  14.834  0.00  0.00    +0.000 A 
ATOM     18  C   UNL     1       6.826   4.335  15.414  0.00  0.00    +0.000 A 
ATOM     19  C   UNL     1       7.232   4.620  16.716  0.00  0.00    +0.000 A 
ATOM     20  C   UNL     1       6.566   5.607  17.454  0.00  0.00    +0.000 A 
BRANCH  20  21
ATOM     21  N   UNL     1       7.083   5.881  18.818  0.00  0.00    +0.000 N 
ATOM     22  O   UNL     1       8.059   6.633  18.945  0.00  0.00    +0.000 OA
ATOM     23  O   UNL     1       6.521   5.321  19.771  0.00  0.00    +0.000 OA
ENDBRANCH  20  21
ENDBRANCH  14  15
ENDBRANCH  13  14
ENDBRANCH   8  13
BRANCH   9  24
ATOM     24  O   UNL     1       2.440   6.373  19.266  0.00  0.00    +0.000 OA
BRANCH  24  25
ATOM     25  C   UNL     1       1.811   5.440  18.360  0.00  0.00    +0.000 C 
BRANCH  25  26
ATOM     26  C   UNL     1       2.459   4.056  18.335  0.00  0.00    +0.000 A 
ATOM     27  C   UNL     1       3.266   3.637  17.268  0.00  0.00    +0.000 A 
ATOM     28  C   UNL     1       3.860   2.366  17.261  0.00  0.00    +0.000 A 
ATOM     29  C   UNL     1       3.650   1.465  18.308  0.00  0.00    +0.000 A 
ATOM     30  C   UNL     1       2.859   1.846  19.385  0.00  0.00    +0.000 A 
ATOM     31  C   UNL     1       2.292   3.132  19.395  0.00  0.00    +0.000 A 
BRANCH  31  32
ATOM     32  N   UNL     1       1.562   3.498  20.593  0.00  0.00    +0.000 N 
ATOM     33  O   UNL     1       2.232   3.854  21.570  0.00  0.00    +0.000 OA
ATOM     34  O   UNL     1       0.329   3.402  20.553  0.00  0.00    +0.000 OA
ENDBRANCH  31  32
ENDBRANCH  25  26
ENDBRANCH  24  25
ENDBRANCH   9  24
TORSDOF 8
ENDMDL
MODEL 8
REMARK VINA RESULT:      -7.9      1.682      2.080
REMARK  Name = 
REMARK  10 active torsions:
REMARK  status: ('A' for Active; 'I' for Inactive)
REMARK    1  A    between atoms: C_1  and  C_2
REMARK    2  A    between atoms: C_2  and  C_3
REMARK    3  A    between atoms: C_8  and  O_9
REMARK    4  A    between atoms: O_9  and  C_10
REMARK    5  A    between atoms: C_10  and  C_11
REMARK    6  A    between atoms: C_16  and  N_17
REMARK    7  A    between atoms: C_20  and  O_21
REMARK    8  A    between atoms: O_21  and  C_22
REMARK    9  A    between atoms: C_22  and  C_23
REMARK   10  A    between atoms: C_28  and  N_29
REMARK                            x       y       z     vdW  Elec       q    Type
REMARK                         _______ _______ _______ _____ _____    ______ ____
ROOT
ATOM      1  C   UNL     1       1.697  12.824  20.719  0.00  0.00    +0.000 C 
ATOM      2  C   UNL     1       0.590  12.360  19.765  0.00  0.00    +0.000 C 
ATOM      3  C   UNL     1      -0.223  13.561  19.275  0.00  0.00    +0.000 C 
ATOM      4  C   UNL     1      -0.335  11.418  20.502  0.00  0.00    +0.000 C 
ATOM      5  C   UNL     1      -0.204  10.094  20.406  0.00  0.00    +0.000 C 
ATOM      6  C   UNL     1       0.854   9.599  19.540  0.00  0.00    +0.000 A 
ATOM      7  C   UNL     1       1.166   8.250  19.543  0.00  0.00    +0.000 A 
ATOM      8  C   UNL     1       2.052   7.699  18.596  0.00  0.00    +0.000 A 
ATOM      9  C   UNL     1       2.766   8.558  17.726  0.00  0.00    +0.000 A 
ATOM     10  C   UNL     1       2.468   9.934  17.763  0.00  0.00    +0.000 A 
ATOM     11  C   UNL     1       1.512  10.443  18.656  0.00  0.00    +0.000 A 
ATOM     12  O   UNL     1       1.228  11.784  18.595  0.00  0.00    +0.000 OA
ENDROOT
BRANCH   8  13
ATOM     13  O   UNL     1       2.192   6.323  18.477  0.00  0.00    +0.000 OA
BRANCH  13  14
ATOM     14  C   UNL     1       3.030   5.752  19.510  0.00  0.00    +0.000 C 
BRANCH  14  15
ATOM     15  C   UNL     1       2.594   4.416  20.062  0.00  0.00    +0.000 A 
ATOM     16  C   UNL     1       2.187   4.322  21.402  0.00  0.00    +0.000 A 
ATOM     17  C   UNL     1       1.866   3.090  21.968  0.00  0.00    +0.000 A 
ATOM     18  C   UNL     1       1.938   1.929  21.207  0.00  0.00    +0.000 A 
ATOM     19  C   UNL     1       2.292   1.993  19.861  0.00  0.00    +0.000 A 
ATOM     20  C   UNL     1       2.602   3.230  19.279  0.00  0.00    +0.000 A 
BRANCH  20  21
ATOM     21  N   UNL     1       2.928   3.221  17.831  0.00  0.00    +0.000 N 
ATOM     22  O   UNL     1       4.110   3.085  17.487  0.00  0.00    +0.000 OA
ATOM     23  O   UNL     1       1.995   3.374  17.030  0.00  0.00    +0.000 OA
ENDBRANCH  20  21
ENDBRANCH  14  15
ENDBRANCH  13  14
ENDBRANCH   8  13
BRANCH   9  24
ATOM     24  O   UNL     1       3.678   7.995  16.850  0.00  0.00    +0.000 OA
BRANCH  24  25
ATOM     25  C   UNL     1       4.962   7.617  17.393  0.00  0.00    +0.000 C 
BRANCH  25  26
ATOM     26  C   UNL     1       5.600   6.406  16.713  0.00  0.00    +0.000 A 
ATOM     27  C   UNL     1       5.234   6.006  15.420  0.00  0.00    +0.000 A 
ATOM     28  C   UNL     1       5.833   4.896  14.805  0.00  0.00    +0.000 A 
ATOM     29  C   UNL     1       6.800   4.138  15.469  0.00  0.00    +0.000 A 
ATOM     30  C   UNL     1       7.192   4.505  16.750  0.00  0.00    +0.000 A 
ATOM     31  C   UNL     1       6.606   5.636  17.346  0.00  0.00    +0.000 A 
BRANCH  31  32
ATOM     32  N   UNL     1       7.133   6.020  18.641  0.00  0.00    +0.000 N 
ATOM     33  O   UNL     1       8.021   6.881  18.651  0.00  0.00    +0.000 OA
ATOM     34  O   UNL     1       6.672   5.439  19.631  0.00  0.00    +0.000 OA
ENDBRANCH  31  32
ENDBRANCH  25  26
ENDBRANCH  24  25
ENDBRANCH   9  24
TORSDOF 8
ENDMDL
MODEL 9
REMARK VINA RESULT:      -7.8      1.612      2.141
REMARK  Name = 
REMARK  10 active torsions:
REMARK  status: ('A' for Active; 'I' for Inactive)
REMARK    1  A    between atoms: C_1  and  C_2
REMARK    2  A    between atoms: C_2  and  C_3
REMARK    3  A    between atoms: C_8  and  O_9
REMARK    4  A    between atoms: O_9  and  C_10
REMARK    5  A    between atoms: C_10  and  C_11
REMARK    6  A    between atoms: C_16  and  N_17
REMARK    7  A    between atoms: C_20  and  O_21
REMARK    8  A    between atoms: O_21  and  C_22
REMARK    9  A    between atoms: C_22  and  C_23
REMARK   10  A    between atoms: C_28  and  N_29
REMARK                            x       y       z     vdW  Elec       q    Type
REMARK                         _______ _______ _______ _____ _____    ______ ____
ROOT
ATOM      1  C   UNL     1       0.679  12.416  20.517  0.00  0.00    +0.000 C 
ATOM      2  C   UNL     1      -0.317  11.378  19.989  0.00  0.00    +0.000 C 
ATOM      3  C   UNL     1      -1.633  12.057  19.603  0.00  0.00    +0.000 C 
ATOM      4  C   UNL     1      -0.597  10.364  21.076  0.00  0.00    +0.000 C 
ATOM      5  C   UNL     1       0.039   9.193  21.118  0.00  0.00    +0.000 C 
ATOM      6  C   UNL     1       0.996   8.925  20.057  0.00  0.00    +0.000 A 
ATOM      7  C   UNL     1       1.824   7.819  20.143  0.00  0.00    +0.000 A 
ATOM      8  C   UNL     1       2.634   7.420  19.061  0.00  0.00    +0.000 A 
ATOM      9  C   UNL     1       2.732   8.252  17.920  0.00  0.00    +0.000 A 
ATOM     10  C   UNL     1       1.913   9.397  17.863  0.00  0.00    +0.000 A 
ATOM     11  C   UNL     1       1.047   9.720  18.919  0.00  0.00    +0.000 A 
ATOM     12  O   UNL     1       0.235  10.816  18.769  0.00  0.00    +0.000 OA
ENDROOT
BRANCH   8  13
ATOM     13  O   UNL     1       3.294   6.200  19.086  0.00  0.00    +0.000 OA
BRANCH  13  14
ATOM     14  C   UNL     1       2.429   5.086  18.757  0.00  0.00    +0.000 C 
BRANCH  14  15
ATOM     15  C   UNL     1       2.143   4.110  19.873  0.00  0.00    +0.000 A 
ATOM     16  C   UNL     1       2.337   4.508  21.204  0.00  0.00    +0.000 A 
ATOM     17  C   UNL     1       2.169   3.606  22.254  0.00  0.00    +0.000 A 
ATOM     18  C   UNL     1       1.799   2.291  21.994  0.00  0.00    +0.000 A 
ATOM     19  C   UNL     1       1.552   1.876  20.687  0.00  0.00    +0.000 A 
ATOM     20  C   UNL     1       1.703   2.781  19.628  0.00  0.00    +0.000 A 
BRANCH  20  21
ATOM     21  N   UNL     1       1.380   2.275  18.270  0.00  0.00    +0.000 N 
ATOM     22  O   UNL     1       2.310   2.028  17.490  0.00  0.00    +0.000 OA
ATOM     23  O   UNL     1       0.184   2.145  17.973  0.00  0.00    +0.000 OA
ENDBRANCH  20  21
ENDBRANCH  14  15
ENDBRANCH  13  14
ENDBRANCH   8  13
BRANCH   9  24
ATOM     24  O   UNL     1       3.585   7.868  16.899  0.00  0.00    +0.000 OA
BRANCH  24  25
ATOM     25  C   UNL     1       4.967   7.640  17.250  0.00  0.00    +0.000 C 
BRANCH  25  26
ATOM     26  C   UNL     1       5.580   6.395  16.609  0.00  0.00    +0.000 A 
ATOM     27  C   UNL     1       5.213   5.967  15.326  0.00  0.00    +0.000 A 
ATOM     28  C   UNL     1       5.789   4.826  14.747  0.00  0.00    +0.000 A 
ATOM     29  C   UNL     1       6.734   4.065  15.439  0.00  0.00    +0.000 A 
ATOM     30  C   UNL     1       7.126   4.459  16.712  0.00  0.00    +0.000 A 
ATOM     31  C   UNL     1       6.564   5.620  17.271  0.00  0.00    +0.000 A 
BRANCH  31  32
ATOM     32  N   UNL     1       7.091   6.028  18.558  0.00  0.00    +0.000 N 
ATOM     33  O   UNL     1       6.622   5.470  19.558  0.00  0.00    +0.000 OA
ATOM     34  O   UNL     1       7.949   6.920  18.558  0.00  0.00    +0.000 OA
ENDBRANCH  31  32
ENDBRANCH  25  26
ENDBRANCH  24  25
ENDBRANCH   9  24
TORSDOF 8
ENDMDL
