MODEL 1
REMARK VINA RESULT:      -7.1      0.000      0.000
REMARK  Name = 
REMARK  3 active torsions:
REMARK  status: ('A' for Active; 'I' for Inactive)
REMARK    1  A    between atoms: C_1  and  O_2
REMARK    2  A    between atoms: O_2  and  C_3
REMARK    3  A    between atoms: C_12  and  C_13
REMARK                            x       y       z     vdW  Elec       q    Type
REMARK                         _______ _______ _______ _____ _____    ______ ____
ROOT
ATOM      1  C   UNL     1       1.953   3.417  19.624  0.00  0.00    +0.000 A 
ATOM      2  C   UNL     1       2.836   2.861  18.703  0.00  0.00    +0.000 A 
ATOM      3  C   UNL     1       3.633   3.675  17.893  0.00  0.00    +0.000 A 
ATOM      4  C   UNL     1       3.578   5.075  17.985  0.00  0.00    +0.000 A 
ATOM      5  C   UNL     1       2.662   5.632  18.903  0.00  0.00    +0.000 A 
ATOM      6  C   UNL     1       1.867   4.806  19.720  0.00  0.00    +0.000 A 
ATOM      7  C   UNL     1       2.582   7.125  19.075  0.00  0.00    +0.000 C 
ATOM      8  C   UNL     1       2.928   7.865  17.790  0.00  0.00    +0.000 C 
ATOM      9  C   UNL     1       4.093   7.259  17.068  0.00  0.00    +0.000 C 
ATOM     10  C   UNL     1       4.453   5.956  17.136  0.00  0.00    +0.000 C 
ENDROOT
BRANCH  10  11
ATOM     11  C   UNL     1       5.597   5.491  16.386  0.00  0.00    +0.000 A 
ATOM     12  C   UNL     1       6.869   5.242  16.856  0.00  0.00    +0.000 A 
ATOM     13  N   UNL     1       7.583   4.842  15.759  0.00  0.00    +0.000 N 
ATOM     14  C   UNL     1       6.736   4.855  14.689  0.00  0.00    +0.000 A 
ATOM     15  N   UNL     1       5.528   5.229  15.039  0.00  0.00    +0.000 NA
ATOM     16  H   UNL     1       8.561   4.590  15.737  0.00  0.00    +0.000 HD
ENDBRANCH  10  11
BRANCH   1  18
ATOM     17  C   UNL     1       1.485   2.503  21.764  0.00  0.00    +0.000 C 
ATOM     18  O   UNL     1       1.241   2.515  20.364  0.00  0.00    +0.000 OA
ENDBRANCH   1  18
TORSDOF 2
ENDMDL
MODEL 2
REMARK VINA RESULT:      -6.9      3.489      5.858
REMARK  Name = 
REMARK  3 active torsions:
REMARK  status: ('A' for Active; 'I' for Inactive)
REMARK    1  A    between atoms: C_1  and  O_2
REMARK    2  A    between atoms: O_2  and  C_3
REMARK    3  A    between atoms: C_12  and  C_13
REMARK                            x       y       z     vdW  Elec       q    Type
REMARK                         _______ _______ _______ _____ _____    ______ ____
ROOT
ATOM      1  C   UNL     1       6.559   4.541  14.322  0.00  0.00    +0.000 A 
ATOM      2  C   UNL     1       5.700   3.620  14.913  0.00  0.00    +0.000 A 
ATOM      3  C   UNL     1       5.433   3.669  16.285  0.00  0.00    +0.000 A 
ATOM      4  C   UNL     1       6.012   4.648  17.108  0.00  0.00    +0.000 A 
ATOM      5  C   UNL     1       6.903   5.561  16.505  0.00  0.00    +0.000 A 
ATOM      6  C   UNL     1       7.161   5.511  15.122  0.00  0.00    +0.000 A 
ATOM      7  C   UNL     1       7.528   6.657  17.326  0.00  0.00    +0.000 C 
ATOM      8  C   UNL     1       7.722   6.240  18.778  0.00  0.00    +0.000 C 
ATOM      9  C   UNL     1       6.553   5.475  19.322  0.00  0.00    +0.000 C 
ATOM     10  C   UNL     1       5.709   4.721  18.580  0.00  0.00    +0.000 C 
ENDROOT
BRANCH  10  11
ATOM     11  C   UNL     1       4.618   4.025  19.224  0.00  0.00    +0.000 A 
ATOM     12  C   UNL     1       3.309   4.436  19.347  0.00  0.00    +0.000 A 
ATOM     13  N   UNL     1       2.686   3.441  20.048  0.00  0.00    +0.000 N 
ATOM     14  C   UNL     1       3.617   2.479  20.313  0.00  0.00    +0.000 A 
ATOM     15  N   UNL     1       4.789   2.797  19.817  0.00  0.00    +0.000 NA
ATOM     16  H   UNL     1       1.715   3.419  20.329  0.00  0.00    +0.000 HD
ENDBRANCH  10  11
BRANCH   1  18
ATOM     17  C   UNL     1       6.103   3.268  12.371  0.00  0.00    +0.000 C 
ATOM     18  O   UNL     1       6.726   4.395  12.973  0.00  0.00    +0.000 OA
ENDBRANCH   1  18
TORSDOF 2
ENDMDL
MODEL 3
REMARK VINA RESULT:      -6.8      3.329      5.495
REMARK  Name = 
REMARK  3 active torsions:
REMARK  status: ('A' for Active; 'I' for Inactive)
REMARK    1  A    between atoms: C_1  and  O_2
REMARK    2  A    between atoms: O_2  and  C_3
REMARK    3  A    between atoms: C_12  and  C_13
REMARK                            x       y       z     vdW  Elec       q    Type
REMARK                         _______ _______ _______ _____ _____    ______ ____
ROOT
ATOM      1  C   UNL     1       5.389   5.919  16.525  0.00  0.00    +0.000 A 
ATOM      2  C   UNL     1       5.251   4.797  17.338  0.00  0.00    +0.000 A 
ATOM      3  C   UNL     1       4.273   4.753  18.336  0.00  0.00    +0.000 A 
ATOM      4  C   UNL     1       3.395   5.828  18.548  0.00  0.00    +0.000 A 
ATOM      5  C   UNL     1       3.559   6.971  17.737  0.00  0.00    +0.000 A 
ATOM      6  C   UNL     1       4.541   7.006  16.728  0.00  0.00    +0.000 A 
ATOM      7  C   UNL     1       2.625   8.142  17.888  0.00  0.00    +0.000 C 
ATOM      8  C   UNL     1       2.114   8.280  19.316  0.00  0.00    +0.000 C 
ATOM      9  C   UNL     1       1.764   6.962  19.936  0.00  0.00    +0.000 C 
ATOM     10  C   UNL     1       2.324   5.776  19.603  0.00  0.00    +0.000 C 
ENDROOT
BRANCH  10  11
ATOM     11  C   UNL     1       1.903   4.570  20.279  0.00  0.00    +0.000 A 
ATOM     12  C   UNL     1       0.924   3.682  19.889  0.00  0.00    +0.000 A 
ATOM     13  N   UNL     1       0.897   2.727  20.869  0.00  0.00    +0.000 N 
ATOM     14  C   UNL     1       1.845   3.059  21.794  0.00  0.00    +0.000 A 
ATOM     15  N   UNL     1       2.477   4.159  21.458  0.00  0.00    +0.000 NA
ATOM     16  H   UNL     1       0.285   1.925  20.911  0.00  0.00    +0.000 HD
ENDBRANCH  10  11
BRANCH   1  18
ATOM     17  C   UNL     1       6.766   4.524  15.186  0.00  0.00    +0.000 C 
ATOM     18  O   UNL     1       6.372   5.832  15.579  0.00  0.00    +0.000 OA
ENDBRANCH   1  18
TORSDOF 2
ENDMDL
MODEL 4
REMARK VINA RESULT:      -6.8      3.139      5.350
REMARK  Name = 
REMARK  3 active torsions:
REMARK  status: ('A' for Active; 'I' for Inactive)
REMARK    1  A    between atoms: C_1  and  O_2
REMARK    2  A    between atoms: O_2  and  C_3
REMARK    3  A    between atoms: C_12  and  C_13
REMARK                            x       y       z     vdW  Elec       q    Type
REMARK                         _______ _______ _______ _____ _____    ______ ____
ROOT
ATOM      1  C   UNL     1       6.140   5.561  16.038  0.00  0.00    +0.000 A 
ATOM      2  C   UNL     1       5.793   4.335  16.597  0.00  0.00    +0.000 A 
ATOM      3  C   UNL     1       4.674   4.217  17.427  0.00  0.00    +0.000 A 
ATOM      4  C   UNL     1       3.860   5.324  17.717  0.00  0.00    +0.000 A 
ATOM      5  C   UNL     1       4.233   6.568  17.167  0.00  0.00    +0.000 A 
ATOM      6  C   UNL     1       5.357   6.678  16.327  0.00  0.00    +0.000 A 
ATOM      7  C   UNL     1       3.381   7.785  17.410  0.00  0.00    +0.000 C 
ATOM      8  C   UNL     1       2.669   7.722  18.755  0.00  0.00    +0.000 C 
ATOM      9  C   UNL     1       2.127   6.359  19.060  0.00  0.00    +0.000 C 
ATOM     10  C   UNL     1       2.639   5.198  18.587  0.00  0.00    +0.000 C 
ENDROOT
BRANCH  10  11
ATOM     11  C   UNL     1       2.027   3.943  18.958  0.00  0.00    +0.000 A 
ATOM     12  C   UNL     1       2.170   3.252  20.143  0.00  0.00    +0.000 A 
ATOM     13  N   UNL     1       1.410   2.125  19.993  0.00  0.00    +0.000 N 
ATOM     14  C   UNL     1       0.840   2.174  18.753  0.00  0.00    +0.000 A 
ATOM     15  N   UNL     1       1.184   3.265  18.111  0.00  0.00    +0.000 NA
ATOM     16  H   UNL     1       1.293   1.383  20.670  0.00  0.00    +0.000 HD
ENDBRANCH  10  11
BRANCH   1  18
ATOM     17  C   UNL     1       7.144   4.802  14.025  0.00  0.00    +0.000 C 
ATOM     18  O   UNL     1       7.247   5.541  15.235  0.00  0.00    +0.000 OA
ENDBRANCH   1  18
TORSDOF 2
ENDMDL
MODEL 5
REMARK VINA RESULT:      -6.8      2.264      3.506
REMARK  Name = 
REMARK  3 active torsions:
REMARK  status: ('A' for Active; 'I' for Inactive)
REMARK    1  A    between atoms: C_1  and  O_2
REMARK    2  A    between atoms: O_2  and  C_3
REMARK    3  A    between atoms: C_12  and  C_13
REMARK                            x       y       z     vdW  Elec       q    Type
REMARK                         _______ _______ _______ _____ _____    ______ ____
ROOT
ATOM      1  C   UNL     1       3.186   3.750  18.795  0.00  0.00    +0.000 A 
ATOM      2  C   UNL     1       4.009   4.573  19.559  0.00  0.00    +0.000 A 
ATOM      3  C   UNL     1       5.132   5.185  18.994  0.00  0.00    +0.000 A 
ATOM      4  C   UNL     1       5.463   4.999  17.642  0.00  0.00    +0.000 A 
ATOM      5  C   UNL     1       4.639   4.142  16.882  0.00  0.00    +0.000 A 
ATOM      6  C   UNL     1       3.506   3.535  17.455  0.00  0.00    +0.000 A 
ATOM      7  C   UNL     1       4.919   3.931  15.418  0.00  0.00    +0.000 C 
ATOM      8  C   UNL     1       6.404   4.049  15.100  0.00  0.00    +0.000 C 
ATOM      9  C   UNL     1       7.064   5.179  15.831  0.00  0.00    +0.000 C 
ATOM     10  C   UNL     1       6.655   5.675  17.022  0.00  0.00    +0.000 C 
ENDROOT
BRANCH  10  11
ATOM     11  C   UNL     1       7.382   6.767  17.629  0.00  0.00    +0.000 A 
ATOM     12  C   UNL     1       8.182   6.728  18.751  0.00  0.00    +0.000 A 
ATOM     13  N   UNL     1       8.619   8.013  18.923  0.00  0.00    +0.000 N 
ATOM     14  C   UNL     1       8.086   8.767  17.917  0.00  0.00    +0.000 A 
ATOM     15  N   UNL     1       7.346   8.041  17.114  0.00  0.00    +0.000 NA
ATOM     16  H   UNL     1       9.221   8.350  19.661  0.00  0.00    +0.000 HD
ENDBRANCH  10  11
BRANCH   1  18
ATOM     17  C   UNL     1       1.081   2.661  18.662  0.00  0.00    +0.000 C 
ATOM     18  O   UNL     1       2.114   3.224  19.460  0.00  0.00    +0.000 OA
ENDBRANCH   1  18
TORSDOF 2
ENDMDL
MODEL 6
REMARK VINA RESULT:      -6.7      3.688      5.920
REMARK  Name = 
REMARK  3 active torsions:
REMARK  status: ('A' for Active; 'I' for Inactive)
REMARK    1  A    between atoms: C_1  and  O_2
REMARK    2  A    between atoms: O_2  and  C_3
REMARK    3  A    between atoms: C_12  and  C_13
REMARK                            x       y       z     vdW  Elec       q    Type
REMARK                         _______ _______ _______ _____ _____    ______ ____
ROOT
ATOM      1  C   UNL     1       6.952   4.975  14.442  0.00  0.00    +0.000 A 
ATOM      2  C   UNL     1       5.982   3.978  14.488  0.00  0.00    +0.000 A 
ATOM      3  C   UNL     1       5.308   3.689  15.679  0.00  0.00    +0.000 A 
ATOM      4  C   UNL     1       5.579   4.396  16.861  0.00  0.00    +0.000 A 
ATOM      5  C   UNL     1       6.581   5.388  16.812  0.00  0.00    +0.000 A 
ATOM      6  C   UNL     1       7.250   5.678  15.608  0.00  0.00    +0.000 A 
ATOM      7  C   UNL     1       6.892   6.206  18.037  0.00  0.00    +0.000 C 
ATOM      8  C   UNL     1       6.647   5.425  19.321  0.00  0.00    +0.000 C 
ATOM      9  C   UNL     1       5.393   4.605  19.269  0.00  0.00    +0.000 C 
ATOM     10  C   UNL     1       4.839   4.108  18.139  0.00  0.00    +0.000 C 
ENDROOT
BRANCH  10  11
ATOM     11  C   UNL     1       3.627   3.325  18.221  0.00  0.00    +0.000 A 
ATOM     12  C   UNL     1       3.512   1.957  18.344  0.00  0.00    +0.000 A 
ATOM     13  N   UNL     1       2.166   1.711  18.360  0.00  0.00    +0.000 N 
ATOM     14  C   UNL     1       1.527   2.913  18.256  0.00  0.00    +0.000 A 
ATOM     15  N   UNL     1       2.381   3.906  18.184  0.00  0.00    +0.000 NA
ATOM     16  H   UNL     1       1.720   0.807  18.429  0.00  0.00    +0.000 HD
ENDBRANCH  10  11
BRANCH   1  18
ATOM     17  C   UNL     1       7.166   4.254  12.191  0.00  0.00    +0.000 C 
ATOM     18  O   UNL     1       7.526   5.170  13.217  0.00  0.00    +0.000 OA
ENDBRANCH   1  18
TORSDOF 2
ENDMDL
MODEL 7
REMARK VINA RESULT:      -6.5      3.443      5.836
REMARK  Name = 
REMARK  3 active torsions:
REMARK  status: ('A' for Active; 'I' for Inactive)
REMARK    1  A    between atoms: C_1  and  O_2
REMARK    2  A    between atoms: O_2  and  C_3
REMARK    3  A    between atoms: C_12  and  C_13
REMARK                            x       y       z     vdW  Elec       q    Type
REMARK                         _______ _______ _______ _____ _____    ______ ____
ROOT
ATOM      1  C   UNL     1       6.315   5.227  15.856  0.00  0.00    +0.000 A 
ATOM      2  C   UNL     1       5.825   6.489  16.181  0.00  0.00    +0.000 A 
ATOM      3  C   UNL     1       4.640   6.632  16.909  0.00  0.00    +0.000 A 
ATOM      4  C   UNL     1       3.910   5.513  17.342  0.00  0.00    +0.000 A 
ATOM      5  C   UNL     1       4.399   4.239  16.986  0.00  0.00    +0.000 A 
ATOM      6  C   UNL     1       5.597   4.103  16.260  0.00  0.00    +0.000 A 
ATOM      7  C   UNL     1       3.682   3.000  17.452  0.00  0.00    +0.000 C 
ATOM      8  C   UNL     1       2.185   3.232  17.605  0.00  0.00    +0.000 C 
ATOM      9  C   UNL     1       1.865   4.558  18.228  0.00  0.00    +0.000 C 
ATOM     10  C   UNL     1       2.648   5.659  18.148  0.00  0.00    +0.000 C 
ENDROOT
BRANCH  10  11
ATOM     11  C   UNL     1       2.226   6.884  18.789  0.00  0.00    +0.000 A 
ATOM     12  C   UNL     1       1.948   8.096  18.194  0.00  0.00    +0.000 A 
ATOM     13  N   UNL     1       1.614   8.932  19.224  0.00  0.00    +0.000 N 
ATOM     14  C   UNL     1       1.692   8.211  20.381  0.00  0.00    +0.000 A 
ATOM     15  N   UNL     1       2.047   6.969  20.149  0.00  0.00    +0.000 NA
ATOM     16  H   UNL     1       1.361   9.907  19.150  0.00  0.00    +0.000 HD
ENDBRANCH  10  11
BRANCH   1  18
ATOM     17  C   UNL     1       7.394   5.007  13.753  0.00  0.00    +0.000 C 
ATOM     18  O   UNL     1       7.488   5.223  15.155  0.00  0.00    +0.000 OA
ENDBRANCH   1  18
TORSDOF 2
ENDMDL
MODEL 8
REMARK VINA RESULT:      -6.5      3.280      5.824
REMARK  Name = 
REMARK  3 active torsions:
REMARK  status: ('A' for Active; 'I' for Inactive)
REMARK    1  A    between atoms: C_1  and  O_2
REMARK    2  A    between atoms: O_2  and  C_3
REMARK    3  A    between atoms: C_12  and  C_13
REMARK                            x       y       z     vdW  Elec       q    Type
REMARK                         _______ _______ _______ _____ _____    ______ ____
ROOT
ATOM      1  C   UNL     1       6.120   5.387  15.933  0.00  0.00    +0.000 A 
ATOM      2  C   UNL     1       5.641   6.572  16.483  0.00  0.00    +0.000 A 
ATOM      3  C   UNL     1       4.509   6.573  17.304  0.00  0.00    +0.000 A 
ATOM      4  C   UNL     1       3.826   5.385  17.609  0.00  0.00    +0.000 A 
ATOM      5  C   UNL     1       4.303   4.192  17.026  0.00  0.00    +0.000 A 
ATOM      6  C   UNL     1       5.447   4.197  16.206  0.00  0.00    +0.000 A 
ATOM      7  C   UNL     1       3.636   2.880  17.343  0.00  0.00    +0.000 C 
ATOM      8  C   UNL     1       2.151   3.052  17.634  0.00  0.00    +0.000 C 
ATOM      9  C   UNL     1       1.862   4.258  18.475  0.00  0.00    +0.000 C 
ATOM     10  C   UNL     1       2.623   5.376  18.513  0.00  0.00    +0.000 C 
ENDROOT
BRANCH  10  11
ATOM     11  C   UNL     1       2.235   6.478  19.364  0.00  0.00    +0.000 A 
ATOM     12  C   UNL     1       1.928   6.439  20.707  0.00  0.00    +0.000 A 
ATOM     13  N   UNL     1       1.609   7.727  21.038  0.00  0.00    +0.000 N 
ATOM     14  C   UNL     1       1.737   8.486  19.911  0.00  0.00    +0.000 A 
ATOM     15  N   UNL     1       2.126   7.762  18.888  0.00  0.00    +0.000 NA
ATOM     16  H   UNL     1       1.322   8.062  21.948  0.00  0.00    +0.000 HD
ENDBRANCH  10  11
BRANCH   1  18
ATOM     17  C   UNL     1       7.246   4.820  13.921  0.00  0.00    +0.000 C 
ATOM     18  O   UNL     1       7.240   5.517  15.160  0.00  0.00    +0.000 OA
ENDBRANCH   1  18
TORSDOF 2
ENDMDL
MODEL 9
REMARK VINA RESULT:      -6.5      2.030      2.725
REMARK  Name = 
REMARK  3 active torsions:
REMARK  status: ('A' for Active; 'I' for Inactive)
REMARK    1  A    between atoms: C_1  and  O_2
REMARK    2  A    between atoms: O_2  and  C_3
REMARK    3  A    between atoms: C_12  and  C_13
REMARK                            x       y       z     vdW  Elec       q    Type
REMARK                         _______ _______ _______ _____ _____    ______ ____
ROOT
ATOM      1  C   UNL     1       3.178   3.849  18.860  0.00  0.00    +0.000 A 
ATOM      2  C   UNL     1       3.127   3.706  17.476  0.00  0.00    +0.000 A 
ATOM      3  C   UNL     1       4.193   4.125  16.674  0.00  0.00    +0.000 A 
ATOM      4  C   UNL     1       5.349   4.694  17.232  0.00  0.00    +0.000 A 
ATOM      5  C   UNL     1       5.381   4.859  18.633  0.00  0.00    +0.000 A 
ATOM      6  C   UNL     1       4.307   4.429  19.436  0.00  0.00    +0.000 A 
ATOM      7  C   UNL     1       6.607   5.429  19.296  0.00  0.00    +0.000 C 
ATOM      8  C   UNL     1       7.340   6.408  18.390  0.00  0.00    +0.000 C 
ATOM      9  C   UNL     1       7.411   5.940  16.968  0.00  0.00    +0.000 C 
ATOM     10  C   UNL     1       6.509   5.122  16.377  0.00  0.00    +0.000 C 
ENDROOT
BRANCH  10  11
ATOM     11  C   UNL     1       6.686   4.745  14.993  0.00  0.00    +0.000 A 
ATOM     12  C   UNL     1       6.094   3.696  14.322  0.00  0.00    +0.000 A 
ATOM     13  N   UNL     1       6.598   3.755  13.051  0.00  0.00    +0.000 N 
ATOM     14  C   UNL     1       7.453   4.818  12.996  0.00  0.00    +0.000 A 
ATOM     15  N   UNL     1       7.516   5.442  14.149  0.00  0.00    +0.000 NA
ATOM     16  H   UNL     1       6.387   3.125  12.290  0.00  0.00    +0.000 HD
ENDBRANCH  10  11
BRANCH   1  18
ATOM     17  C   UNL     1       1.074   2.755  18.751  0.00  0.00    +0.000 C 
ATOM     18  O   UNL     1       2.079   3.389  19.531  0.00  0.00    +0.000 OA
ENDBRANCH   1  18
TORSDOF 2
ENDMDL
