MODEL 1
REMARK VINA RESULT:      -7.9      0.000      0.000
REMARK  Name = 
REMARK  5 active torsions:
REMARK  status: ('A' for Active; 'I' for Inactive)
REMARK    1  A    between atoms: O_1  and  C_2
REMARK    2  A    between atoms: C_2  and  CA_3
REMARK    3  A    between atoms: C_8  and  C_9
REMARK    4  A    between atoms: N_21  and  C_22
REMARK    5  A    between atoms: C_22  and  C_23
REMARK                            x       y       z     vdW  Elec       q    Type
REMARK                         _______ _______ _______ _____ _____    ______ ____
ROOT
ATOM      1  CA  UNL     1       6.218   4.056  16.041  0.00  0.00    +0.000 C 
ATOM      2  N   UNL     1       5.046   3.800  16.874  0.00  0.00    +0.000 N 
ATOM      3  C   UNL     1       4.395   4.870  17.483  0.00  0.00    +0.000 A 
ATOM      4  C   UNL     1       3.139   4.642  18.058  0.00  0.00    +0.000 A 
ATOM      5  C   UNL     1       2.365   5.701  18.537  0.00  0.00    +0.000 A 
ATOM      6  C   UNL     1       2.838   7.010  18.445  0.00  0.00    +0.000 A 
ATOM      7  C   UNL     1       4.105   7.245  17.903  0.00  0.00    +0.000 A 
ATOM      8  C   UNL     1       4.899   6.181  17.434  0.00  0.00    +0.000 A 
ATOM      9  C   UNL     1       6.283   6.463  16.869  0.00  0.00    +0.000 C 
ATOM     10  C   UNL     1       7.075   5.186  16.608  0.00  0.00    +0.000 C 
ATOM     11  C   UNL     1       7.698   4.876  17.962  0.00  0.00    +0.000 C 
ATOM     12  C   UNL     1       7.986   6.252  18.537  0.00  0.00    +0.000 C 
ATOM     13  N   UNL     1       7.119   7.220  17.837  0.00  0.00    +0.000 NA
ATOM     14  H   UNL     1       5.031   2.930  17.396  0.00  0.00    +0.000 HD
ENDROOT
BRANCH   6  15
ATOM     15  C   UNL     1       1.997   8.132  18.871  0.00  0.00    +0.000 C 
ATOM     16  C   UNL     1       1.571   8.198  20.144  0.00  0.00    +0.000 C 
ATOM     17  C   UNL     1       0.688   9.298  20.654  0.00  0.00    +0.000 C 
ATOM     18  C   UNL     1       0.069  10.137  19.535  0.00  0.00    +0.000 C 
ATOM     19  C   UNL     1       1.094  10.455  18.450  0.00  0.00    +0.000 C 
ATOM     20  C   UNL     1       1.665   9.172  17.835  0.00  0.00    +0.000 C 
ENDBRANCH   6  15
BRANCH   1  21
ATOM     21  C   UNL     1       5.740   4.327  14.596  0.00  0.00    +0.000 C 
BRANCH  21  22
ATOM     22  O   UNL     1       6.292   3.389  13.677  0.00  0.00    +0.000 OA
ATOM     23  H   UNL     1       5.577   3.158  13.058  0.00  0.00    +0.000 HD
ENDBRANCH  21  22
ENDBRANCH   1  21
BRANCH  13  24
ATOM     24  C   UNL     1       7.901   8.282  17.172  0.00  0.00    +0.000 C 
BRANCH  24  25
ATOM     25  C   UNL     1       8.423   9.343  18.118  0.00  0.00    +0.000 A 
ATOM     26  N   UNL     1       8.988   9.082  19.281  0.00  0.00    +0.000 NA
ATOM     27  C   UNL     1       9.306  10.263  19.923  0.00  0.00    +0.000 A 
ATOM     28  C   UNL     1       8.986  11.416  19.241  0.00  0.00    +0.000 A 
ATOM     29  S   UNL     1       8.285  11.017  17.728  0.00  0.00    +0.000 S 
ENDBRANCH  24  25
ENDBRANCH  13  24
TORSDOF 5
ENDMDL
MODEL 2
REMARK VINA RESULT:      -7.8      7.030      9.945
REMARK  Name = 
REMARK  5 active torsions:
REMARK  status: ('A' for Active; 'I' for Inactive)
REMARK    1  A    between atoms: O_1  and  C_2
REMARK    2  A    between atoms: C_2  and  CA_3
REMARK    3  A    between atoms: C_8  and  C_9
REMARK    4  A    between atoms: N_21  and  C_22
REMARK    5  A    between atoms: C_22  and  C_23
REMARK                            x       y       z     vdW  Elec       q    Type
REMARK                         _______ _______ _______ _____ _____    ______ ____
ROOT
ATOM      1  CA  UNL     1       1.306  10.926  18.997  0.00  0.00    +0.000 C 
ATOM      2  N   UNL     1       0.354  10.335  18.061  0.00  0.00    +0.000 N 
ATOM      3  C   UNL     1      -1.005  10.602  18.211  0.00  0.00    +0.000 A 
ATOM      4  C   UNL     1      -1.871  10.246  17.169  0.00  0.00    +0.000 A 
ATOM      5  C   UNL     1      -3.212  10.632  17.186  0.00  0.00    +0.000 A 
ATOM      6  C   UNL     1      -3.710  11.386  18.249  0.00  0.00    +0.000 A 
ATOM      7  C   UNL     1      -2.862  11.718  19.310  0.00  0.00    +0.000 A 
ATOM      8  C   UNL     1      -1.512  11.318  19.309  0.00  0.00    +0.000 A 
ATOM      9  C   UNL     1      -0.618  11.675  20.487  0.00  0.00    +0.000 C 
ATOM     10  C   UNL     1       0.741  10.985  20.414  0.00  0.00    +0.000 C 
ATOM     11  C   UNL     1       0.477   9.621  21.037  0.00  0.00    +0.000 C 
ATOM     12  C   UNL     1      -0.548   9.922  22.115  0.00  0.00    +0.000 C 
ATOM     13  N   UNL     1      -1.199  11.202  21.770  0.00  0.00    +0.000 NA
ATOM     14  H   UNL     1       0.576   9.415  17.694  0.00  0.00    +0.000 HD
ENDROOT
BRANCH   6  15
ATOM     15  C   UNL     1      -5.095  11.863  18.233  0.00  0.00    +0.000 C 
ATOM     16  C   UNL     1      -5.599  12.402  17.110  0.00  0.00    +0.000 C 
ATOM     17  C   UNL     1      -6.997  12.937  17.016  0.00  0.00    +0.000 C 
ATOM     18  C   UNL     1      -7.669  13.101  18.380  0.00  0.00    +0.000 C 
ATOM     19  C   UNL     1      -7.395  11.899  19.279  0.00  0.00    +0.000 C 
ATOM     20  C   UNL     1      -5.891  11.703  19.500  0.00  0.00    +0.000 C 
ENDBRANCH   6  15
BRANCH   1  21
ATOM     21  C   UNL     1       1.725  12.313  18.455  0.00  0.00    +0.000 C 
BRANCH  21  22
ATOM     22  O   UNL     1       2.579  12.196  17.321  0.00  0.00    +0.000 OA
ATOM     23  H   UNL     1       2.363  12.944  16.736  0.00  0.00    +0.000 HD
ENDBRANCH  21  22
ENDBRANCH   1  21
BRANCH  13  24
ATOM     24  C   UNL     1      -1.046  12.206  22.843  0.00  0.00    +0.000 C 
BRANCH  24  25
ATOM     25  C   UNL     1      -2.358  12.768  23.349  0.00  0.00    +0.000 A 
ATOM     26  N   UNL     1      -3.363  12.027  23.776  0.00  0.00    +0.000 NA
ATOM     27  C   UNL     1      -4.429  12.835  24.119  0.00  0.00    +0.000 A 
ATOM     28  C   UNL     1      -4.226  14.188  23.955  0.00  0.00    +0.000 A 
ATOM     29  S   UNL     1      -2.636  14.469  23.378  0.00  0.00    +0.000 S 
ENDBRANCH  24  25
ENDBRANCH  13  24
TORSDOF 5
ENDMDL
MODEL 3
REMARK VINA RESULT:      -7.6      6.787      9.700
REMARK  Name = 
REMARK  5 active torsions:
REMARK  status: ('A' for Active; 'I' for Inactive)
REMARK    1  A    between atoms: O_1  and  C_2
REMARK    2  A    between atoms: C_2  and  CA_3
REMARK    3  A    between atoms: C_8  and  C_9
REMARK    4  A    between atoms: N_21  and  C_22
REMARK    5  A    between atoms: C_22  and  C_23
REMARK                            x       y       z     vdW  Elec       q    Type
REMARK                         _______ _______ _______ _____ _____    ______ ____
ROOT
ATOM      1  CA  UNL     1       1.369  10.587  18.894  0.00  0.00    +0.000 C 
ATOM      2  N   UNL     1       0.352  10.093  17.969  0.00  0.00    +0.000 N 
ATOM      3  C   UNL     1      -0.976  10.470  18.151  0.00  0.00    +0.000 A 
ATOM      4  C   UNL     1      -1.889  10.205  17.122  0.00  0.00    +0.000 A 
ATOM      5  C   UNL     1      -3.192  10.702  17.172  0.00  0.00    +0.000 A 
ATOM      6  C   UNL     1      -3.604  11.477  18.257  0.00  0.00    +0.000 A 
ATOM      7  C   UNL     1      -2.712  11.719  19.305  0.00  0.00    +0.000 A 
ATOM      8  C   UNL     1      -1.400  11.207  19.270  0.00  0.00    +0.000 A 
ATOM      9  C   UNL     1      -0.456  11.468  20.435  0.00  0.00    +0.000 C 
ATOM     10  C   UNL     1       0.838  10.669  20.323  0.00  0.00    +0.000 C 
ATOM     11  C   UNL     1       0.472   9.321  20.930  0.00  0.00    +0.000 C 
ATOM     12  C   UNL     1      -0.503   9.689  22.035  0.00  0.00    +0.000 C 
ATOM     13  N   UNL     1      -1.050  11.024  21.722  0.00  0.00    +0.000 NA
ATOM     14  H   UNL     1       0.489   9.164  17.584  0.00  0.00    +0.000 HD
ENDROOT
BRANCH   6  15
ATOM     15  C   UNL     1      -4.945  12.069  18.276  0.00  0.00    +0.000 C 
ATOM     16  C   UNL     1      -5.504  12.409  19.450  0.00  0.00    +0.000 C 
ATOM     17  C   UNL     1      -6.880  12.997  19.559  0.00  0.00    +0.000 C 
ATOM     18  C   UNL     1      -7.689  12.871  18.267  0.00  0.00    +0.000 C 
ATOM     19  C   UNL     1      -6.838  13.205  17.046  0.00  0.00    +0.000 C 
ATOM     20  C   UNL     1      -5.622  12.276  16.948  0.00  0.00    +0.000 C 
ENDBRANCH   6  15
BRANCH   1  21
ATOM     21  C   UNL     1       1.892  11.942  18.365  0.00  0.00    +0.000 C 
BRANCH  21  22
ATOM     22  O   UNL     1       2.634  11.783  17.159  0.00  0.00    +0.000 OA
ATOM     23  H   UNL     1       3.487  12.231  17.300  0.00  0.00    +0.000 HD
ENDBRANCH  21  22
ENDBRANCH   1  21
BRANCH  13  24
ATOM     24  C   UNL     1      -0.793  11.994  22.807  0.00  0.00    +0.000 C 
BRANCH  24  25
ATOM     25  C   UNL     1      -2.047  12.621  23.379  0.00  0.00    +0.000 A 
ATOM     26  N   UNL     1      -3.174  11.965  23.582  0.00  0.00    +0.000 NA
ATOM     27  C   UNL     1      -4.139  12.829  24.063  0.00  0.00    +0.000 A 
ATOM     28  C   UNL     1      -3.737  14.137  24.228  0.00  0.00    +0.000 A 
ATOM     29  S   UNL     1      -2.085  14.294  23.794  0.00  0.00    +0.000 S 
ENDBRANCH  24  25
ENDBRANCH  13  24
TORSDOF 5
ENDMDL
MODEL 4
REMARK VINA RESULT:      -7.5      3.258      4.215
REMARK  Name = 
REMARK  5 active torsions:
REMARK  status: ('A' for Active; 'I' for Inactive)
REMARK    1  A    between atoms: O_1  and  C_2
REMARK    2  A    between atoms: C_2  and  CA_3
REMARK    3  A    between atoms: C_8  and  C_9
REMARK    4  A    between atoms: N_21  and  C_22
REMARK    5  A    between atoms: C_22  and  C_23
REMARK                            x       y       z     vdW  Elec       q    Type
REMARK                         _______ _______ _______ _____ _____    ______ ____
ROOT
ATOM      1  CA  UNL     1       3.716   2.953  18.448  0.00  0.00    +0.000 C 
ATOM      2  N   UNL     1       3.215   3.428  19.735  0.00  0.00    +0.000 N 
ATOM      3  C   UNL     1       2.846   4.764  19.872  0.00  0.00    +0.000 A 
ATOM      4  C   UNL     1       2.134   5.142  21.017  0.00  0.00    +0.000 A 
ATOM      5  C   UNL     1       1.595   6.424  21.138  0.00  0.00    +0.000 A 
ATOM      6  C   UNL     1       1.760   7.351  20.109  0.00  0.00    +0.000 A 
ATOM      7  C   UNL     1       2.498   6.995  18.976  0.00  0.00    +0.000 A 
ATOM      8  C   UNL     1       3.059   5.710  18.854  0.00  0.00    +0.000 A 
ATOM      9  C   UNL     1       3.876   5.356  17.621  0.00  0.00    +0.000 C 
ATOM     10  C   UNL     1       4.577   4.007  17.755  0.00  0.00    +0.000 C 
ATOM     11  C   UNL     1       5.860   4.351  18.499  0.00  0.00    +0.000 C 
ATOM     12  C   UNL     1       6.216   5.727  17.965  0.00  0.00    +0.000 C 
ATOM     13  N   UNL     1       4.984   6.324  17.410  0.00  0.00    +0.000 NA
ATOM     14  H   UNL     1       3.601   2.998  20.569  0.00  0.00    +0.000 HD
ENDROOT
BRANCH   6  15
ATOM     15  C   UNL     1       1.127   8.671  20.194  0.00  0.00    +0.000 C 
ATOM     16  C   UNL     1       0.613   9.087  21.363  0.00  0.00    +0.000 C 
ATOM     17  C   UNL     1      -0.073  10.411  21.530  0.00  0.00    +0.000 C 
ATOM     18  C   UNL     1      -0.408  11.083  20.197  0.00  0.00    +0.000 C 
ATOM     19  C   UNL     1       0.752  10.969  19.213  0.00  0.00    +0.000 C 
ATOM     20  C   UNL     1       1.105   9.503  18.940  0.00  0.00    +0.000 C 
ENDBRANCH   6  15
BRANCH   1  21
ATOM     21  C   UNL     1       2.511   2.500  17.593  0.00  0.00    +0.000 C 
BRANCH  21  22
ATOM     22  O   UNL     1       1.593   1.719  18.352  0.00  0.00    +0.000 OA
ATOM     23  H   UNL     1       2.101   0.970  18.712  0.00  0.00    +0.000 HD
ENDBRANCH  21  22
ENDBRANCH   1  21
BRANCH  13  24
ATOM     24  C   UNL     1       5.137   6.678  15.984  0.00  0.00    +0.000 C 
BRANCH  24  25
ATOM     25  C   UNL     1       5.877   5.638  15.169  0.00  0.00    +0.000 A 
ATOM     26  N   UNL     1       7.185   5.631  14.994  0.00  0.00    +0.000 NA
ATOM     27  C   UNL     1       7.540   4.587  14.162  0.00  0.00    +0.000 A 
ATOM     28  C   UNL     1       6.500   3.803  13.715  0.00  0.00    +0.000 A 
ATOM     29  S   UNL     1       5.022   4.368  14.375  0.00  0.00    +0.000 S 
ENDBRANCH  24  25
ENDBRANCH  13  24
TORSDOF 5
ENDMDL
MODEL 5
REMARK VINA RESULT:      -7.4      3.276      4.352
REMARK  Name = 
REMARK  5 active torsions:
REMARK  status: ('A' for Active; 'I' for Inactive)
REMARK    1  A    between atoms: O_1  and  C_2
REMARK    2  A    between atoms: C_2  and  CA_3
REMARK    3  A    between atoms: C_8  and  C_9
REMARK    4  A    between atoms: N_21  and  C_22
REMARK    5  A    between atoms: C_22  and  C_23
REMARK                            x       y       z     vdW  Elec       q    Type
REMARK                         _______ _______ _______ _____ _____    ______ ____
ROOT
ATOM      1  CA  UNL     1       3.495   3.092  18.504  0.00  0.00    +0.000 C 
ATOM      2  N   UNL     1       3.008   3.601  19.783  0.00  0.00    +0.000 N 
ATOM      3  C   UNL     1       2.691   4.952  19.903  0.00  0.00    +0.000 A 
ATOM      4  C   UNL     1       1.989   5.371  21.040  0.00  0.00    +0.000 A 
ATOM      5  C   UNL     1       1.501   6.674  21.144  0.00  0.00    +0.000 A 
ATOM      6  C   UNL     1       1.707   7.583  20.105  0.00  0.00    +0.000 A 
ATOM      7  C   UNL     1       2.435   7.185  18.981  0.00  0.00    +0.000 A 
ATOM      8  C   UNL     1       2.946   5.877  18.876  0.00  0.00    +0.000 A 
ATOM      9  C   UNL     1       3.754   5.477  17.650  0.00  0.00    +0.000 C 
ATOM     10  C   UNL     1       4.400   4.103  17.804  0.00  0.00    +0.000 C 
ATOM     11  C   UNL     1       5.693   4.405  18.549  0.00  0.00    +0.000 C 
ATOM     12  C   UNL     1       6.105   5.760  18.002  0.00  0.00    +0.000 C 
ATOM     13  N   UNL     1       4.900   6.398  17.434  0.00  0.00    +0.000 NA
ATOM     14  H   UNL     1       3.372   3.166  20.624  0.00  0.00    +0.000 HD
ENDROOT
BRANCH   6  15
ATOM     15  C   UNL     1       1.126   8.927  20.172  0.00  0.00    +0.000 C 
ATOM     16  C   UNL     1       1.018   9.661  19.051  0.00  0.00    +0.000 C 
ATOM     17  C   UNL     1       0.460  11.053  19.037  0.00  0.00    +0.000 C 
ATOM     18  C   UNL     1       0.331  11.661  20.434  0.00  0.00    +0.000 C 
ATOM     19  C   UNL     1      -0.231  10.649  21.428  0.00  0.00    +0.000 C 
ATOM     20  C   UNL     1       0.664   9.408  21.521  0.00  0.00    +0.000 C 
ENDBRANCH   6  15
BRANCH   1  21
ATOM     21  C   UNL     1       2.277   2.677  17.648  0.00  0.00    +0.000 C 
BRANCH  21  22
ATOM     22  O   UNL     1       1.433   1.765  18.345  0.00  0.00    +0.000 OA
ATOM     23  H   UNL     1       0.772   2.305  18.812  0.00  0.00    +0.000 HD
ENDBRANCH  21  22
ENDBRANCH   1  21
BRANCH  13  24
ATOM     24  C   UNL     1       5.074   6.730  16.005  0.00  0.00    +0.000 C 
BRANCH  24  25
ATOM     25  C   UNL     1       5.848   5.690  15.223  0.00  0.00    +0.000 A 
ATOM     26  N   UNL     1       7.164   5.671  15.122  0.00  0.00    +0.000 NA
ATOM     27  C   UNL     1       7.556   4.631  14.302  0.00  0.00    +0.000 A 
ATOM     28  C   UNL     1       6.535   3.862  13.788  0.00  0.00    +0.000 A 
ATOM     29  S   UNL     1       5.028   4.436  14.369  0.00  0.00    +0.000 S 
ENDBRANCH  24  25
ENDBRANCH  13  24
TORSDOF 5
ENDMDL
MODEL 6
REMARK VINA RESULT:      -7.2      3.413      4.934
REMARK  Name = 
REMARK  5 active torsions:
REMARK  status: ('A' for Active; 'I' for Inactive)
REMARK    1  A    between atoms: O_1  and  C_2
REMARK    2  A    between atoms: C_2  and  CA_3
REMARK    3  A    between atoms: C_8  and  C_9
REMARK    4  A    between atoms: N_21  and  C_22
REMARK    5  A    between atoms: C_22  and  C_23
REMARK                            x       y       z     vdW  Elec       q    Type
REMARK                         _______ _______ _______ _____ _____    ______ ____
ROOT
ATOM      1  CA  UNL     1       2.551   4.528  19.780  0.00  0.00    +0.000 C 
ATOM      2  N   UNL     1       2.134   5.523  20.765  0.00  0.00    +0.000 N 
ATOM      3  C   UNL     1       1.942   6.842  20.362  0.00  0.00    +0.000 A 
ATOM      4  C   UNL     1       1.301   7.720  21.245  0.00  0.00    +0.000 A 
ATOM      5  C   UNL     1       0.934   9.004  20.842  0.00  0.00    +0.000 A 
ATOM      6  C   UNL     1       1.201   9.432  19.541  0.00  0.00    +0.000 A 
ATOM      7  C   UNL     1       1.871   8.576  18.662  0.00  0.00    +0.000 A 
ATOM      8  C   UNL     1       2.260   7.285  19.067  0.00  0.00    +0.000 A 
ATOM      9  C   UNL     1       3.007   6.382  18.096  0.00  0.00    +0.000 C 
ATOM     10  C   UNL     1       3.530   5.115  18.766  0.00  0.00    +0.000 C 
ATOM     11  C   UNL     1       4.858   5.558  19.365  0.00  0.00    +0.000 C 
ATOM     12  C   UNL     1       5.379   6.564  18.355  0.00  0.00    +0.000 C 
ATOM     13  N   UNL     1       4.227   7.047  17.568  0.00  0.00    +0.000 NA
ATOM     14  H   UNL     1       2.473   5.405  21.714  0.00  0.00    +0.000 HD
ENDROOT
BRANCH   6  15
ATOM     15  C   UNL     1       0.745  10.749  19.087  0.00  0.00    +0.000 C 
ATOM     16  C   UNL     1       1.648  11.684  18.746  0.00  0.00    +0.000 C 
ATOM     17  C   UNL     1       1.267  13.062  18.295  0.00  0.00    +0.000 C 
ATOM     18  C   UNL     1      -0.201  13.397  18.567  0.00  0.00    +0.000 C 
ATOM     19  C   UNL     1      -1.111  12.224  18.212  0.00  0.00    +0.000 C 
ATOM     20  C   UNL     1      -0.742  10.973  19.017  0.00  0.00    +0.000 C 
ENDBRANCH   6  15
BRANCH   1  21
ATOM     21  C   UNL     1       1.285   3.932  19.123  0.00  0.00    +0.000 C 
BRANCH  21  22
ATOM     22  O   UNL     1       0.433   3.320  20.087  0.00  0.00    +0.000 OA
ATOM     23  H   UNL     1       0.696   3.677  20.953  0.00  0.00    +0.000 HD
ENDBRANCH  21  22
ENDBRANCH   1  21
BRANCH  13  24
ATOM     24  C   UNL     1       4.403   6.799  16.122  0.00  0.00    +0.000 C 
BRANCH  24  25
ATOM     25  C   UNL     1       5.431   5.734  15.803  0.00  0.00    +0.000 A 
ATOM     26  N   UNL     1       6.700   5.986  15.544  0.00  0.00    +0.000 NA
ATOM     27  C   UNL     1       7.360   4.811  15.243  0.00  0.00    +0.000 A 
ATOM     28  C   UNL     1       6.588   3.669  15.282  0.00  0.00    +0.000 A 
ATOM     29  S   UNL     1       4.985   4.069  15.737  0.00  0.00    +0.000 S 
ENDBRANCH  24  25
ENDBRANCH  13  24
TORSDOF 5
ENDMDL
MODEL 7
REMARK VINA RESULT:      -7.1      8.580     12.152
REMARK  Name = 
REMARK  5 active torsions:
REMARK  status: ('A' for Active; 'I' for Inactive)
REMARK    1  A    between atoms: O_1  and  C_2
REMARK    2  A    between atoms: C_2  and  CA_3
REMARK    3  A    between atoms: C_8  and  C_9
REMARK    4  A    between atoms: N_21  and  C_22
REMARK    5  A    between atoms: C_22  and  C_23
REMARK                            x       y       z     vdW  Elec       q    Type
REMARK                         _______ _______ _______ _____ _____    ______ ____
ROOT
ATOM      1  CA  UNL     1      -6.144  13.694  23.547  0.00  0.00    +0.000 C 
ATOM      2  N   UNL     1      -6.719  13.691  22.205  0.00  0.00    +0.000 N 
ATOM      3  C   UNL     1      -5.946  13.253  21.132  0.00  0.00    +0.000 A 
ATOM      4  C   UNL     1      -6.583  13.012  19.908  0.00  0.00    +0.000 A 
ATOM      5  C   UNL     1      -5.899  12.419  18.846  0.00  0.00    +0.000 A 
ATOM      6  C   UNL     1      -4.561  12.054  18.993  0.00  0.00    +0.000 A 
ATOM      7  C   UNL     1      -3.906  12.320  20.199  0.00  0.00    +0.000 A 
ATOM      8  C   UNL     1      -4.584  12.934  21.270  0.00  0.00    +0.000 A 
ATOM      9  C   UNL     1      -3.841  13.232  22.564  0.00  0.00    +0.000 C 
ATOM     10  C   UNL     1      -4.667  14.081  23.525  0.00  0.00    +0.000 C 
ATOM     11  C   UNL     1      -4.402  15.504  23.053  0.00  0.00    +0.000 C 
ATOM     12  C   UNL     1      -2.957  15.456  22.591  0.00  0.00    +0.000 C 
ATOM     13  N   UNL     1      -2.623  14.045  22.313  0.00  0.00    +0.000 NA
ATOM     14  H   UNL     1      -7.388  14.422  21.986  0.00  0.00    +0.000 HD
ENDROOT
BRANCH   6  15
ATOM     15  C   UNL     1      -3.861  11.357  17.911  0.00  0.00    +0.000 C 
ATOM     16  C   UNL     1      -4.274  11.516  16.642  0.00  0.00    +0.000 C 
ATOM     17  C   UNL     1      -3.630  10.820  15.479  0.00  0.00    +0.000 C 
ATOM     18  C   UNL     1      -2.689   9.691  15.904  0.00  0.00    +0.000 C 
ATOM     19  C   UNL     1      -1.823  10.108  17.088  0.00  0.00    +0.000 C 
ATOM     20  C   UNL     1      -2.685  10.499  18.294  0.00  0.00    +0.000 C 
ENDBRANCH   6  15
BRANCH   1  21
ATOM     21  C   UNL     1      -6.397  12.311  24.189  0.00  0.00    +0.000 C 
BRANCH  21  22
ATOM     22  O   UNL     1      -7.643  11.760  23.774  0.00  0.00    +0.000 OA
ATOM     23  H   UNL     1      -7.936  11.170  24.491  0.00  0.00    +0.000 HD
ENDBRANCH  21  22
ENDBRANCH   1  21
BRANCH  13  24
ATOM     24  C   UNL     1      -1.477  13.579  23.122  0.00  0.00    +0.000 C 
BRANCH  24  25
ATOM     25  C   UNL     1      -0.715  12.427  22.500  0.00  0.00    +0.000 A 
ATOM     26  N   UNL     1       0.223  12.573  21.584  0.00  0.00    +0.000 NA
ATOM     27  C   UNL     1       0.686  11.334  21.186  0.00  0.00    +0.000 A 
ATOM     28  C   UNL     1       0.101  10.253  21.808  0.00  0.00    +0.000 A 
ATOM     29  S   UNL     1      -1.053  10.798  22.953  0.00  0.00    +0.000 S 
ENDBRANCH  24  25
ENDBRANCH  13  24
TORSDOF 5
ENDMDL
MODEL 8
REMARK VINA RESULT:      -7.1      3.189      4.344
REMARK  Name = 
REMARK  5 active torsions:
REMARK  status: ('A' for Active; 'I' for Inactive)
REMARK    1  A    between atoms: O_1  and  C_2
REMARK    2  A    between atoms: C_2  and  CA_3
REMARK    3  A    between atoms: C_8  and  C_9
REMARK    4  A    between atoms: N_21  and  C_22
REMARK    5  A    between atoms: C_22  and  C_23
REMARK                            x       y       z     vdW  Elec       q    Type
REMARK                         _______ _______ _______ _____ _____    ______ ____
ROOT
ATOM      1  CA  UNL     1       2.983   3.751  18.911  0.00  0.00    +0.000 C 
ATOM      2  N   UNL     1       2.490   4.448  20.096  0.00  0.00    +0.000 N 
ATOM      3  C   UNL     1       2.257   5.819  20.034  0.00  0.00    +0.000 A 
ATOM      4  C   UNL     1       1.549   6.421  21.081  0.00  0.00    +0.000 A 
ATOM      5  C   UNL     1       1.143   7.754  21.001  0.00  0.00    +0.000 A 
ATOM      6  C   UNL     1       1.438   8.509  19.865  0.00  0.00    +0.000 A 
ATOM      7  C   UNL     1       2.174   7.927  18.829  0.00  0.00    +0.000 A 
ATOM      8  C   UNL     1       2.602   6.588  18.909  0.00  0.00    +0.000 A 
ATOM      9  C   UNL     1       3.420   5.988  17.775  0.00  0.00    +0.000 C 
ATOM     10  C   UNL     1       3.972   4.609  18.124  0.00  0.00    +0.000 C 
ATOM     11  C   UNL     1       5.258   4.925  18.875  0.00  0.00    +0.000 C 
ATOM     12  C   UNL     1       5.772   6.172  18.179  0.00  0.00    +0.000 C 
ATOM     13  N   UNL     1       4.629   6.803  17.489  0.00  0.00    +0.000 NA
ATOM     14  H   UNL     1       2.800   4.102  20.998  0.00  0.00    +0.000 HD
ENDROOT
BRANCH   6  15
ATOM     15  C   UNL     1       0.944   9.883  19.741  0.00  0.00    +0.000 C 
ATOM     16  C   UNL     1       0.058  10.353  20.635  0.00  0.00    +0.000 C 
ATOM     17  C   UNL     1      -0.516  11.738  20.565  0.00  0.00    +0.000 C 
ATOM     18  C   UNL     1      -0.250  12.430  19.227  0.00  0.00    +0.000 C 
ATOM     19  C   UNL     1       1.185  12.200  18.761  0.00  0.00    +0.000 C 
ATOM     20  C   UNL     1       1.482  10.705  18.600  0.00  0.00    +0.000 C 
ENDBRANCH   6  15
BRANCH   1  21
ATOM     21  C   UNL     1       1.767   3.304  18.067  0.00  0.00    +0.000 C 
BRANCH  21  22
ATOM     22  O   UNL     1       1.860   1.930  17.702  0.00  0.00    +0.000 OA
ATOM     23  H   UNL     1       1.142   1.471  18.174  0.00  0.00    +0.000 HD
ENDBRANCH  21  22
ENDBRANCH   1  21
BRANCH  13  24
ATOM     24  C   UNL     1       4.867   6.939  16.037  0.00  0.00    +0.000 C 
BRANCH  24  25
ATOM     25  C   UNL     1       5.722   5.836  15.449  0.00  0.00    +0.000 A 
ATOM     26  N   UNL     1       7.041   5.841  15.458  0.00  0.00    +0.000 NA
ATOM     27  C   UNL     1       7.518   4.723  14.801  0.00  0.00    +0.000 A 
ATOM     28  C   UNL     1       6.557   3.871  14.303  0.00  0.00    +0.000 A 
ATOM     29  S   UNL     1       4.997   4.468  14.689  0.00  0.00    +0.000 S 
ENDBRANCH  24  25
ENDBRANCH  13  24
TORSDOF 5
ENDMDL
MODEL 9
REMARK VINA RESULT:      -7.0      9.150     12.714
REMARK  Name = 
REMARK  5 active torsions:
REMARK  status: ('A' for Active; 'I' for Inactive)
REMARK    1  A    between atoms: O_1  and  C_2
REMARK    2  A    between atoms: C_2  and  CA_3
REMARK    3  A    between atoms: C_8  and  C_9
REMARK    4  A    between atoms: N_21  and  C_22
REMARK    5  A    between atoms: C_22  and  C_23
REMARK                            x       y       z     vdW  Elec       q    Type
REMARK                         _______ _______ _______ _____ _____    ______ ____
ROOT
ATOM      1  CA  UNL     1      -7.593  13.447  22.456  0.00  0.00    +0.000 C 
ATOM      2  N   UNL     1      -7.911  13.346  21.035  0.00  0.00    +0.000 N 
ATOM      3  C   UNL     1      -6.916  12.968  20.138  0.00  0.00    +0.000 A 
ATOM      4  C   UNL     1      -7.292  12.628  18.832  0.00  0.00    +0.000 A 
ATOM      5  C   UNL     1      -6.369  12.085  17.937  0.00  0.00    +0.000 A 
ATOM      6  C   UNL     1      -5.050  11.872  18.336  0.00  0.00    +0.000 A 
ATOM      7  C   UNL     1      -4.655  12.239  19.625  0.00  0.00    +0.000 A 
ATOM      8  C   UNL     1      -5.576  12.803  20.530  0.00  0.00    +0.000 A 
ATOM      9  C   UNL     1      -5.115  13.213  21.920  0.00  0.00    +0.000 C 
ATOM     10  C   UNL     1      -6.184  13.992  22.680  0.00  0.00    +0.000 C 
ATOM     11  C   UNL     1      -5.985  15.423  22.200  0.00  0.00    +0.000 C 
ATOM     12  C   UNL     1      -4.483  15.520  22.004  0.00  0.00    +0.000 C 
ATOM     13  N   UNL     1      -3.961  14.147  21.854  0.00  0.00    +0.000 NA
ATOM     14  H   UNL     1      -8.601  13.995  20.668  0.00  0.00    +0.000 HD
ENDROOT
BRANCH   6  15
ATOM     15  C   UNL     1      -4.097  11.228  17.427  0.00  0.00    +0.000 C 
ATOM     16  C   UNL     1      -4.217  11.410  16.101  0.00  0.00    +0.000 C 
ATOM     17  C   UNL     1      -3.300  10.767  15.102  0.00  0.00    +0.000 C 
ATOM     18  C   UNL     1      -2.440   9.656  15.707  0.00  0.00    +0.000 C 
ATOM     19  C   UNL     1      -1.883  10.064  17.066  0.00  0.00    +0.000 C 
ATOM     20  C   UNL     1      -3.010  10.394  18.051  0.00  0.00    +0.000 C 
ENDBRANCH   6  15
BRANCH   1  21
ATOM     21  C   UNL     1      -7.815  12.061  23.105  0.00  0.00    +0.000 C 
BRANCH  21  22
ATOM     22  O   UNL     1      -7.161  11.963  24.367  0.00  0.00    +0.000 OA
ATOM     23  H   UNL     1      -7.743  12.399  25.014  0.00  0.00    +0.000 HD
ENDBRANCH  21  22
ENDBRANCH   1  21
BRANCH  13  24
ATOM     24  C   UNL     1      -2.940  13.830  22.874  0.00  0.00    +0.000 C 
BRANCH  24  25
ATOM     25  C   UNL     1      -2.077  12.635  22.527  0.00  0.00    +0.000 A 
ATOM     26  N   UNL     1      -1.966  11.560  23.284  0.00  0.00    +0.000 NA
ATOM     27  C   UNL     1      -1.067  10.677  22.717  0.00  0.00    +0.000 A 
ATOM     28  C   UNL     1      -0.505  11.085  21.527  0.00  0.00    +0.000 A 
ATOM     29  S   UNL     1      -1.138  12.614  21.081  0.00  0.00    +0.000 S 
ENDBRANCH  24  25
ENDBRANCH  13  24
TORSDOF 5
ENDMDL
