MODEL 1
REMARK VINA RESULT:      -8.4      0.000      0.000
REMARK  Name = 
REMARK  4 active torsions:
REMARK  status: ('A' for Active; 'I' for Inactive)
REMARK    1  A    between atoms: C_2  and  O_3
REMARK    2  A    between atoms: C_2  and  C_4
REMARK    3  A    between atoms: C_4  and  N_5
REMARK    4  A    between atoms: C_6  and  C_7
REMARK                            x       y       z     vdW  Elec       q    Type
REMARK                         _______ _______ _______ _____ _____    ______ ____
ROOT
ATOM      1  N   UNL     1       3.106   5.608  18.732  0.00  0.00    +0.000 N 
ATOM      2  C   UNL     1       2.870   6.969  18.644  0.00  0.00    +0.000 A 
ATOM      3  C   UNL     1       3.638   7.436  17.593  0.00  0.00    +0.000 A 
ATOM      4  C   UNL     1       4.320   6.337  17.002  0.00  0.00    +0.000 A 
ATOM      5  C   UNL     1       5.208   6.211  15.914  0.00  0.00    +0.000 A 
ATOM      6  C   UNL     1       5.700   4.943  15.582  0.00  0.00    +0.000 A 
ATOM      7 BR   UNL     1       6.898   4.761  14.130  0.00  0.00    +0.000 Br
ATOM      8  C   UNL     1       5.320   3.813  16.299  0.00  0.00    +0.000 A 
ATOM      9  C   UNL     1       4.442   3.921  17.381  0.00  0.00    +0.000 A 
ATOM     10  C   UNL     1       3.960   5.197  17.719  0.00  0.00    +0.000 A 
ENDROOT
BRANCH   2  11
ATOM     11  C   UNL     1       2.007   7.720  19.515  0.00  0.00    +0.000 A 
ATOM     12  C   UNL     1       1.639   7.507  20.829  0.00  0.00    +0.000 A 
ATOM     13  C   UNL     1       0.886   8.625  21.273  0.00  0.00    +0.000 A 
ATOM     14  C   UNL     1       0.343   8.996  22.518  0.00  0.00    +0.000 A 
ATOM     15  C   UNL     1      -0.341  10.211  22.629  0.00  0.00    +0.000 A 
ATOM     16  C   UNL     1      -0.499  11.031  21.514  0.00  0.00    +0.000 A 
ATOM     17 BR   UNL     1      -1.426  12.672  21.700  0.00  0.00    +0.000 Br
ATOM     18  C   UNL     1       0.020  10.678  20.261  0.00  0.00    +0.000 A 
ATOM     19  C   UNL     1       0.722   9.469  20.179  0.00  0.00    +0.000 A 
ATOM     20  N   UNL     1       1.369   8.875  19.115  0.00  0.00    +0.000 N 
ATOM     21  H   UNL     1       1.425   9.272  18.188  0.00  0.00    +0.000 HD
ENDBRANCH   2  11
BRANCH   1  22
ATOM     22  C   UNL     1       2.557   4.693  19.725  0.00  0.00    +0.000 C 
BRANCH  22  24
ATOM     23  O   UNL     1       1.085   3.711  18.116  0.00  0.00    +0.000 OA
ATOM     24  C   UNL     1       1.297   3.981  19.295  0.00  0.00    +0.000 C 
BRANCH  24  25
ATOM     25  O   UNL     1       0.412   3.625  20.250  0.00  0.00    +0.000 OA
ATOM     26  H   UNL     1      -0.244   4.299  20.517  0.00  0.00    +0.000 HD
ENDBRANCH  24  25
ENDBRANCH  22  24
ENDBRANCH   1  22
TORSDOF 4
ENDMDL
MODEL 2
REMARK VINA RESULT:      -7.3      4.268      6.494
REMARK  Name = 
REMARK  4 active torsions:
REMARK  status: ('A' for Active; 'I' for Inactive)
REMARK    1  A    between atoms: C_2  and  O_3
REMARK    2  A    between atoms: C_2  and  C_4
REMARK    3  A    between atoms: C_4  and  N_5
REMARK    4  A    between atoms: C_6  and  C_7
REMARK                            x       y       z     vdW  Elec       q    Type
REMARK                         _______ _______ _______ _____ _____    ______ ____
ROOT
ATOM      1  N   UNL     1       0.113  11.119  19.910  0.00  0.00    +0.000 N 
ATOM      2  C   UNL     1      -0.182  11.012  21.257  0.00  0.00    +0.000 A 
ATOM      3  C   UNL     1       0.316   9.791  21.676  0.00  0.00    +0.000 A 
ATOM      4  C   UNL     1       0.964   9.163  20.577  0.00  0.00    +0.000 A 
ATOM      5  C   UNL     1       1.652   7.942  20.418  0.00  0.00    +0.000 A 
ATOM      6  C   UNL     1       2.195   7.626  19.167  0.00  0.00    +0.000 A 
ATOM      7 BR   UNL     1       3.113   5.987  18.939  0.00  0.00    +0.000 Br
ATOM      8  C   UNL     1       2.076   8.497  18.090  0.00  0.00    +0.000 A 
ATOM      9  C   UNL     1       1.397   9.710  18.229  0.00  0.00    +0.000 A 
ATOM     10  C   UNL     1       0.842  10.019  19.483  0.00  0.00    +0.000 A 
ENDROOT
BRANCH   2  11
ATOM     11  C   UNL     1      -0.897  11.991  22.031  0.00  0.00    +0.000 A 
ATOM     12  C   UNL     1      -2.166  11.965  22.576  0.00  0.00    +0.000 A 
ATOM     13  C   UNL     1      -2.337  13.123  23.378  0.00  0.00    +0.000 A 
ATOM     14  C   UNL     1      -3.365  13.571  24.228  0.00  0.00    +0.000 A 
ATOM     15  C   UNL     1      -3.206  14.780  24.913  0.00  0.00    +0.000 A 
ATOM     16  C   UNL     1      -2.051  15.538  24.737  0.00  0.00    +0.000 A 
ATOM     17 BR   UNL     1      -1.865  17.168  25.684  0.00  0.00    +0.000 Br
ATOM     18  C   UNL     1      -1.019  15.122  23.886  0.00  0.00    +0.000 A 
ATOM     19  C   UNL     1      -1.189  13.896  23.229  0.00  0.00    +0.000 A 
ATOM     20  N   UNL     1      -0.354  13.212  22.371  0.00  0.00    +0.000 N 
ATOM     21  H   UNL     1       0.562  13.533  22.090  0.00  0.00    +0.000 HD
ENDBRANCH   2  11
BRANCH   1  22
ATOM     22  C   UNL     1      -0.261  12.214  19.023  0.00  0.00    +0.000 C 
BRANCH  22  24
ATOM     23  O   UNL     1      -2.578  11.635  18.888  0.00  0.00    +0.000 OA
ATOM     24  C   UNL     1      -1.570  12.017  18.298  0.00  0.00    +0.000 C 
BRANCH  24  25
ATOM     25  O   UNL     1      -1.612  12.293  16.977  0.00  0.00    +0.000 OA
ATOM     26  H   UNL     1      -1.783  11.541  16.374  0.00  0.00    +0.000 HD
ENDBRANCH  24  25
ENDBRANCH  22  24
ENDBRANCH   1  22
TORSDOF 4
ENDMDL
MODEL 3
REMARK VINA RESULT:      -7.3      2.985      7.717
REMARK  Name = 
REMARK  4 active torsions:
REMARK  status: ('A' for Active; 'I' for Inactive)
REMARK    1  A    between atoms: C_2  and  O_3
REMARK    2  A    between atoms: C_2  and  C_4
REMARK    3  A    between atoms: C_4  and  N_5
REMARK    4  A    between atoms: C_6  and  C_7
REMARK                            x       y       z     vdW  Elec       q    Type
REMARK                         _______ _______ _______ _____ _____    ______ ____
ROOT
ATOM      1  N   UNL     1       0.546  10.128  20.288  0.00  0.00    +0.000 N 
ATOM      2  C   UNL     1       1.339   9.774  19.211  0.00  0.00    +0.000 A 
ATOM      3  C   UNL     1       1.480  10.910  18.434  0.00  0.00    +0.000 A 
ATOM      4  C   UNL     1       0.799  11.984  19.069  0.00  0.00    +0.000 A 
ATOM      5  C   UNL     1       0.619  13.347  18.754  0.00  0.00    +0.000 A 
ATOM      6  C   UNL     1      -0.119  14.154  19.628  0.00  0.00    +0.000 A 
ATOM      7 BR   UNL     1      -0.375  15.982  19.213  0.00  0.00    +0.000 Br
ATOM      8  C   UNL     1      -0.665  13.637  20.798  0.00  0.00    +0.000 A 
ATOM      9  C   UNL     1      -0.497  12.289  21.125  0.00  0.00    +0.000 A 
ATOM     10  C   UNL     1       0.234  11.479  20.239  0.00  0.00    +0.000 A 
ENDROOT
BRANCH   2  11
ATOM     11  C   UNL     1       1.871   8.461  18.968  0.00  0.00    +0.000 A 
ATOM     12  C   UNL     1       2.478   7.921  17.851  0.00  0.00    +0.000 A 
ATOM     13  C   UNL     1       2.957   6.626  18.178  0.00  0.00    +0.000 A 
ATOM     14  C   UNL     1       3.720   5.670  17.482  0.00  0.00    +0.000 A 
ATOM     15  C   UNL     1       4.053   4.469  18.118  0.00  0.00    +0.000 A 
ATOM     16  C   UNL     1       3.617   4.219  19.416  0.00  0.00    +0.000 A 
ATOM     17 BR   UNL     1       4.090   2.586  20.249  0.00  0.00    +0.000 Br
ATOM     18  C   UNL     1       2.844   5.148  20.126  0.00  0.00    +0.000 A 
ATOM     19  C   UNL     1       2.543   6.354  19.478  0.00  0.00    +0.000 A 
ATOM     20  N   UNL     1       1.845   7.460  19.916  0.00  0.00    +0.000 N 
ATOM     21  H   UNL     1       1.436   7.549  20.836  0.00  0.00    +0.000 HD
ENDBRANCH   2  11
BRANCH   1  22
ATOM     22  C   UNL     1       0.080   9.246  21.351  0.00  0.00    +0.000 C 
BRANCH  22  24
ATOM     23  O   UNL     1       0.256   9.714  23.691  0.00  0.00    +0.000 OA
ATOM     24  C   UNL     1       0.828   9.384  22.655  0.00  0.00    +0.000 C 
BRANCH  24  25
ATOM     25  O   UNL     1       2.151   9.113  22.660  0.00  0.00    +0.000 OA
ATOM     26  H   UNL     1       2.435   8.307  23.135  0.00  0.00    +0.000 HD
ENDBRANCH  24  25
ENDBRANCH  22  24
ENDBRANCH   1  22
TORSDOF 4
ENDMDL
MODEL 4
REMARK VINA RESULT:      -7.3      2.948      4.449
REMARK  Name = 
REMARK  4 active torsions:
REMARK  status: ('A' for Active; 'I' for Inactive)
REMARK    1  A    between atoms: C_2  and  O_3
REMARK    2  A    between atoms: C_2  and  C_4
REMARK    3  A    between atoms: C_4  and  N_5
REMARK    4  A    between atoms: C_6  and  C_7
REMARK                            x       y       z     vdW  Elec       q    Type
REMARK                         _______ _______ _______ _____ _____    ______ ____
ROOT
ATOM      1  N   UNL     1       1.106   8.678  20.092  0.00  0.00    +0.000 N 
ATOM      2  C   UNL     1       0.850   9.766  19.275  0.00  0.00    +0.000 A 
ATOM      3  C   UNL     1       1.635   9.606  18.147  0.00  0.00    +0.000 A 
ATOM      4  C   UNL     1       2.348   8.380  18.258  0.00  0.00    +0.000 A 
ATOM      5  C   UNL     1       3.263   7.705  17.424  0.00  0.00    +0.000 A 
ATOM      6  C   UNL     1       3.782   6.474  17.841  0.00  0.00    +0.000 A 
ATOM      7 BR   UNL     1       5.016   5.562  16.735  0.00  0.00    +0.000 Br
ATOM      8  C   UNL     1       3.403   5.906  19.053  0.00  0.00    +0.000 A 
ATOM      9  C   UNL     1       2.499   6.562  19.892  0.00  0.00    +0.000 A 
ATOM     10  C   UNL     1       1.989   7.804  19.476  0.00  0.00    +0.000 A 
ENDROOT
BRANCH   2  11
ATOM     11  C   UNL     1      -0.044  10.847  19.588  0.00  0.00    +0.000 A 
ATOM     12  C   UNL     1      -1.390  11.015  19.328  0.00  0.00    +0.000 A 
ATOM     13  C   UNL     1      -1.832  12.194  19.981  0.00  0.00    +0.000 A 
ATOM     14  C   UNL     1      -3.094  12.798  20.143  0.00  0.00    +0.000 A 
ATOM     15  C   UNL     1      -3.194  13.978  20.887  0.00  0.00    +0.000 A 
ATOM     16  C   UNL     1      -2.056  14.556  21.443  0.00  0.00    +0.000 A 
ATOM     17 BR   UNL     1      -2.228  16.150  22.450  0.00  0.00    +0.000 Br
ATOM     18  C   UNL     1      -0.787  13.982  21.285  0.00  0.00    +0.000 A 
ATOM     19  C   UNL     1      -0.713  12.788  20.556  0.00  0.00    +0.000 A 
ATOM     20  N   UNL     1       0.364  11.978  20.262  0.00  0.00    +0.000 N 
ATOM     21  H   UNL     1       1.312  12.158  20.566  0.00  0.00    +0.000 HD
ENDBRANCH   2  11
BRANCH   1  22
ATOM     22  C   UNL     1       0.547   8.437  21.417  0.00  0.00    +0.000 C 
BRANCH  22  24
ATOM     23  O   UNL     1       0.325  10.216  23.001  0.00  0.00    +0.000 OA
ATOM     24  C   UNL     1       1.054   9.368  22.492  0.00  0.00    +0.000 C 
BRANCH  24  25
ATOM     25  O   UNL     1       2.334   9.231  22.898  0.00  0.00    +0.000 OA
ATOM     26  H   UNL     1       2.649   8.319  23.064  0.00  0.00    +0.000 HD
ENDBRANCH  24  25
ENDBRANCH  22  24
ENDBRANCH   1  22
TORSDOF 4
ENDMDL
MODEL 5
REMARK VINA RESULT:      -7.3      1.330      1.887
REMARK  Name = 
REMARK  4 active torsions:
REMARK  status: ('A' for Active; 'I' for Inactive)
REMARK    1  A    between atoms: C_2  and  O_3
REMARK    2  A    between atoms: C_2  and  C_4
REMARK    3  A    between atoms: C_4  and  N_5
REMARK    4  A    between atoms: C_6  and  C_7
REMARK                            x       y       z     vdW  Elec       q    Type
REMARK                         _______ _______ _______ _____ _____    ______ ____
ROOT
ATOM      1  N   UNL     1       2.528   6.308  18.229  0.00  0.00    +0.000 N 
ATOM      2  C   UNL     1       2.627   7.677  18.051  0.00  0.00    +0.000 A 
ATOM      3  C   UNL     1       3.724   7.891  17.236  0.00  0.00    +0.000 A 
ATOM      4  C   UNL     1       4.277   6.632  16.875  0.00  0.00    +0.000 A 
ATOM      5  C   UNL     1       5.365   6.239  16.069  0.00  0.00    +0.000 A 
ATOM      6  C   UNL     1       5.635   4.874  15.909  0.00  0.00    +0.000 A 
ATOM      7 BR   UNL     1       7.097   4.334  14.838  0.00  0.00    +0.000 Br
ATOM      8  C   UNL     1       4.845   3.908  16.522  0.00  0.00    +0.000 A 
ATOM      9  C   UNL     1       3.763   4.280  17.325  0.00  0.00    +0.000 A 
ATOM     10  C   UNL     1       3.502   5.650  17.493  0.00  0.00    +0.000 A 
ENDROOT
BRANCH   2  11
ATOM     11  C   UNL     1       1.756   8.656  18.642  0.00  0.00    +0.000 A 
ATOM     12  C   UNL     1       0.893   9.567  18.065  0.00  0.00    +0.000 A 
ATOM     13  C   UNL     1       0.151  10.201  19.095  0.00  0.00    +0.000 A 
ATOM     14  C   UNL     1      -0.912  11.124  19.098  0.00  0.00    +0.000 A 
ATOM     15  C   UNL     1      -1.450  11.541  20.319  0.00  0.00    +0.000 A 
ATOM     16  C   UNL     1      -0.926  11.061  21.517  0.00  0.00    +0.000 A 
ATOM     17 BR   UNL     1      -1.683  11.642  23.153  0.00  0.00    +0.000 Br
ATOM     18  C   UNL     1       0.140  10.152  21.542  0.00  0.00    +0.000 A 
ATOM     19  C   UNL     1       0.649   9.730  20.306  0.00  0.00    +0.000 A 
ATOM     20  N   UNL     1       1.652   8.833  20.005  0.00  0.00    +0.000 N 
ATOM     21  H   UNL     1       2.186   8.323  20.695  0.00  0.00    +0.000 HD
ENDBRANCH   2  11
BRANCH   1  22
ATOM     22  C   UNL     1       1.554   5.608  19.057  0.00  0.00    +0.000 C 
BRANCH  22  24
ATOM     23  O   UNL     1       2.443   4.241  20.807  0.00  0.00    +0.000 OA
ATOM     24  C   UNL     1       2.008   5.339  20.472  0.00  0.00    +0.000 C 
BRANCH  24  25
ATOM     25  O   UNL     1       1.943   6.352  21.362  0.00  0.00    +0.000 OA
ATOM     26  H   UNL     1       2.793   6.708  21.689  0.00  0.00    +0.000 HD
ENDBRANCH  24  25
ENDBRANCH  22  24
ENDBRANCH   1  22
TORSDOF 4
ENDMDL
MODEL 6
REMARK VINA RESULT:      -7.2      4.165      7.956
REMARK  Name = 
REMARK  4 active torsions:
REMARK  status: ('A' for Active; 'I' for Inactive)
REMARK    1  A    between atoms: C_2  and  O_3
REMARK    2  A    between atoms: C_2  and  C_4
REMARK    3  A    between atoms: C_4  and  N_5
REMARK    4  A    between atoms: C_6  and  C_7
REMARK                            x       y       z     vdW  Elec       q    Type
REMARK                         _______ _______ _______ _____ _____    ______ ____
ROOT
ATOM      1  N   UNL     1       0.112  11.868  18.855  0.00  0.00    +0.000 N 
ATOM      2  C   UNL     1       1.346  11.249  18.760  0.00  0.00    +0.000 A 
ATOM      3  C   UNL     1       2.282  12.256  18.607  0.00  0.00    +0.000 A 
ATOM      4  C   UNL     1       1.615  13.510  18.653  0.00  0.00    +0.000 A 
ATOM      5  C   UNL     1       2.048  14.850  18.569  0.00  0.00    +0.000 A 
ATOM      6  C   UNL     1       1.102  15.877  18.667  0.00  0.00    +0.000 A 
ATOM      7 BR   UNL     1       1.670  17.678  18.547  0.00  0.00    +0.000 Br
ATOM      8  C   UNL     1      -0.247  15.598  18.854  0.00  0.00    +0.000 A 
ATOM      9  C   UNL     1      -0.694  14.277  18.938  0.00  0.00    +0.000 A 
ATOM     10  C   UNL     1       0.256  13.247  18.827  0.00  0.00    +0.000 A 
ENDROOT
BRANCH   2  11
ATOM     11  C   UNL     1       1.566   9.829  18.790  0.00  0.00    +0.000 A 
ATOM     12  C   UNL     1       2.092   8.973  17.842  0.00  0.00    +0.000 A 
ATOM     13  C   UNL     1       2.234   7.687  18.424  0.00  0.00    +0.000 A 
ATOM     14  C   UNL     1       2.789   6.474  17.973  0.00  0.00    +0.000 A 
ATOM     15  C   UNL     1       2.795   5.367  18.828  0.00  0.00    +0.000 A 
ATOM     16  C   UNL     1       2.239   5.462  20.101  0.00  0.00    +0.000 A 
ATOM     17 BR   UNL     1       2.268   3.945  21.235  0.00  0.00    +0.000 Br
ATOM     18  C   UNL     1       1.668   6.653  20.569  0.00  0.00    +0.000 A 
ATOM     19  C   UNL     1       1.695   7.756  19.705  0.00  0.00    +0.000 A 
ATOM     20  N   UNL     1       1.253   9.050  19.884  0.00  0.00    +0.000 N 
ATOM     21  H   UNL     1       0.825   9.394  20.732  0.00  0.00    +0.000 HD
ENDBRANCH   2  11
BRANCH   1  22
ATOM     22  C   UNL     1      -1.184  11.210  18.974  0.00  0.00    +0.000 C 
BRANCH  22  24
ATOM     23  O   UNL     1      -1.746   9.863  17.079  0.00  0.00    +0.000 OA
ATOM     24  C   UNL     1      -1.874  10.938  17.660  0.00  0.00    +0.000 C 
BRANCH  24  25
ATOM     25  O   UNL     1      -2.659  11.907  17.143  0.00  0.00    +0.000 OA
ATOM     26  H   UNL     1      -3.312  11.633  16.468  0.00  0.00    +0.000 HD
ENDBRANCH  24  25
ENDBRANCH  22  24
ENDBRANCH   1  22
TORSDOF 4
ENDMDL
MODEL 7
REMARK VINA RESULT:      -7.1      2.887      8.107
REMARK  Name = 
REMARK  4 active torsions:
REMARK  status: ('A' for Active; 'I' for Inactive)
REMARK    1  A    between atoms: C_2  and  O_3
REMARK    2  A    between atoms: C_2  and  C_4
REMARK    3  A    between atoms: C_4  and  N_5
REMARK    4  A    between atoms: C_6  and  C_7
REMARK                            x       y       z     vdW  Elec       q    Type
REMARK                         _______ _______ _______ _____ _____    ______ ____
ROOT
ATOM      1  N   UNL     1       0.050  10.455  20.619  0.00  0.00    +0.000 N 
ATOM      2  C   UNL     1       0.807  10.386  19.463  0.00  0.00    +0.000 A 
ATOM      3  C   UNL     1       0.701  11.621  18.848  0.00  0.00    +0.000 A 
ATOM      4  C   UNL     1      -0.096  12.470  19.663  0.00  0.00    +0.000 A 
ATOM      5  C   UNL     1      -0.520  13.811  19.554  0.00  0.00    +0.000 A 
ATOM      6  C   UNL     1      -1.312  14.358  20.571  0.00  0.00    +0.000 A 
ATOM      7 BR   UNL     1      -1.894  16.152  20.433  0.00  0.00    +0.000 Br
ATOM      8  C   UNL     1      -1.675  13.606  21.684  0.00  0.00    +0.000 A 
ATOM      9  C   UNL     1      -1.265  12.276  21.807  0.00  0.00    +0.000 A 
ATOM     10  C   UNL     1      -0.481  11.727  20.778  0.00  0.00    +0.000 A 
ENDROOT
BRANCH   2  11
ATOM     11  C   UNL     1       1.526   9.227  19.009  0.00  0.00    +0.000 A 
ATOM     12  C   UNL     1       2.210   8.988  17.833  0.00  0.00    +0.000 A 
ATOM     13  C   UNL     1       2.872   7.738  17.942  0.00  0.00    +0.000 A 
ATOM     14  C   UNL     1       3.770   7.040  17.112  0.00  0.00    +0.000 A 
ATOM     15  C   UNL     1       4.273   5.806  17.537  0.00  0.00    +0.000 A 
ATOM     16  C   UNL     1       3.872   5.268  18.757  0.00  0.00    +0.000 A 
ATOM     17 BR   UNL     1       4.577   3.598  19.305  0.00  0.00    +0.000 Br
ATOM     18  C   UNL     1       2.970   5.936  19.596  0.00  0.00    +0.000 A 
ATOM     19  C   UNL     1       2.497   7.182  19.161  0.00  0.00    +0.000 A 
ATOM     20  N   UNL     1       1.644   8.081  19.766  0.00  0.00    +0.000 N 
ATOM     21  H   UNL     1       1.222   7.945  20.674  0.00  0.00    +0.000 HD
ENDBRANCH   2  11
BRANCH   1  22
ATOM     22  C   UNL     1      -0.182   9.375  21.570  0.00  0.00    +0.000 C 
BRANCH  22  24
ATOM     23  O   UNL     1       0.226   9.657  23.910  0.00  0.00    +0.000 OA
ATOM     24  C   UNL     1       0.693   9.420  22.800  0.00  0.00    +0.000 C 
BRANCH  24  25
ATOM     25  O   UNL     1       2.011   9.169  22.649  0.00  0.00    +0.000 OA
ATOM     26  H   UNL     1       2.487   8.822  23.431  0.00  0.00    +0.000 HD
ENDBRANCH  24  25
ENDBRANCH  22  24
ENDBRANCH   1  22
TORSDOF 4
ENDMDL
MODEL 8
REMARK VINA RESULT:      -7.1      4.366      6.517
REMARK  Name = 
REMARK  4 active torsions:
REMARK  status: ('A' for Active; 'I' for Inactive)
REMARK    1  A    between atoms: C_2  and  O_3
REMARK    2  A    between atoms: C_2  and  C_4
REMARK    3  A    between atoms: C_4  and  N_5
REMARK    4  A    between atoms: C_6  and  C_7
REMARK                            x       y       z     vdW  Elec       q    Type
REMARK                         _______ _______ _______ _____ _____    ______ ____
ROOT
ATOM      1  N   UNL     1       0.094  10.922  19.813  0.00  0.00    +0.000 N 
ATOM      2  C   UNL     1      -0.148  10.846  21.173  0.00  0.00    +0.000 A 
ATOM      3  C   UNL     1       0.412   9.658  21.609  0.00  0.00    +0.000 A 
ATOM      4  C   UNL     1       1.043   9.020  20.506  0.00  0.00    +0.000 A 
ATOM      5  C   UNL     1       1.770   7.821  20.358  0.00  0.00    +0.000 A 
ATOM      6  C   UNL     1       2.280   7.487  19.097  0.00  0.00    +0.000 A 
ATOM      7 BR   UNL     1       3.250   5.877  18.883  0.00  0.00    +0.000 Br
ATOM      8  C   UNL     1       2.088   8.319  17.999  0.00  0.00    +0.000 A 
ATOM      9  C   UNL     1       1.369   9.510  18.128  0.00  0.00    +0.000 A 
ATOM     10  C   UNL     1       0.848   9.836  19.392  0.00  0.00    +0.000 A 
ENDROOT
BRANCH   2  11
ATOM     11  C   UNL     1      -0.871  11.821  21.944  0.00  0.00    +0.000 A 
ATOM     12  C   UNL     1      -2.144  11.790  22.480  0.00  0.00    +0.000 A 
ATOM     13  C   UNL     1      -2.323  12.946  23.283  0.00  0.00    +0.000 A 
ATOM     14  C   UNL     1      -3.359  13.390  24.126  0.00  0.00    +0.000 A 
ATOM     15  C   UNL     1      -3.208  14.598  24.815  0.00  0.00    +0.000 A 
ATOM     16  C   UNL     1      -2.055  15.360  24.649  0.00  0.00    +0.000 A 
ATOM     17 BR   UNL     1      -1.880  16.987  25.601  0.00  0.00    +0.000 Br
ATOM     18  C   UNL     1      -1.015  14.948  23.804  0.00  0.00    +0.000 A 
ATOM     19  C   UNL     1      -1.177  13.723  23.143  0.00  0.00    +0.000 A 
ATOM     20  N   UNL     1      -0.334  13.043  22.290  0.00  0.00    +0.000 N 
ATOM     21  H   UNL     1       0.583  13.367  22.016  0.00  0.00    +0.000 HD
ENDBRANCH   2  11
BRANCH   1  22
ATOM     22  C   UNL     1      -0.353  11.974  18.909  0.00  0.00    +0.000 C 
BRANCH  22  24
ATOM     23  O   UNL     1       0.527  14.123  19.484  0.00  0.00    +0.000 OA
ATOM     24  C   UNL     1       0.607  13.130  18.765  0.00  0.00    +0.000 C 
BRANCH  24  25
ATOM     25  O   UNL     1       1.578  13.036  17.831  0.00  0.00    +0.000 OA
ATOM     26  H   UNL     1       1.310  12.713  16.947  0.00  0.00    +0.000 HD
ENDBRANCH  24  25
ENDBRANCH  22  24
ENDBRANCH   1  22
TORSDOF 4
ENDMDL
MODEL 9
REMARK VINA RESULT:      -7.1      3.240      4.568
REMARK  Name = 
REMARK  4 active torsions:
REMARK  status: ('A' for Active; 'I' for Inactive)
REMARK    1  A    between atoms: C_2  and  O_3
REMARK    2  A    between atoms: C_2  and  C_4
REMARK    3  A    between atoms: C_4  and  N_5
REMARK    4  A    between atoms: C_6  and  C_7
REMARK                            x       y       z     vdW  Elec       q    Type
REMARK                         _______ _______ _______ _____ _____    ______ ____
ROOT
ATOM      1  N   UNL     1       1.667   8.328  20.026  0.00  0.00    +0.000 N 
ATOM      2  C   UNL     1       1.631   9.048  18.844  0.00  0.00    +0.000 A 
ATOM      3  C   UNL     1       2.025   8.180  17.841  0.00  0.00    +0.000 A 
ATOM      4  C   UNL     1       2.263   6.900  18.413  0.00  0.00    +0.000 A 
ATOM      5  C   UNL     1       2.660   5.654  17.884  0.00  0.00    +0.000 A 
ATOM      6  C   UNL     1       2.792   4.561  18.748  0.00  0.00    +0.000 A 
ATOM      7 BR   UNL     1       3.332   2.886  18.054  0.00  0.00    +0.000 Br
ATOM      8  C   UNL     1       2.528   4.682  20.109  0.00  0.00    +0.000 A 
ATOM      9  C   UNL     1       2.134   5.909  20.649  0.00  0.00    +0.000 A 
ATOM     10  C   UNL     1       2.015   7.008  19.781  0.00  0.00    +0.000 A 
ENDROOT
BRANCH   2  11
ATOM     11  C   UNL     1       1.275  10.436  18.728  0.00  0.00    +0.000 A 
ATOM     12  C   UNL     1       0.046  11.064  18.775  0.00  0.00    +0.000 A 
ATOM     13  C   UNL     1       0.256  12.467  18.759  0.00  0.00    +0.000 A 
ATOM     14  C   UNL     1      -0.602  13.577  18.879  0.00  0.00    +0.000 A 
ATOM     15  C   UNL     1      -0.058  14.865  18.849  0.00  0.00    +0.000 A 
ATOM     16  C   UNL     1       1.313  15.044  18.681  0.00  0.00    +0.000 A 
ATOM     17 BR   UNL     1       2.016  16.802  18.650  0.00  0.00    +0.000 Br
ATOM     18  C   UNL     1       2.186  13.957  18.545  0.00  0.00    +0.000 A 
ATOM     19  C   UNL     1       1.623  12.675  18.603  0.00  0.00    +0.000 A 
ATOM     20  N   UNL     1       2.212  11.430  18.538  0.00  0.00    +0.000 N 
ATOM     21  H   UNL     1       3.205  11.274  18.437  0.00  0.00    +0.000 HD
ENDBRANCH   2  11
BRANCH   1  22
ATOM     22  C   UNL     1       1.382   8.837  21.362  0.00  0.00    +0.000 C 
BRANCH  22  24
ATOM     23  O   UNL     1      -0.811   7.916  21.617  0.00  0.00    +0.000 OA
ATOM     24  C   UNL     1      -0.086   8.902  21.710  0.00  0.00    +0.000 C 
BRANCH  24  25
ATOM     25  O   UNL     1      -0.582  10.079  22.149  0.00  0.00    +0.000 OA
ATOM     26  H   UNL     1      -0.761  10.152  23.109  0.00  0.00    +0.000 HD
ENDBRANCH  24  25
ENDBRANCH  22  24
ENDBRANCH   1  22
TORSDOF 4
ENDMDL
