MODEL 1
REMARK VINA RESULT:      -7.2      0.000      0.000
REMARK  Name = 
REMARK  7 active torsions:
REMARK  status: ('A' for Active; 'I' for Inactive)
REMARK    1  A    between atoms: C_1  and  C_2
REMARK    2  A    between atoms: C_2  and  C_3
REMARK    3  A    between atoms: C_3  and  C_4
REMARK    4  A    between atoms: C_5  and  C_6
REMARK    5  A    between atoms: C_6  and  O_8
REMARK    6  A    between atoms: O_8  and  C_9
REMARK    7  A    between atoms: C_12  and  N_13
REMARK                            x       y       z     vdW  Elec       q    Type
REMARK                         _______ _______ _______ _____ _____    ______ ____
ROOT
ATOM      1  C   UNL     1       4.916   5.239  16.648  0.00  0.00    +0.000 A 
ATOM      2  C   UNL     1       5.499   4.215  15.887  0.00  0.00    +0.000 A 
ATOM      3  N   UNL     1       5.157   3.005  16.469  0.00  0.00    +0.000 N 
ATOM      4  C   UNL     1       4.325   3.184  17.541  0.00  0.00    +0.000 A 
ATOM      5  C   UNL     1       3.694   2.297  18.433  0.00  0.00    +0.000 A 
ATOM      6  C   UNL     1       2.889   2.868  19.460  0.00  0.00    +0.000 A 
ATOM      7  C   UNL     1       2.708   4.262  19.553  0.00  0.00    +0.000 A 
ATOM      8  C   UNL     1       2.006   5.192  20.347  0.00  0.00    +0.000 A 
ATOM      9  N   UNL     1       2.219   6.459  19.966  0.00  0.00    +0.000 NA
ATOM     10  N   UNL     1       3.073   6.336  18.924  0.00  0.00    +0.000 N 
ATOM     11  C   UNL     1       3.368   5.059  18.645  0.00  0.00    +0.000 A 
ATOM     12  C   UNL     1       4.165   4.555  17.657  0.00  0.00    +0.000 A 
ATOM     13  H   UNL     1       5.470   2.111  16.122  0.00  0.00    +0.000 HD
ATOM     14  H   UNL     1       3.385   7.189  18.478  0.00  0.00    +0.000 HD
ENDROOT
BRANCH   5  15
ATOM     15  N   UNL     1       3.884   0.912  18.406  0.00  0.00    +0.000 N 
ATOM     16  H   UNL     1       3.856   0.486  17.489  0.00  0.00    +0.000 HD
ATOM     17  H   UNL     1       3.310   0.416  19.083  0.00  0.00    +0.000 HD
ENDBRANCH   5  15
BRANCH   2  18
ATOM     18  C   UNL     1       6.326   4.326  14.700  0.00  0.00    +0.000 C 
ATOM     19  O   UNL     1       7.486   4.719  14.665  0.00  0.00    +0.000 OA
BRANCH  18  20
ATOM     20  O   UNL     1       5.612   3.944  13.600  0.00  0.00    +0.000 OA
ATOM     21  C   UNL     1       6.439   3.566  12.497  0.00  0.00    +0.000 C 
ENDBRANCH  18  20
ENDBRANCH   2  18
BRANCH   1  22
ATOM     22  C   UNL     1       5.090   6.707  16.392  0.00  0.00    +0.000 C 
BRANCH  22  24
ATOM     23  C   UNL     1       7.353   6.617  17.503  0.00  0.00    +0.000 C 
ATOM     24  C   UNL     1       6.030   7.361  17.409  0.00  0.00    +0.000 C 
ENDBRANCH  22  24
ENDBRANCH   1  22
TORSDOF 5
ENDMDL
MODEL 2
REMARK VINA RESULT:      -7.2      3.236      5.887
REMARK  Name = 
REMARK  7 active torsions:
REMARK  status: ('A' for Active; 'I' for Inactive)
REMARK    1  A    between atoms: C_1  and  C_2
REMARK    2  A    between atoms: C_2  and  C_3
REMARK    3  A    between atoms: C_3  and  C_4
REMARK    4  A    between atoms: C_5  and  C_6
REMARK    5  A    between atoms: C_6  and  O_8
REMARK    6  A    between atoms: O_8  and  C_9
REMARK    7  A    between atoms: C_12  and  N_13
REMARK                            x       y       z     vdW  Elec       q    Type
REMARK                         _______ _______ _______ _____ _____    ______ ____
ROOT
ATOM      1  C   UNL     1       3.502   4.475  18.310  0.00  0.00    +0.000 A 
ATOM      2  C   UNL     1       3.479   4.840  19.665  0.00  0.00    +0.000 A 
ATOM      3  N   UNL     1       4.772   5.167  20.039  0.00  0.00    +0.000 N 
ATOM      4  C   UNL     1       5.632   5.095  18.977  0.00  0.00    +0.000 A 
ATOM      5  C   UNL     1       7.010   5.345  18.830  0.00  0.00    +0.000 A 
ATOM      6  C   UNL     1       7.575   5.145  17.538  0.00  0.00    +0.000 A 
ATOM      7  C   UNL     1       6.776   4.747  16.448  0.00  0.00    +0.000 A 
ATOM      8  C   UNL     1       6.915   4.483  15.070  0.00  0.00    +0.000 A 
ATOM      9  N   UNL     1       5.760   4.114  14.498  0.00  0.00    +0.000 NA
ATOM     10  N   UNL     1       4.879   4.133  15.524  0.00  0.00    +0.000 N 
ATOM     11  C   UNL     1       5.439   4.515  16.680  0.00  0.00    +0.000 A 
ATOM     12  C   UNL     1       4.860   4.677  17.906  0.00  0.00    +0.000 A 
ATOM     13  H   UNL     1       5.029   5.445  20.975  0.00  0.00    +0.000 HD
ATOM     14  H   UNL     1       3.924   3.870  15.319  0.00  0.00    +0.000 HD
ENDROOT
BRANCH   5  15
ATOM     15  N   UNL     1       7.847   5.695  19.894  0.00  0.00    +0.000 N 
ATOM     16  H   UNL     1       7.466   6.370  20.544  0.00  0.00    +0.000 HD
ATOM     17  H   UNL     1       8.792   5.928  19.600  0.00  0.00    +0.000 HD
ENDBRANCH   5  15
BRANCH   2  18
ATOM     18  C   UNL     1       2.349   4.883  20.574  0.00  0.00    +0.000 C 
ATOM     19  O   UNL     1       1.426   5.687  20.538  0.00  0.00    +0.000 OA
BRANCH  18  20
ATOM     20  O   UNL     1       2.468   3.893  21.509  0.00  0.00    +0.000 OA
ATOM     21  C   UNL     1       1.469   2.879  21.383  0.00  0.00    +0.000 C 
ENDBRANCH  18  20
ENDBRANCH   2  18
BRANCH   1  22
ATOM     22  C   UNL     1       2.315   3.993  17.529  0.00  0.00    +0.000 C 
BRANCH  22  24
ATOM     23  C   UNL     1       3.273   1.717  18.045  0.00  0.00    +0.000 C 
ATOM     24  C   UNL     1       2.003   2.520  17.808  0.00  0.00    +0.000 C 
ENDBRANCH  22  24
ENDBRANCH   1  22
TORSDOF 5
ENDMDL
MODEL 3
REMARK VINA RESULT:      -7.1      1.316      1.681
REMARK  Name = 
REMARK  7 active torsions:
REMARK  status: ('A' for Active; 'I' for Inactive)
REMARK    1  A    between atoms: C_1  and  C_2
REMARK    2  A    between atoms: C_2  and  C_3
REMARK    3  A    between atoms: C_3  and  C_4
REMARK    4  A    between atoms: C_5  and  C_6
REMARK    5  A    between atoms: C_6  and  O_8
REMARK    6  A    between atoms: O_8  and  C_9
REMARK    7  A    between atoms: C_12  and  N_13
REMARK                            x       y       z     vdW  Elec       q    Type
REMARK                         _______ _______ _______ _____ _____    ______ ____
ROOT
ATOM      1  C   UNL     1       4.543   5.435  17.632  0.00  0.00    +0.000 A 
ATOM      2  C   UNL     1       5.341   4.709  16.736  0.00  0.00    +0.000 A 
ATOM      3  N   UNL     1       5.142   3.360  16.984  0.00  0.00    +0.000 N 
ATOM      4  C   UNL     1       4.201   3.167  17.960  0.00  0.00    +0.000 A 
ATOM      5  C   UNL     1       3.639   2.017  18.546  0.00  0.00    +0.000 A 
ATOM      6  C   UNL     1       2.669   2.214  19.570  0.00  0.00    +0.000 A 
ATOM      7  C   UNL     1       2.267   3.509  19.952  0.00  0.00    +0.000 A 
ATOM      8  C   UNL     1       1.363   4.121  20.844  0.00  0.00    +0.000 A 
ATOM      9  N   UNL     1       1.410   5.460  20.787  0.00  0.00    +0.000 NA
ATOM     10  N   UNL     1       2.360   5.703  19.856  0.00  0.00    +0.000 N 
ATOM     11  C   UNL     1       2.873   4.580  19.334  0.00  0.00    +0.000 A 
ATOM     12  C   UNL     1       3.821   4.436  18.362  0.00  0.00    +0.000 A 
ATOM     13  H   UNL     1       5.618   2.624  16.485  0.00  0.00    +0.000 HD
ATOM     14  H   UNL     1       2.574   6.671  19.655  0.00  0.00    +0.000 HD
ENDROOT
BRANCH   5  15
ATOM     15  N   UNL     1       4.043   0.715  18.231  0.00  0.00    +0.000 N 
ATOM     16  H   UNL     1       3.371  -0.011  18.442  0.00  0.00    +0.000 HD
ATOM     17  H   UNL     1       4.975   0.492  18.568  0.00  0.00    +0.000 HD
ENDBRANCH   5  15
BRANCH   2  18
ATOM     18  C   UNL     1       6.242   5.208  15.715  0.00  0.00    +0.000 C 
ATOM     19  O   UNL     1       7.328   5.740  15.910  0.00  0.00    +0.000 OA
BRANCH  18  20
ATOM     20  O   UNL     1       5.691   5.019  14.478  0.00  0.00    +0.000 OA
ATOM     21  C   UNL     1       6.358   4.011  13.715  0.00  0.00    +0.000 C 
ENDBRANCH  18  20
ENDBRANCH   2  18
BRANCH   1  22
ATOM     22  C   UNL     1       4.510   6.931  17.737  0.00  0.00    +0.000 C 
BRANCH  22  24
ATOM     23  C   UNL     1       2.530   8.487  17.885  0.00  0.00    +0.000 C 
ATOM     24  C   UNL     1       3.312   7.533  16.996  0.00  0.00    +0.000 C 
ENDBRANCH  22  24
ENDBRANCH   1  22
TORSDOF 5
ENDMDL
MODEL 4
REMARK VINA RESULT:      -7.0      3.094      5.935
REMARK  Name = 
REMARK  7 active torsions:
REMARK  status: ('A' for Active; 'I' for Inactive)
REMARK    1  A    between atoms: C_1  and  C_2
REMARK    2  A    between atoms: C_2  and  C_3
REMARK    3  A    between atoms: C_3  and  C_4
REMARK    4  A    between atoms: C_5  and  C_6
REMARK    5  A    between atoms: C_6  and  O_8
REMARK    6  A    between atoms: O_8  and  C_9
REMARK    7  A    between atoms: C_12  and  N_13
REMARK                            x       y       z     vdW  Elec       q    Type
REMARK                         _______ _______ _______ _____ _____    ______ ____
ROOT
ATOM      1  C   UNL     1       3.107   3.291  17.859  0.00  0.00    +0.000 A 
ATOM      2  C   UNL     1       1.962   3.803  18.487  0.00  0.00    +0.000 A 
ATOM      3  N   UNL     1       2.046   5.186  18.462  0.00  0.00    +0.000 N 
ATOM      4  C   UNL     1       3.163   5.606  17.792  0.00  0.00    +0.000 A 
ATOM      5  C   UNL     1       3.680   6.877  17.477  0.00  0.00    +0.000 A 
ATOM      6  C   UNL     1       4.907   6.921  16.756  0.00  0.00    +0.000 A 
ATOM      7  C   UNL     1       5.554   5.739  16.347  0.00  0.00    +0.000 A 
ATOM      8  C   UNL     1       6.701   5.351  15.625  0.00  0.00    +0.000 A 
ATOM      9  N   UNL     1       6.834   4.019  15.546  0.00  0.00    +0.000 NA
ATOM     10  N   UNL     1       5.766   3.554  16.233  0.00  0.00    +0.000 N 
ATOM     11  C   UNL     1       4.985   4.537  16.703  0.00  0.00    +0.000 A 
ATOM     12  C   UNL     1       3.820   4.449  17.410  0.00  0.00    +0.000 A 
ATOM     13  H   UNL     1       1.352   5.794  18.871  0.00  0.00    +0.000 HD
ATOM     14  H   UNL     1       5.669   2.551  16.314  0.00  0.00    +0.000 HD
ENDROOT
BRANCH   5  15
ATOM     15  N   UNL     1       3.096   8.074  17.904  0.00  0.00    +0.000 N 
ATOM     16  H   UNL     1       3.643   8.614  18.562  0.00  0.00    +0.000 HD
ATOM     17  H   UNL     1       2.129   7.966  18.199  0.00  0.00    +0.000 HD
ENDBRANCH   5  15
BRANCH   2  18
ATOM     18  C   UNL     1       0.855   3.079  19.083  0.00  0.00    +0.000 C 
ATOM     19  O   UNL     1       0.203   2.192  18.548  0.00  0.00    +0.000 OA
BRANCH  18  20
ATOM     20  O   UNL     1       0.620   3.550  20.345  0.00  0.00    +0.000 OA
ATOM     21  C   UNL     1       1.326   2.826  21.355  0.00  0.00    +0.000 C 
ENDBRANCH  18  20
ENDBRANCH   2  18
BRANCH   1  22
ATOM     22  C   UNL     1       3.436   1.833  17.726  0.00  0.00    +0.000 C 
BRANCH  22  24
ATOM     23  C   UNL     1       4.626   2.142  19.929  0.00  0.00    +0.000 C 
ATOM     24  C   UNL     1       3.793   1.199  19.073  0.00  0.00    +0.000 C 
ENDBRANCH  22  24
ENDBRANCH   1  22
TORSDOF 5
ENDMDL
MODEL 5
REMARK VINA RESULT:      -6.9      2.426      3.104
REMARK  Name = 
REMARK  7 active torsions:
REMARK  status: ('A' for Active; 'I' for Inactive)
REMARK    1  A    between atoms: C_1  and  C_2
REMARK    2  A    between atoms: C_2  and  C_3
REMARK    3  A    between atoms: C_3  and  C_4
REMARK    4  A    between atoms: C_5  and  C_6
REMARK    5  A    between atoms: C_6  and  O_8
REMARK    6  A    between atoms: O_8  and  C_9
REMARK    7  A    between atoms: C_12  and  N_13
REMARK                            x       y       z     vdW  Elec       q    Type
REMARK                         _______ _______ _______ _____ _____    ______ ____
ROOT
ATOM      1  C   UNL     1       4.642   5.097  17.597  0.00  0.00    +0.000 A 
ATOM      2  C   UNL     1       5.996   4.929  17.922  0.00  0.00    +0.000 A 
ATOM      3  N   UNL     1       6.092   3.878  18.819  0.00  0.00    +0.000 N 
ATOM      4  C   UNL     1       4.870   3.307  19.050  0.00  0.00    +0.000 A 
ATOM      5  C   UNL     1       4.443   2.224  19.841  0.00  0.00    +0.000 A 
ATOM      6  C   UNL     1       3.051   1.923  19.841  0.00  0.00    +0.000 A 
ATOM      7  C   UNL     1       2.148   2.661  19.050  0.00  0.00    +0.000 A 
ATOM      8  C   UNL     1       0.772   2.676  18.743  0.00  0.00    +0.000 A 
ATOM      9  N   UNL     1       0.446   3.657  17.890  0.00  0.00    +0.000 NA
ATOM     10  N   UNL     1       1.624   4.279  17.658  0.00  0.00    +0.000 N 
ATOM     11  C   UNL     1       2.647   3.710  18.312  0.00  0.00    +0.000 A 
ATOM     12  C   UNL     1       3.971   4.045  18.299  0.00  0.00    +0.000 A 
ATOM     13  H   UNL     1       6.962   3.567  19.224  0.00  0.00    +0.000 HD
ATOM     14  H   UNL     1       1.612   5.077  17.036  0.00  0.00    +0.000 HD
ENDROOT
BRANCH   5  15
ATOM     15  N   UNL     1       5.297   1.496  20.676  0.00  0.00    +0.000 N 
ATOM     16  H   UNL     1       5.472   0.540  20.393  0.00  0.00    +0.000 HD
ATOM     17  H   UNL     1       5.056   1.571  21.660  0.00  0.00    +0.000 HD
ENDBRANCH   5  15
BRANCH   2  18
ATOM     18  C   UNL     1       7.142   5.685  17.450  0.00  0.00    +0.000 C 
ATOM     19  O   UNL     1       7.751   5.491  16.406  0.00  0.00    +0.000 OA
BRANCH  18  20
ATOM     20  O   UNL     1       7.468   6.649  18.362  0.00  0.00    +0.000 OA
ATOM     21  C   UNL     1       7.794   7.904  17.760  0.00  0.00    +0.000 C 
ENDBRANCH  18  20
ENDBRANCH   2  18
BRANCH   1  22
ATOM     22  C   UNL     1       4.099   6.170  16.700  0.00  0.00    +0.000 C 
BRANCH  22  24
ATOM     23  C   UNL     1       2.528   7.633  18.025  0.00  0.00    +0.000 C 
ATOM     24  C   UNL     1       3.924   7.501  17.437  0.00  0.00    +0.000 C 
ENDBRANCH  22  24
ENDBRANCH   1  22
TORSDOF 5
ENDMDL
MODEL 6
REMARK VINA RESULT:      -6.9      1.487      2.221
REMARK  Name = 
REMARK  7 active torsions:
REMARK  status: ('A' for Active; 'I' for Inactive)
REMARK    1  A    between atoms: C_1  and  C_2
REMARK    2  A    between atoms: C_2  and  C_3
REMARK    3  A    between atoms: C_3  and  C_4
REMARK    4  A    between atoms: C_5  and  C_6
REMARK    5  A    between atoms: C_6  and  O_8
REMARK    6  A    between atoms: O_8  and  C_9
REMARK    7  A    between atoms: C_12  and  N_13
REMARK                            x       y       z     vdW  Elec       q    Type
REMARK                         _______ _______ _______ _____ _____    ______ ____
ROOT
ATOM      1  C   UNL     1       4.495   5.366  17.734  0.00  0.00    +0.000 A 
ATOM      2  C   UNL     1       5.344   4.653  16.874  0.00  0.00    +0.000 A 
ATOM      3  N   UNL     1       5.123   3.301  17.083  0.00  0.00    +0.000 N 
ATOM      4  C   UNL     1       4.123   3.095  17.995  0.00  0.00    +0.000 A 
ATOM      5  C   UNL     1       3.521   1.937  18.522  0.00  0.00    +0.000 A 
ATOM      6  C   UNL     1       2.490   2.120  19.488  0.00  0.00    +0.000 A 
ATOM      7  C   UNL     1       2.071   3.410  19.870  0.00  0.00    +0.000 A 
ATOM      8  C   UNL     1       1.117   4.009  20.716  0.00  0.00    +0.000 A 
ATOM      9  N   UNL     1       1.173   5.349  20.689  0.00  0.00    +0.000 NA
ATOM     10  N   UNL     1       2.180   5.604  19.823  0.00  0.00    +0.000 N 
ATOM     11  C   UNL     1       2.719   4.489  19.312  0.00  0.00    +0.000 A 
ATOM     12  C   UNL     1       3.725   4.358  18.397  0.00  0.00    +0.000 A 
ATOM     13  H   UNL     1       5.626   2.573  16.600  0.00  0.00    +0.000 HD
ATOM     14  H   UNL     1       2.411   6.575  19.655  0.00  0.00    +0.000 HD
ENDROOT
BRANCH   5  15
ATOM     15  N   UNL     1       3.937   0.640  18.208  0.00  0.00    +0.000 N 
ATOM     16  H   UNL     1       4.531   0.194  18.895  0.00  0.00    +0.000 HD
ATOM     17  H   UNL     1       4.304   0.554  17.264  0.00  0.00    +0.000 HD
ENDBRANCH   5  15
BRANCH   2  18
ATOM     18  C   UNL     1       6.308   5.168  15.920  0.00  0.00    +0.000 C 
ATOM     19  O   UNL     1       6.056   5.865  14.946  0.00  0.00    +0.000 OA
BRANCH  18  20
ATOM     20  O   UNL     1       7.563   4.739  16.253  0.00  0.00    +0.000 OA
ATOM     21  C   UNL     1       7.780   4.679  17.664  0.00  0.00    +0.000 C 
ENDBRANCH  18  20
ENDBRANCH   2  18
BRANCH   1  22
ATOM     22  C   UNL     1       4.462   6.861  17.865  0.00  0.00    +0.000 C 
BRANCH  22  24
ATOM     23  C   UNL     1       2.518   8.468  17.903  0.00  0.00    +0.000 C 
ATOM     24  C   UNL     1       3.317   7.484  17.062  0.00  0.00    +0.000 C 
ENDBRANCH  22  24
ENDBRANCH   1  22
TORSDOF 5
ENDMDL
MODEL 7
REMARK VINA RESULT:      -6.9      3.215      5.918
REMARK  Name = 
REMARK  7 active torsions:
REMARK  status: ('A' for Active; 'I' for Inactive)
REMARK    1  A    between atoms: C_1  and  C_2
REMARK    2  A    between atoms: C_2  and  C_3
REMARK    3  A    between atoms: C_3  and  C_4
REMARK    4  A    between atoms: C_5  and  C_6
REMARK    5  A    between atoms: C_6  and  O_8
REMARK    6  A    between atoms: O_8  and  C_9
REMARK    7  A    between atoms: C_12  and  N_13
REMARK                            x       y       z     vdW  Elec       q    Type
REMARK                         _______ _______ _______ _____ _____    ______ ____
ROOT
ATOM      1  C   UNL     1       3.551   4.466  18.294  0.00  0.00    +0.000 A 
ATOM      2  C   UNL     1       3.541   4.845  19.644  0.00  0.00    +0.000 A 
ATOM      3  N   UNL     1       4.836   5.182  20.002  0.00  0.00    +0.000 N 
ATOM      4  C   UNL     1       5.686   5.100  18.931  0.00  0.00    +0.000 A 
ATOM      5  C   UNL     1       7.061   5.354  18.768  0.00  0.00    +0.000 A 
ATOM      6  C   UNL     1       7.614   5.141  17.473  0.00  0.00    +0.000 A 
ATOM      7  C   UNL     1       6.805   4.728  16.395  0.00  0.00    +0.000 A 
ATOM      8  C   UNL     1       6.931   4.449  15.019  0.00  0.00    +0.000 A 
ATOM      9  N   UNL     1       5.772   4.069  14.463  0.00  0.00    +0.000 NA
ATOM     10  N   UNL     1       4.901   4.097  15.497  0.00  0.00    +0.000 N 
ATOM     11  C   UNL     1       5.472   4.494  16.643  0.00  0.00    +0.000 A 
ATOM     12  C   UNL     1       4.905   4.667  17.874  0.00  0.00    +0.000 A 
ATOM     13  H   UNL     1       5.102   5.471  20.931  0.00  0.00    +0.000 HD
ATOM     14  H   UNL     1       3.945   3.828  15.305  0.00  0.00    +0.000 HD
ENDROOT
BRANCH   5  15
ATOM     15  N   UNL     1       7.908   5.719  19.819  0.00  0.00    +0.000 N 
ATOM     16  H   UNL     1       7.455   6.156  20.611  0.00  0.00    +0.000 HD
ATOM     17  H   UNL     1       8.731   6.230  19.512  0.00  0.00    +0.000 HD
ENDBRANCH   5  15
BRANCH   2  18
ATOM     18  C   UNL     1       2.419   4.894  20.564  0.00  0.00    +0.000 C 
ATOM     19  O   UNL     1       2.267   4.187  21.551  0.00  0.00    +0.000 OA
BRANCH  18  20
ATOM     20  O   UNL     1       1.526   5.845  20.156  0.00  0.00    +0.000 OA
ATOM     21  C   UNL     1       2.005   7.179  20.338  0.00  0.00    +0.000 C 
ENDBRANCH  18  20
ENDBRANCH   2  18
BRANCH   1  22
ATOM     22  C   UNL     1       2.358   3.970  17.530  0.00  0.00    +0.000 C 
BRANCH  22  24
ATOM     23  C   UNL     1       0.852   2.312  18.690  0.00  0.00    +0.000 C 
ATOM     24  C   UNL     1       2.075   2.490  17.803  0.00  0.00    +0.000 C 
ENDBRANCH  22  24
ENDBRANCH   1  22
TORSDOF 5
ENDMDL
MODEL 8
REMARK VINA RESULT:      -6.9      2.161      2.784
REMARK  Name = 
REMARK  7 active torsions:
REMARK  status: ('A' for Active; 'I' for Inactive)
REMARK    1  A    between atoms: C_1  and  C_2
REMARK    2  A    between atoms: C_2  and  C_3
REMARK    3  A    between atoms: C_3  and  C_4
REMARK    4  A    between atoms: C_5  and  C_6
REMARK    5  A    between atoms: C_6  and  O_8
REMARK    6  A    between atoms: O_8  and  C_9
REMARK    7  A    between atoms: C_12  and  N_13
REMARK                            x       y       z     vdW  Elec       q    Type
REMARK                         _______ _______ _______ _____ _____    ______ ____
ROOT
ATOM      1  C   UNL     1       4.582   5.146  17.711  0.00  0.00    +0.000 A 
ATOM      2  C   UNL     1       5.938   4.984  18.029  0.00  0.00    +0.000 A 
ATOM      3  N   UNL     1       6.048   3.897  18.881  0.00  0.00    +0.000 N 
ATOM      4  C   UNL     1       4.833   3.300  19.087  0.00  0.00    +0.000 A 
ATOM      5  C   UNL     1       4.422   2.179  19.832  0.00  0.00    +0.000 A 
ATOM      6  C   UNL     1       3.034   1.859  19.817  0.00  0.00    +0.000 A 
ATOM      7  C   UNL     1       2.121   2.617  19.057  0.00  0.00    +0.000 A 
ATOM      8  C   UNL     1       0.745   2.626  18.749  0.00  0.00    +0.000 A 
ATOM      9  N   UNL     1       0.406   3.637  17.937  0.00  0.00    +0.000 NA
ATOM     10  N   UNL     1       1.575   4.285  17.734  0.00  0.00    +0.000 N 
ATOM     11  C   UNL     1       2.606   3.703  18.364  0.00  0.00    +0.000 A 
ATOM     12  C   UNL     1       3.925   4.056  18.367  0.00  0.00    +0.000 A 
ATOM     13  H   UNL     1       6.922   3.582  19.274  0.00  0.00    +0.000 HD
ATOM     14  H   UNL     1       1.553   5.107  17.146  0.00  0.00    +0.000 HD
ENDROOT
BRANCH   5  15
ATOM     15  N   UNL     1       5.285   1.428  20.636  0.00  0.00    +0.000 N 
ATOM     16  H   UNL     1       5.344   1.720  21.603  0.00  0.00    +0.000 HD
ATOM     17  H   UNL     1       6.200   1.285  20.217  0.00  0.00    +0.000 HD
ENDBRANCH   5  15
BRANCH   2  18
ATOM     18  C   UNL     1       7.074   5.774  17.591  0.00  0.00    +0.000 C 
ATOM     19  O   UNL     1       7.331   6.919  17.940  0.00  0.00    +0.000 OA
BRANCH  18  20
ATOM     20  O   UNL     1       7.821   5.057  16.699  0.00  0.00    +0.000 OA
ATOM     21  C   UNL     1       7.148   4.830  15.459  0.00  0.00    +0.000 C 
ENDBRANCH  18  20
ENDBRANCH   2  18
BRANCH   1  22
ATOM     22  C   UNL     1       4.024   6.248  16.859  0.00  0.00    +0.000 C 
BRANCH  22  24
ATOM     23  C   UNL     1       2.302   7.805  17.846  0.00  0.00    +0.000 C 
ATOM     24  C   UNL     1       3.787   7.531  17.661  0.00  0.00    +0.000 C 
ENDBRANCH  22  24
ENDBRANCH   1  22
TORSDOF 5
ENDMDL
MODEL 9
REMARK VINA RESULT:      -6.8      3.345      5.951
REMARK  Name = 
REMARK  7 active torsions:
REMARK  status: ('A' for Active; 'I' for Inactive)
REMARK    1  A    between atoms: C_1  and  C_2
REMARK    2  A    between atoms: C_2  and  C_3
REMARK    3  A    between atoms: C_3  and  C_4
REMARK    4  A    between atoms: C_5  and  C_6
REMARK    5  A    between atoms: C_6  and  O_8
REMARK    6  A    between atoms: O_8  and  C_9
REMARK    7  A    between atoms: C_12  and  N_13
REMARK                            x       y       z     vdW  Elec       q    Type
REMARK                         _______ _______ _______ _____ _____    ______ ____
ROOT
ATOM      1  C   UNL     1       3.951   3.925  19.591  0.00  0.00    +0.000 A 
ATOM      2  C   UNL     1       2.696   4.368  20.032  0.00  0.00    +0.000 A 
ATOM      3  N   UNL     1       2.458   5.609  19.463  0.00  0.00    +0.000 N 
ATOM      4  C   UNL     1       3.473   5.972  18.618  0.00  0.00    +0.000 A 
ATOM      5  C   UNL     1       3.694   7.097  17.802  0.00  0.00    +0.000 A 
ATOM      6  C   UNL     1       4.904   7.131  17.052  0.00  0.00    +0.000 A 
ATOM      7  C   UNL     1       5.822   6.064  17.103  0.00  0.00    +0.000 A 
ATOM      8  C   UNL     1       7.054   5.694  16.526  0.00  0.00    +0.000 A 
ATOM      9  N   UNL     1       7.494   4.507  16.968  0.00  0.00    +0.000 NA
ATOM     10  N   UNL     1       6.537   4.122  17.842  0.00  0.00    +0.000 N 
ATOM     11  C   UNL     1       5.532   5.005  17.934  0.00  0.00    +0.000 A 
ATOM     12  C   UNL     1       4.393   4.941  18.684  0.00  0.00    +0.000 A 
ATOM     13  H   UNL     1       1.628   6.154  19.639  0.00  0.00    +0.000 HD
ATOM     14  H   UNL     1       6.671   3.238  18.316  0.00  0.00    +0.000 HD
ENDROOT
BRANCH   5  15
ATOM     15  N   UNL     1       2.833   8.199  17.758  0.00  0.00    +0.000 N 
ATOM     16  H   UNL     1       2.487   8.444  16.839  0.00  0.00    +0.000 HD
ATOM     17  H   UNL     1       3.187   9.004  18.267  0.00  0.00    +0.000 HD
ENDBRANCH   5  15
BRANCH   2  18
ATOM     18  C   UNL     1       1.764   3.708  20.927  0.00  0.00    +0.000 C 
ATOM     19  O   UNL     1       2.013   3.302  22.055  0.00  0.00    +0.000 OA
BRANCH  18  20
ATOM     20  O   UNL     1       0.547   3.580  20.317  0.00  0.00    +0.000 OA
ATOM     21  C   UNL     1       0.558   2.646  19.234  0.00  0.00    +0.000 C 
ENDBRANCH  18  20
ENDBRANCH   2  18
BRANCH   1  22
ATOM     22  C   UNL     1       4.613   2.649  20.022  0.00  0.00    +0.000 C 
BRANCH  22  24
ATOM     23  C   UNL     1       3.702   1.704  17.868  0.00  0.00    +0.000 C 
ATOM     24  C   UNL     1       4.006   1.424  19.332  0.00  0.00    +0.000 C 
ENDBRANCH  22  24
ENDBRANCH   1  22
TORSDOF 5
ENDMDL
