MODEL 1
REMARK VINA RESULT:      -9.3      0.000      0.000
REMARK  Name = 
REMARK  7 active torsions:
REMARK  status: ('A' for Active; 'I' for Inactive)
REMARK    1  A    between atoms: C_2  and  C_3
REMARK    2  A    between atoms: C_3  and  N_4
REMARK    3  A    between atoms: C_5  and  C_7
REMARK    4  A    between atoms: C_11  and  O_12
REMARK    5  A    between atoms: O_12  and  C_13
REMARK    6  A    between atoms: C_16  and  N_17
REMARK    7  A    between atoms: C_21  and  C_23
REMARK                            x       y       z     vdW  Elec       q    Type
REMARK                         _______ _______ _______ _____ _____    ______ ____
ROOT
ATOM      1  C   UNL     1       2.725   6.220  18.578  0.00  0.00    +0.000 A 
ATOM      2  C   UNL     1       2.614   7.383  17.822  0.00  0.00    +0.000 A 
ATOM      3  C   UNL     1       2.085   8.541  18.370  0.00  0.00    +0.000 A 
ATOM      4  C   UNL     1       1.569   8.536  19.658  0.00  0.00    +0.000 A 
ATOM      5  C   UNL     1       1.668   7.373  20.434  0.00  0.00    +0.000 A 
ATOM      6  C   UNL     1       2.236   6.209  19.894  0.00  0.00    +0.000 A 
ENDROOT
BRANCH   4   7
ATOM      7  N   UNL     1       0.938   9.668  20.185  0.00  0.00    +0.000 N 
ATOM      8  C   UNL     1       0.055  10.502  19.537  0.00  0.00    +0.000 C 
ATOM      9  O   UNL     1      -0.331  10.408  18.373  0.00  0.00    +0.000 OA
ATOM     10  N   UNL     1      -0.455  11.532  20.303  0.00  0.00    +0.000 N 
ATOM     11  C   UNL     1      -0.126  11.793  21.612  0.00  0.00    +0.000 C 
ATOM     12  O   UNL     1       0.591  11.049  22.279  0.00  0.00    +0.000 OA
ATOM     13  H   UNL     1       1.034   9.827  21.188  0.00  0.00    +0.000 HD
ATOM     14  H   UNL     1      -1.112  12.109  19.804  0.00  0.00    +0.000 HD
BRANCH  11  15
ATOM     15  C   UNL     1      -0.622  13.026  22.264  0.00  0.00    +0.000 A 
ATOM     16  C   UNL     1       0.193  14.153  22.050  0.00  0.00    +0.000 A 
ATOM     17  C   UNL     1      -0.065  15.362  22.684  0.00  0.00    +0.000 A 
ATOM     18  C   UNL     1      -1.156  15.468  23.539  0.00  0.00    +0.000 A 
ATOM     19  C   UNL     1      -1.991  14.367  23.740  0.00  0.00    +0.000 A 
ATOM     20  C   UNL     1      -1.731  13.142  23.105  0.00  0.00    +0.000 A 
ATOM     21 CL   UNL     1      -2.799  11.834  23.460  0.00  0.00    +0.000 Cl
ENDBRANCH  11  15
ENDBRANCH   4   7
BRANCH   1  22
ATOM     22  O   UNL     1       3.277   5.052  18.095  0.00  0.00    +0.000 OA
BRANCH  22  27
ATOM     23  C   UNL     1       6.360   4.983  16.041  0.00  0.00    +0.000 A 
ATOM     24  C   UNL     1       7.320   5.044  17.057  0.00  0.00    +0.000 A 
ATOM     25  C   UNL     1       6.925   5.137  18.392  0.00  0.00    +0.000 A 
ATOM     26  C   UNL     1       5.566   5.138  18.721  0.00  0.00    +0.000 A 
ATOM     27  C   UNL     1       4.605   5.070  17.711  0.00  0.00    +0.000 A 
ATOM     28  C   UNL     1       5.004   5.038  16.369  0.00  0.00    +0.000 A 
BRANCH  23  30
ATOM     29  N   UNL     1       6.066   3.910  13.866  0.00  0.00    +0.000 N 
ATOM     30  C   UNL     1       6.811   4.772  14.640  0.00  0.00    +0.000 C 
ATOM     31  O   UNL     1       7.808   5.359  14.236  0.00  0.00    +0.000 OA
ATOM     32  H   UNL     1       5.187   3.545  14.205  0.00  0.00    +0.000 HD
BRANCH  29  33
ATOM     33  C   UNL     1       6.392   3.673  12.484  0.00  0.00    +0.000 C 
BRANCH  33  35
ATOM     34  C   UNL     1       4.257   3.198  11.260  0.00  0.00    +0.000 C 
ATOM     35  C   UNL     1       5.345   2.771  11.913  0.00  0.00    +0.000 C 
ENDBRANCH  33  35
ENDBRANCH  29  33
ENDBRANCH  23  30
ENDBRANCH  22  27
ENDBRANCH   1  22
TORSDOF 7
ENDMDL
MODEL 2
REMARK VINA RESULT:      -9.0      0.483      1.033
REMARK  Name = 
REMARK  7 active torsions:
REMARK  status: ('A' for Active; 'I' for Inactive)
REMARK    1  A    between atoms: C_2  and  C_3
REMARK    2  A    between atoms: C_3  and  N_4
REMARK    3  A    between atoms: C_5  and  C_7
REMARK    4  A    between atoms: C_11  and  O_12
REMARK    5  A    between atoms: O_12  and  C_13
REMARK    6  A    between atoms: C_16  and  N_17
REMARK    7  A    between atoms: C_21  and  C_23
REMARK                            x       y       z     vdW  Elec       q    Type
REMARK                         _______ _______ _______ _____ _____    ______ ____
ROOT
ATOM      1  C   UNL     1       2.776   5.852  18.542  0.00  0.00    +0.000 A 
ATOM      2  C   UNL     1       2.303   5.909  19.849  0.00  0.00    +0.000 A 
ATOM      3  C   UNL     1       1.659   7.039  20.326  0.00  0.00    +0.000 A 
ATOM      4  C   UNL     1       1.555   8.175  19.534  0.00  0.00    +0.000 A 
ATOM      5  C   UNL     1       2.030   8.139  18.215  0.00  0.00    +0.000 A 
ATOM      6  C   UNL     1       2.650   6.982  17.719  0.00  0.00    +0.000 A 
ENDROOT
BRANCH   4   7
ATOM      7  N   UNL     1       1.002   9.356  20.038  0.00  0.00    +0.000 N 
ATOM      8  C   UNL     1       0.041  10.141  19.442  0.00  0.00    +0.000 C 
ATOM      9  O   UNL     1      -0.497   9.951  18.352  0.00  0.00    +0.000 OA
ATOM     10  N   UNL     1      -0.361  11.241  20.174  0.00  0.00    +0.000 N 
ATOM     11  C   UNL     1       0.139  11.610  21.401  0.00  0.00    +0.000 C 
ATOM     12  O   UNL     1       0.937  10.919  22.030  0.00  0.00    +0.000 OA
ATOM     13  H   UNL     1       1.230   9.600  21.001  0.00  0.00    +0.000 HD
ATOM     14  H   UNL     1      -1.078  11.781  19.719  0.00  0.00    +0.000 HD
BRANCH  11  15
ATOM     15  C   UNL     1      -0.265  12.902  22.002  0.00  0.00    +0.000 A 
ATOM     16  C   UNL     1       0.605  13.967  21.704  0.00  0.00    +0.000 A 
ATOM     17  C   UNL     1       0.437  15.220  22.281  0.00  0.00    +0.000 A 
ATOM     18  C   UNL     1      -0.617  15.433  23.162  0.00  0.00    +0.000 A 
ATOM     19  C   UNL     1      -1.505  14.393  23.447  0.00  0.00    +0.000 A 
ATOM     20  C   UNL     1      -1.337  13.125  22.869  0.00  0.00    +0.000 A 
ATOM     21 CL   UNL     1      -2.464  11.900  23.325  0.00  0.00    +0.000 Cl
ENDBRANCH  11  15
ENDBRANCH   4   7
BRANCH   1  22
ATOM     22  O   UNL     1       3.390   4.740  18.006  0.00  0.00    +0.000 OA
BRANCH  22  27
ATOM     23  C   UNL     1       6.452   4.894  15.925  0.00  0.00    +0.000 A 
ATOM     24  C   UNL     1       7.415   5.020  16.933  0.00  0.00    +0.000 A 
ATOM     25  C   UNL     1       7.025   5.080  18.272  0.00  0.00    +0.000 A 
ATOM     26  C   UNL     1       5.672   4.984  18.612  0.00  0.00    +0.000 A 
ATOM     27  C   UNL     1       4.710   4.853  17.611  0.00  0.00    +0.000 A 
ATOM     28  C   UNL     1       5.098   4.852  16.265  0.00  0.00    +0.000 A 
BRANCH  23  30
ATOM     29  N   UNL     1       6.280   3.743  13.778  0.00  0.00    +0.000 N 
ATOM     30  C   UNL     1       6.904   4.721  14.519  0.00  0.00    +0.000 C 
ATOM     31  O   UNL     1       7.798   5.438  14.084  0.00  0.00    +0.000 OA
ATOM     32  H   UNL     1       5.470   3.260  14.142  0.00  0.00    +0.000 HD
BRANCH  29  33
ATOM     33  C   UNL     1       6.613   3.524  12.395  0.00  0.00    +0.000 C 
BRANCH  33  35
ATOM     34  C   UNL     1       6.016   1.418  11.175  0.00  0.00    +0.000 C 
ATOM     35  C   UNL     1       5.653   2.520  11.843  0.00  0.00    +0.000 C 
ENDBRANCH  33  35
ENDBRANCH  29  33
ENDBRANCH  23  30
ENDBRANCH  22  27
ENDBRANCH   1  22
TORSDOF 7
ENDMDL
MODEL 3
REMARK VINA RESULT:      -8.9      1.116      1.473
REMARK  Name = 
REMARK  7 active torsions:
REMARK  status: ('A' for Active; 'I' for Inactive)
REMARK    1  A    between atoms: C_2  and  C_3
REMARK    2  A    between atoms: C_3  and  N_4
REMARK    3  A    between atoms: C_5  and  C_7
REMARK    4  A    between atoms: C_11  and  O_12
REMARK    5  A    between atoms: O_12  and  C_13
REMARK    6  A    between atoms: C_16  and  N_17
REMARK    7  A    between atoms: C_21  and  C_23
REMARK                            x       y       z     vdW  Elec       q    Type
REMARK                         _______ _______ _______ _____ _____    ______ ____
ROOT
ATOM      1  C   UNL     1       2.958   5.785  18.727  0.00  0.00    +0.000 A 
ATOM      2  C   UNL     1       2.909   6.976  18.010  0.00  0.00    +0.000 A 
ATOM      3  C   UNL     1       2.327   8.111  18.552  0.00  0.00    +0.000 A 
ATOM      4  C   UNL     1       1.696   8.054  19.787  0.00  0.00    +0.000 A 
ATOM      5  C   UNL     1       1.730   6.861  20.523  0.00  0.00    +0.000 A 
ATOM      6  C   UNL     1       2.352   5.721  19.991  0.00  0.00    +0.000 A 
ENDROOT
BRANCH   4   7
ATOM      7  N   UNL     1       1.014   9.163  20.299  0.00  0.00    +0.000 N 
ATOM      8  C   UNL     1       0.168  10.004  19.612  0.00  0.00    +0.000 C 
ATOM      9  O   UNL     1      -0.133   9.939  18.422  0.00  0.00    +0.000 OA
ATOM     10  N   UNL     1      -0.409  11.006  20.367  0.00  0.00    +0.000 N 
ATOM     11  C   UNL     1      -0.178  11.234  21.704  0.00  0.00    +0.000 C 
ATOM     12  O   UNL     1       0.499  10.480  22.400  0.00  0.00    +0.000 OA
ATOM     13  H   UNL     1       1.036   9.295  21.310  0.00  0.00    +0.000 HD
ATOM     14  H   UNL     1      -1.037  11.590  19.840  0.00  0.00    +0.000 HD
BRANCH  11  15
ATOM     15  C   UNL     1      -0.736  12.442  22.352  0.00  0.00    +0.000 A 
ATOM     16  C   UNL     1      -1.955  12.220  23.020  0.00  0.00    +0.000 A 
ATOM     17  C   UNL     1      -2.672  13.269  23.583  0.00  0.00    +0.000 A 
ATOM     18  C   UNL     1      -2.174  14.563  23.496  0.00  0.00    +0.000 A 
ATOM     19  C   UNL     1      -0.953  14.797  22.861  0.00  0.00    +0.000 A 
ATOM     20  C   UNL     1      -0.227  13.741  22.288  0.00  0.00    +0.000 A 
ATOM     21 CL   UNL     1       1.247  14.147  21.486  0.00  0.00    +0.000 Cl
ENDBRANCH  11  15
ENDBRANCH   4   7
BRANCH   1  22
ATOM     22  O   UNL     1       3.558   4.638  18.251  0.00  0.00    +0.000 OA
BRANCH  22  27
ATOM     23  C   UNL     1       6.464   4.822  15.960  0.00  0.00    +0.000 A 
ATOM     24  C   UNL     1       7.501   4.854  16.899  0.00  0.00    +0.000 A 
ATOM     25  C   UNL     1       7.213   4.844  18.265  0.00  0.00    +0.000 A 
ATOM     26  C   UNL     1       5.885   4.771  18.699  0.00  0.00    +0.000 A 
ATOM     27  C   UNL     1       4.849   4.732  17.766  0.00  0.00    +0.000 A 
ATOM     28  C   UNL     1       5.138   4.803  16.397  0.00  0.00    +0.000 A 
BRANCH  23  30
ATOM     29  N   UNL     1       6.000   3.922  13.737  0.00  0.00    +0.000 N 
ATOM     30  C   UNL     1       6.806   4.721  14.517  0.00  0.00    +0.000 C 
ATOM     31  O   UNL     1       7.773   5.339  14.085  0.00  0.00    +0.000 OA
ATOM     32  H   UNL     1       5.148   3.530  14.112  0.00  0.00    +0.000 HD
BRANCH  29  33
ATOM     33  C   UNL     1       6.219   3.792  12.320  0.00  0.00    +0.000 C 
BRANCH  33  35
ATOM     34  C   UNL     1       6.968   1.746  11.082  0.00  0.00    +0.000 C 
ATOM     35  C   UNL     1       6.168   2.338  11.977  0.00  0.00    +0.000 C 
ENDBRANCH  33  35
ENDBRANCH  29  33
ENDBRANCH  23  30
ENDBRANCH  22  27
ENDBRANCH   1  22
TORSDOF 7
ENDMDL
MODEL 4
REMARK VINA RESULT:      -8.9      1.538      2.130
REMARK  Name = 
REMARK  7 active torsions:
REMARK  status: ('A' for Active; 'I' for Inactive)
REMARK    1  A    between atoms: C_2  and  C_3
REMARK    2  A    between atoms: C_3  and  N_4
REMARK    3  A    between atoms: C_5  and  C_7
REMARK    4  A    between atoms: C_11  and  O_12
REMARK    5  A    between atoms: O_12  and  C_13
REMARK    6  A    between atoms: C_16  and  N_17
REMARK    7  A    between atoms: C_21  and  C_23
REMARK                            x       y       z     vdW  Elec       q    Type
REMARK                         _______ _______ _______ _____ _____    ______ ____
ROOT
ATOM      1  C   UNL     1       2.859   5.626  19.196  0.00  0.00    +0.000 A 
ATOM      2  C   UNL     1       2.160   5.573  20.398  0.00  0.00    +0.000 A 
ATOM      3  C   UNL     1       1.426   6.661  20.843  0.00  0.00    +0.000 A 
ATOM      4  C   UNL     1       1.451   7.859  20.143  0.00  0.00    +0.000 A 
ATOM      5  C   UNL     1       2.154   7.933  18.932  0.00  0.00    +0.000 A 
ATOM      6  C   UNL     1       2.868   6.821  18.460  0.00  0.00    +0.000 A 
ENDROOT
BRANCH   4   7
ATOM      7  N   UNL     1       0.801   8.995  20.636  0.00  0.00    +0.000 N 
ATOM      8  C   UNL     1       1.060   9.651  21.819  0.00  0.00    +0.000 C 
ATOM      9  O   UNL     1       1.904   9.349  22.661  0.00  0.00    +0.000 OA
ATOM     10  N   UNL     1       0.293  10.776  22.050  0.00  0.00    +0.000 N 
ATOM     11  C   UNL     1      -0.700  11.250  21.225  0.00  0.00    +0.000 C 
ATOM     12  O   UNL     1      -0.933  10.767  20.119  0.00  0.00    +0.000 OA
ATOM     13  H   UNL     1       0.156   9.471  20.004  0.00  0.00    +0.000 HD
ATOM     14  H   UNL     1       0.522  11.242  22.912  0.00  0.00    +0.000 HD
BRANCH  11  15
ATOM     15  C   UNL     1      -1.554  12.373  21.673  0.00  0.00    +0.000 A 
ATOM     16  C   UNL     1      -2.334  12.080  22.807  0.00  0.00    +0.000 A 
ATOM     17  C   UNL     1      -3.276  12.982  23.288  0.00  0.00    +0.000 A 
ATOM     18  C   UNL     1      -3.445  14.203  22.647  0.00  0.00    +0.000 A 
ATOM     19  C   UNL     1      -2.660  14.520  21.537  0.00  0.00    +0.000 A 
ATOM     20  C   UNL     1      -1.710  13.611  21.045  0.00  0.00    +0.000 A 
ATOM     21 CL   UNL     1      -0.826  14.085  19.640  0.00  0.00    +0.000 Cl
ENDBRANCH  11  15
ENDBRANCH   4   7
BRANCH   1  22
ATOM     22  O   UNL     1       3.574   4.561  18.689  0.00  0.00    +0.000 OA
BRANCH  22  27
ATOM     23  C   UNL     1       6.407   4.948  16.332  0.00  0.00    +0.000 A 
ATOM     24  C   UNL     1       7.425   5.265  17.239  0.00  0.00    +0.000 A 
ATOM     25  C   UNL     1       7.143   5.372  18.602  0.00  0.00    +0.000 A 
ATOM     26  C   UNL     1       5.847   5.132  19.069  0.00  0.00    +0.000 A 
ATOM     27  C   UNL     1       4.831   4.810  18.169  0.00  0.00    +0.000 A 
ATOM     28  C   UNL     1       5.103   4.762  16.796  0.00  0.00    +0.000 A 
BRANCH  23  30
ATOM     29  N   UNL     1       6.098   3.723  14.242  0.00  0.00    +0.000 N 
ATOM     30  C   UNL     1       6.761   4.732  14.904  0.00  0.00    +0.000 C 
ATOM     31  O   UNL     1       7.612   5.444  14.383  0.00  0.00    +0.000 OA
ATOM     32  H   UNL     1       5.323   3.245  14.678  0.00  0.00    +0.000 HD
BRANCH  29  33
ATOM     33  C   UNL     1       6.335   3.462  12.846  0.00  0.00    +0.000 C 
BRANCH  33  35
ATOM     34  C   UNL     1       4.470   2.839  11.293  0.00  0.00    +0.000 C 
ATOM     35  C   UNL     1       5.062   3.722  12.107  0.00  0.00    +0.000 C 
ENDBRANCH  33  35
ENDBRANCH  29  33
ENDBRANCH  23  30
ENDBRANCH  22  27
ENDBRANCH   1  22
TORSDOF 7
ENDMDL
MODEL 5
REMARK VINA RESULT:      -8.8      1.233      1.516
REMARK  Name = 
REMARK  7 active torsions:
REMARK  status: ('A' for Active; 'I' for Inactive)
REMARK    1  A    between atoms: C_2  and  C_3
REMARK    2  A    between atoms: C_3  and  N_4
REMARK    3  A    between atoms: C_5  and  C_7
REMARK    4  A    between atoms: C_11  and  O_12
REMARK    5  A    between atoms: O_12  and  C_13
REMARK    6  A    between atoms: C_16  and  N_17
REMARK    7  A    between atoms: C_21  and  C_23
REMARK                            x       y       z     vdW  Elec       q    Type
REMARK                         _______ _______ _______ _____ _____    ______ ____
ROOT
ATOM      1  C   UNL     1       2.818   6.107  18.661  0.00  0.00    +0.000 A 
ATOM      2  C   UNL     1       2.716   7.259  17.888  0.00  0.00    +0.000 A 
ATOM      3  C   UNL     1       2.172   8.421  18.410  0.00  0.00    +0.000 A 
ATOM      4  C   UNL     1       1.630   8.431  19.688  0.00  0.00    +0.000 A 
ATOM      5  C   UNL     1       1.719   7.277  20.481  0.00  0.00    +0.000 A 
ATOM      6  C   UNL     1       2.303   6.110  19.966  0.00  0.00    +0.000 A 
ENDROOT
BRANCH   4   7
ATOM      7  N   UNL     1       0.984   9.566  20.188  0.00  0.00    +0.000 N 
ATOM      8  C   UNL     1       0.936   9.982  21.500  0.00  0.00    +0.000 C 
ATOM      9  O   UNL     1       1.444   9.424  22.471  0.00  0.00    +0.000 OA
ATOM     10  N   UNL     1       0.259  11.165  21.719  0.00  0.00    +0.000 N 
ATOM     11  C   UNL     1      -0.377  11.913  20.755  0.00  0.00    +0.000 C 
ATOM     12  O   UNL     1      -0.310  11.649  19.557  0.00  0.00    +0.000 OA
ATOM     13  H   UNL     1       0.619  10.229  19.505  0.00  0.00    +0.000 HD
ATOM     14  H   UNL     1       0.260  11.450  22.684  0.00  0.00    +0.000 HD
BRANCH  11  15
ATOM     15  C   UNL     1      -1.204  13.075  21.152  0.00  0.00    +0.000 A 
ATOM     16  C   UNL     1      -0.567  13.945  22.058  0.00  0.00    +0.000 A 
ATOM     17  C   UNL     1      -1.243  15.021  22.621  0.00  0.00    +0.000 A 
ATOM     18  C   UNL     1      -2.569  15.254  22.277  0.00  0.00    +0.000 A 
ATOM     19  C   UNL     1      -3.206  14.416  21.359  0.00  0.00    +0.000 A 
ATOM     20  C   UNL     1      -2.529  13.326  20.790  0.00  0.00    +0.000 A 
ATOM     21 CL   UNL     1      -3.424  12.328  19.703  0.00  0.00    +0.000 Cl
ENDBRANCH  11  15
ENDBRANCH   4   7
BRANCH   1  22
ATOM     22  O   UNL     1       3.385   4.935  18.203  0.00  0.00    +0.000 OA
BRANCH  22  27
ATOM     23  C   UNL     1       6.420   4.924  16.078  0.00  0.00    +0.000 A 
ATOM     24  C   UNL     1       7.403   4.971  17.073  0.00  0.00    +0.000 A 
ATOM     25  C   UNL     1       7.038   5.036  18.419  0.00  0.00    +0.000 A 
ATOM     26  C   UNL     1       5.687   5.023  18.778  0.00  0.00    +0.000 A 
ATOM     27  C   UNL     1       4.703   4.969  17.790  0.00  0.00    +0.000 A 
ATOM     28  C   UNL     1       5.072   4.964  16.438  0.00  0.00    +0.000 A 
BRANCH  23  30
ATOM     29  N   UNL     1       6.175   3.785  13.932  0.00  0.00    +0.000 N 
ATOM     30  C   UNL     1       6.840   4.743  14.663  0.00  0.00    +0.000 C 
ATOM     31  O   UNL     1       7.744   5.437  14.213  0.00  0.00    +0.000 OA
ATOM     32  H   UNL     1       5.360   3.324  14.310  0.00  0.00    +0.000 HD
BRANCH  29  33
ATOM     33  C   UNL     1       6.475   3.563  12.541  0.00  0.00    +0.000 C 
BRANCH  33  35
ATOM     34  C   UNL     1       4.272   3.304  11.375  0.00  0.00    +0.000 C 
ATOM     35  C   UNL     1       5.355   2.768  11.950  0.00  0.00    +0.000 C 
ENDBRANCH  33  35
ENDBRANCH  29  33
ENDBRANCH  23  30
ENDBRANCH  22  27
ENDBRANCH   1  22
TORSDOF 7
ENDMDL
MODEL 6
REMARK VINA RESULT:      -8.7      1.165      1.696
REMARK  Name = 
REMARK  7 active torsions:
REMARK  status: ('A' for Active; 'I' for Inactive)
REMARK    1  A    between atoms: C_2  and  C_3
REMARK    2  A    between atoms: C_3  and  N_4
REMARK    3  A    between atoms: C_5  and  C_7
REMARK    4  A    between atoms: C_11  and  O_12
REMARK    5  A    between atoms: O_12  and  C_13
REMARK    6  A    between atoms: C_16  and  N_17
REMARK    7  A    between atoms: C_21  and  C_23
REMARK                            x       y       z     vdW  Elec       q    Type
REMARK                         _______ _______ _______ _____ _____    ______ ____
ROOT
ATOM      1  C   UNL     1       2.883   5.757  19.123  0.00  0.00    +0.000 A 
ATOM      2  C   UNL     1       2.175   5.803  20.320  0.00  0.00    +0.000 A 
ATOM      3  C   UNL     1       1.473   6.939  20.689  0.00  0.00    +0.000 A 
ATOM      4  C   UNL     1       1.542   8.089  19.915  0.00  0.00    +0.000 A 
ATOM      5  C   UNL     1       2.254   8.064  18.707  0.00  0.00    +0.000 A 
ATOM      6  C   UNL     1       2.935   6.902  18.313  0.00  0.00    +0.000 A 
ENDROOT
BRANCH   4   7
ATOM      7  N   UNL     1       0.925   9.274  20.329  0.00  0.00    +0.000 N 
ATOM      8  C   UNL     1       1.038   9.880  21.561  0.00  0.00    +0.000 C 
ATOM      9  O   UNL     1       1.693   9.483  22.522  0.00  0.00    +0.000 OA
ATOM     10  N   UNL     1       0.351  11.070  21.698  0.00  0.00    +0.000 N 
ATOM     11  C   UNL     1      -0.437  11.654  20.734  0.00  0.00    +0.000 C 
ATOM     12  O   UNL     1      -0.522  11.216  19.589  0.00  0.00    +0.000 OA
ATOM     13  H   UNL     1       0.446   9.821  19.615  0.00  0.00    +0.000 HD
ATOM     14  H   UNL     1       0.471  11.496  22.602  0.00  0.00    +0.000 HD
BRANCH  11  15
ATOM     15  C   UNL     1      -1.247  12.847  21.069  0.00  0.00    +0.000 A 
ATOM     16  C   UNL     1      -1.019  13.948  20.222  0.00  0.00    +0.000 A 
ATOM     17  C   UNL     1      -1.609  15.182  20.467  0.00  0.00    +0.000 A 
ATOM     18  C   UNL     1      -2.453  15.333  21.562  0.00  0.00    +0.000 A 
ATOM     19  C   UNL     1      -2.711  14.243  22.395  0.00  0.00    +0.000 A 
ATOM     20  C   UNL     1      -2.114  12.996  22.154  0.00  0.00    +0.000 A 
ATOM     21 CL   UNL     1      -2.465  11.729  23.273  0.00  0.00    +0.000 Cl
ENDBRANCH  11  15
ENDBRANCH   4   7
BRANCH   1  22
ATOM     22  O   UNL     1       3.566   4.639  18.689  0.00  0.00    +0.000 OA
BRANCH  22  27
ATOM     23  C   UNL     1       6.443   4.885  16.368  0.00  0.00    +0.000 A 
ATOM     24  C   UNL     1       7.472   5.106  17.292  0.00  0.00    +0.000 A 
ATOM     25  C   UNL     1       7.184   5.198  18.655  0.00  0.00    +0.000 A 
ATOM     26  C   UNL     1       5.869   5.038  19.104  0.00  0.00    +0.000 A 
ATOM     27  C   UNL     1       4.842   4.812  18.187  0.00  0.00    +0.000 A 
ATOM     28  C   UNL     1       5.125   4.780  16.815  0.00  0.00    +0.000 A 
BRANCH  23  30
ATOM     29  N   UNL     1       6.050   3.762  14.236  0.00  0.00    +0.000 N 
ATOM     30  C   UNL     1       6.796   4.682  14.938  0.00  0.00    +0.000 C 
ATOM     31  O   UNL     1       7.719   5.325  14.450  0.00  0.00    +0.000 OA
ATOM     32  H   UNL     1       5.227   3.346  14.647  0.00  0.00    +0.000 HD
BRANCH  29  33
ATOM     33  C   UNL     1       6.281   3.524  12.835  0.00  0.00    +0.000 C 
BRANCH  33  35
ATOM     34  C   UNL     1       4.445   2.798  11.292  0.00  0.00    +0.000 C 
ATOM     35  C   UNL     1       4.983   3.705  12.116  0.00  0.00    +0.000 C 
ENDBRANCH  33  35
ENDBRANCH  29  33
ENDBRANCH  23  30
ENDBRANCH  22  27
ENDBRANCH   1  22
TORSDOF 7
ENDMDL
MODEL 7
REMARK VINA RESULT:      -8.7      1.306      1.544
REMARK  Name = 
REMARK  7 active torsions:
REMARK  status: ('A' for Active; 'I' for Inactive)
REMARK    1  A    between atoms: C_2  and  C_3
REMARK    2  A    between atoms: C_3  and  N_4
REMARK    3  A    between atoms: C_5  and  C_7
REMARK    4  A    between atoms: C_11  and  O_12
REMARK    5  A    between atoms: O_12  and  C_13
REMARK    6  A    between atoms: C_16  and  N_17
REMARK    7  A    between atoms: C_21  and  C_23
REMARK                            x       y       z     vdW  Elec       q    Type
REMARK                         _______ _______ _______ _____ _____    ______ ____
ROOT
ATOM      1  C   UNL     1       2.676   6.469  18.626  0.00  0.00    +0.000 A 
ATOM      2  C   UNL     1       2.529   7.570  17.789  0.00  0.00    +0.000 A 
ATOM      3  C   UNL     1       2.036   8.771  18.272  0.00  0.00    +0.000 A 
ATOM      4  C   UNL     1       1.590   8.871  19.583  0.00  0.00    +0.000 A 
ATOM      5  C   UNL     1       1.726   7.770  20.441  0.00  0.00    +0.000 A 
ATOM      6  C   UNL     1       2.259   6.563  19.963  0.00  0.00    +0.000 A 
ENDROOT
BRANCH   4   7
ATOM      7  N   UNL     1       0.993  10.045  20.053  0.00  0.00    +0.000 N 
ATOM      8  C   UNL     1      -0.304  10.457  19.844  0.00  0.00    +0.000 C 
ATOM      9  O   UNL     1      -1.169   9.872  19.195  0.00  0.00    +0.000 OA
ATOM     10  N   UNL     1      -0.651  11.646  20.455  0.00  0.00    +0.000 N 
ATOM     11  C   UNL     1       0.190  12.435  21.204  0.00  0.00    +0.000 C 
ATOM     12  O   UNL     1       1.333  12.095  21.501  0.00  0.00    +0.000 OA
ATOM     13  H   UNL     1       1.523  10.596  20.728  0.00  0.00    +0.000 HD
ATOM     14  H   UNL     1      -1.611  11.908  20.298  0.00  0.00    +0.000 HD
BRANCH  11  15
ATOM     15  C   UNL     1      -0.268  13.766  21.666  0.00  0.00    +0.000 A 
ATOM     16  C   UNL     1      -1.142  13.718  22.768  0.00  0.00    +0.000 A 
ATOM     17  C   UNL     1      -1.755  14.866  23.254  0.00  0.00    +0.000 A 
ATOM     18  C   UNL     1      -1.493  16.091  22.650  0.00  0.00    +0.000 A 
ATOM     19  C   UNL     1      -0.606  16.159  21.574  0.00  0.00    +0.000 A 
ATOM     20  C   UNL     1       0.012  15.001  21.077  0.00  0.00    +0.000 A 
ATOM     21 CL   UNL     1       1.054  15.192  19.714  0.00  0.00    +0.000 Cl
ENDBRANCH  11  15
ENDBRANCH   4   7
BRANCH   1  22
ATOM     22  O   UNL     1       3.196   5.262  18.206  0.00  0.00    +0.000 OA
BRANCH  22  27
ATOM     23  C   UNL     1       6.281   5.007  16.169  0.00  0.00    +0.000 A 
ATOM     24  C   UNL     1       7.240   5.087  17.184  0.00  0.00    +0.000 A 
ATOM     25  C   UNL     1       6.844   5.254  18.513  0.00  0.00    +0.000 A 
ATOM     26  C   UNL     1       5.485   5.310  18.836  0.00  0.00    +0.000 A 
ATOM     27  C   UNL     1       4.525   5.224  17.827  0.00  0.00    +0.000 A 
ATOM     28  C   UNL     1       4.926   5.116  16.489  0.00  0.00    +0.000 A 
BRANCH  23  30
ATOM     29  N   UNL     1       6.101   3.683  14.124  0.00  0.00    +0.000 N 
ATOM     30  C   UNL     1       6.729   4.718  14.781  0.00  0.00    +0.000 C 
ATOM     31  O   UNL     1       7.622   5.395  14.286  0.00  0.00    +0.000 OA
ATOM     32  H   UNL     1       5.292   3.234  14.528  0.00  0.00    +0.000 HD
BRANCH  29  33
ATOM     33  C   UNL     1       6.429   3.352  12.762  0.00  0.00    +0.000 C 
BRANCH  33  35
ATOM     34  C   UNL     1       4.326   3.064  11.430  0.00  0.00    +0.000 C 
ATOM     35  C   UNL     1       5.318   3.838  11.889  0.00  0.00    +0.000 C 
ENDBRANCH  33  35
ENDBRANCH  29  33
ENDBRANCH  23  30
ENDBRANCH  22  27
ENDBRANCH   1  22
TORSDOF 7
ENDMDL
MODEL 8
REMARK VINA RESULT:      -8.7      1.440      1.860
REMARK  Name = 
REMARK  7 active torsions:
REMARK  status: ('A' for Active; 'I' for Inactive)
REMARK    1  A    between atoms: C_2  and  C_3
REMARK    2  A    between atoms: C_3  and  N_4
REMARK    3  A    between atoms: C_5  and  C_7
REMARK    4  A    between atoms: C_11  and  O_12
REMARK    5  A    between atoms: O_12  and  C_13
REMARK    6  A    between atoms: C_16  and  N_17
REMARK    7  A    between atoms: C_21  and  C_23
REMARK                            x       y       z     vdW  Elec       q    Type
REMARK                         _______ _______ _______ _____ _____    ______ ____
ROOT
ATOM      1  C   UNL     1       2.955   5.649  19.048  0.00  0.00    +0.000 A 
ATOM      2  C   UNL     1       2.377   5.652  20.314  0.00  0.00    +0.000 A 
ATOM      3  C   UNL     1       1.672   6.753  20.773  0.00  0.00    +0.000 A 
ATOM      4  C   UNL     1       1.611   7.914  20.014  0.00  0.00    +0.000 A 
ATOM      5  C   UNL     1       2.191   7.932  18.738  0.00  0.00    +0.000 A 
ATOM      6  C   UNL     1       2.874   6.804  18.256  0.00  0.00    +0.000 A 
ENDROOT
BRANCH   4   7
ATOM      7  N   UNL     1       0.994   9.066  20.510  0.00  0.00    +0.000 N 
ATOM      8  C   UNL     1      -0.111   9.128  21.329  0.00  0.00    +0.000 C 
ATOM      9  O   UNL     1      -0.761   8.180  21.765  0.00  0.00    +0.000 OA
ATOM     10  N   UNL     1      -0.496  10.400  21.706  0.00  0.00    +0.000 N 
ATOM     11  C   UNL     1       0.107  11.569  21.305  0.00  0.00    +0.000 C 
ATOM     12  O   UNL     1       1.141  11.591  20.642  0.00  0.00    +0.000 OA
ATOM     13  H   UNL     1       1.479   9.952  20.362  0.00  0.00    +0.000 HD
ATOM     14  H   UNL     1      -1.293  10.408  22.320  0.00  0.00    +0.000 HD
BRANCH  11  15
ATOM     15  C   UNL     1      -0.508  12.871  21.653  0.00  0.00    +0.000 A 
ATOM     16  C   UNL     1      -0.944  12.957  22.989  0.00  0.00    +0.000 A 
ATOM     17  C   UNL     1      -1.646  14.064  23.449  0.00  0.00    +0.000 A 
ATOM     18  C   UNL     1      -1.915  15.115  22.580  0.00  0.00    +0.000 A 
ATOM     19  C   UNL     1      -1.466  15.057  21.259  0.00  0.00    +0.000 A 
ATOM     20  C   UNL     1      -0.759  13.938  20.789  0.00  0.00    +0.000 A 
ATOM     21 CL   UNL     1      -0.291  13.949  19.128  0.00  0.00    +0.000 Cl
ENDBRANCH  11  15
ENDBRANCH   4   7
BRANCH   1  22
ATOM     22  O   UNL     1       3.634   4.567  18.528  0.00  0.00    +0.000 OA
BRANCH  22  27
ATOM     23  C   UNL     1       6.471   4.939  16.175  0.00  0.00    +0.000 A 
ATOM     24  C   UNL     1       7.509   5.151  17.090  0.00  0.00    +0.000 A 
ATOM     25  C   UNL     1       7.239   5.195  18.459  0.00  0.00    +0.000 A 
ATOM     26  C   UNL     1       5.935   4.997  18.922  0.00  0.00    +0.000 A 
ATOM     27  C   UNL     1       4.899   4.779  18.013  0.00  0.00    +0.000 A 
ATOM     28  C   UNL     1       5.162   4.794  16.637  0.00  0.00    +0.000 A 
BRANCH  23  30
ATOM     29  N   UNL     1       6.003   3.949  13.991  0.00  0.00    +0.000 N 
ATOM     30  C   UNL     1       6.806   4.786  14.734  0.00  0.00    +0.000 C 
ATOM     31  O   UNL     1       7.764   5.396  14.273  0.00  0.00    +0.000 OA
ATOM     32  H   UNL     1       5.158   3.564  14.387  0.00  0.00    +0.000 HD
BRANCH  29  33
ATOM     33  C   UNL     1       6.215   3.767  12.579  0.00  0.00    +0.000 C 
BRANCH  33  35
ATOM     34  C   UNL     1       4.286   3.188  11.088  0.00  0.00    +0.000 C 
ATOM     35  C   UNL     1       5.142   2.863  12.065  0.00  0.00    +0.000 C 
ENDBRANCH  33  35
ENDBRANCH  29  33
ENDBRANCH  23  30
ENDBRANCH  22  27
ENDBRANCH   1  22
TORSDOF 7
ENDMDL
MODEL 9
REMARK VINA RESULT:      -8.6      2.311      3.887
REMARK  Name = 
REMARK  7 active torsions:
REMARK  status: ('A' for Active; 'I' for Inactive)
REMARK    1  A    between atoms: C_2  and  C_3
REMARK    2  A    between atoms: C_3  and  N_4
REMARK    3  A    between atoms: C_5  and  C_7
REMARK    4  A    between atoms: C_11  and  O_12
REMARK    5  A    between atoms: O_12  and  C_13
REMARK    6  A    between atoms: C_16  and  N_17
REMARK    7  A    between atoms: C_21  and  C_23
REMARK                            x       y       z     vdW  Elec       q    Type
REMARK                         _______ _______ _______ _____ _____    ______ ____
ROOT
ATOM      1  C   UNL     1       5.020   5.081  16.867  0.00  0.00    +0.000 A 
ATOM      2  C   UNL     1       3.801   4.689  17.409  0.00  0.00    +0.000 A 
ATOM      3  C   UNL     1       2.886   5.627  17.859  0.00  0.00    +0.000 A 
ATOM      4  C   UNL     1       3.210   6.977  17.865  0.00  0.00    +0.000 A 
ATOM      5  C   UNL     1       4.436   7.392  17.327  0.00  0.00    +0.000 A 
ATOM      6  C   UNL     1       5.349   6.445  16.837  0.00  0.00    +0.000 A 
ENDROOT
BRANCH   4   7
ATOM      7  N   UNL     1       2.339   7.924  18.413  0.00  0.00    +0.000 N 
ATOM      8  C   UNL     1       1.810   7.926  19.685  0.00  0.00    +0.000 C 
ATOM      9  O   UNL     1       1.999   7.088  20.564  0.00  0.00    +0.000 OA
ATOM     10  N   UNL     1       1.002   9.004  19.986  0.00  0.00    +0.000 N 
ATOM     11  C   UNL     1       0.674  10.024  19.123  0.00  0.00    +0.000 C 
ATOM     12  O   UNL     1       1.170  10.133  18.004  0.00  0.00    +0.000 OA
ATOM     13  H   UNL     1       2.175   8.772  17.871  0.00  0.00    +0.000 HD
ATOM     14  H   UNL     1       0.649   8.984  20.928  0.00  0.00    +0.000 HD
BRANCH  11  15
ATOM     15  C   UNL     1      -0.332  11.033  19.525  0.00  0.00    +0.000 A 
ATOM     16  C   UNL     1       0.091  11.878  20.568  0.00  0.00    +0.000 A 
ATOM     17  C   UNL     1      -0.772  12.803  21.143  0.00  0.00    +0.000 A 
ATOM     18  C   UNL     1      -2.076  12.907  20.674  0.00  0.00    +0.000 A 
ATOM     19  C   UNL     1      -2.503  12.095  19.621  0.00  0.00    +0.000 A 
ATOM     20  C   UNL     1      -1.636  11.156  19.040  0.00  0.00    +0.000 A 
ATOM     21 CL   UNL     1      -2.280  10.172  17.777  0.00  0.00    +0.000 Cl
ENDBRANCH  11  15
ENDBRANCH   4   7
BRANCH   1  22
ATOM     22  O   UNL     1       5.950   4.192  16.370  0.00  0.00    +0.000 OA
BRANCH  22  27
ATOM     23  C   UNL     1       5.774   3.698  12.702  0.00  0.00    +0.000 A 
ATOM     24  C   UNL     1       6.959   4.339  12.322  0.00  0.00    +0.000 A 
ATOM     25  C   UNL     1       7.770   4.943  13.284  0.00  0.00    +0.000 A 
ATOM     26  C   UNL     1       7.416   4.883  14.636  0.00  0.00    +0.000 A 
ATOM     27  C   UNL     1       6.239   4.240  15.019  0.00  0.00    +0.000 A 
ATOM     28  C   UNL     1       5.396   3.686  14.046  0.00  0.00    +0.000 A 
BRANCH  23  30
ATOM     29  N   UNL     1       3.889   3.614  11.151  0.00  0.00    +0.000 N 
ATOM     30  C   UNL     1       4.990   2.970  11.670  0.00  0.00    +0.000 C 
ATOM     31  O   UNL     1       5.345   1.847  11.329  0.00  0.00    +0.000 OA
ATOM     32  H   UNL     1       3.707   4.581  11.375  0.00  0.00    +0.000 HD
BRANCH  29  33
ATOM     33  C   UNL     1       3.090   3.013  10.115  0.00  0.00    +0.000 C 
BRANCH  33  35
ATOM     34  C   UNL     1       2.201   5.124   9.098  0.00  0.00    +0.000 C 
ATOM     35  C   UNL     1       2.940   4.012   9.012  0.00  0.00    +0.000 C 
ENDBRANCH  33  35
ENDBRANCH  29  33
ENDBRANCH  23  30
ENDBRANCH  22  27
ENDBRANCH   1  22
TORSDOF 7
ENDMDL
