MODEL 1
REMARK VINA RESULT:      -7.3      0.000      0.000
REMARK  Name = 
REMARK  4 active torsions:
REMARK  status: ('A' for Active; 'I' for Inactive)
REMARK    1  A    between atoms: C_1  and  N_2
REMARK    2  A    between atoms: N_2  and  C_3
REMARK    3  A    between atoms: N_2  and  C_4
REMARK    4  A    between atoms: N_13  and  C_14
REMARK                            x       y       z     vdW  Elec       q    Type
REMARK                         _______ _______ _______ _____ _____    ______ ____
ROOT
ATOM      1  C   UNL     1       4.547   5.336  17.630  0.00  0.00    +0.000 A 
ATOM      2  C   UNL     1       5.003   4.014  17.825  0.00  0.00    +0.000 A 
ATOM      3  C   UNL     1       4.498   3.241  18.858  0.00  0.00    +0.000 A 
ATOM      4  N   UNL     1       3.589   3.648  19.751  0.00  0.00    +0.000 NA
ATOM      5  C   UNL     1       3.162   4.910  19.562  0.00  0.00    +0.000 A 
ATOM      6  S   UNL     1       2.031   5.577  20.651  0.00  0.00    +0.000 S 
ATOM      7  C   UNL     1       2.010   7.044  19.811  0.00  0.00    +0.000 A 
ATOM      8  C   UNL     1       1.222   8.189  20.238  0.00  0.00    +0.000 A 
ATOM      9  O   UNL     1       0.544   8.186  21.266  0.00  0.00    +0.000 OA
ATOM     10  N   UNL     1       1.292   9.301  19.345  0.00  0.00    +0.000 N 
ATOM     11  C   UNL     1       2.032   9.230  18.160  0.00  0.00    +0.000 A 
ATOM     12  C   UNL     1       2.754   8.146  17.825  0.00  0.00    +0.000 A 
ATOM     13  C   UNL     1       2.792   7.005  18.677  0.00  0.00    +0.000 A 
ATOM     14  C   UNL     1       3.552   5.790  18.546  0.00  0.00    +0.000 A 
ENDROOT
BRANCH  10  15
ATOM     15  C   UNL     1       0.548  10.476  19.661  0.00  0.00    +0.000 A 
ATOM     16  C   UNL     1       1.108  11.483  20.458  0.00  0.00    +0.000 A 
ATOM     17  C   UNL     1       0.379  12.636  20.755  0.00  0.00    +0.000 A 
ATOM     18  C   UNL     1      -0.925  12.769  20.282  0.00  0.00    +0.000 A 
ATOM     19 BR   UNL     1      -1.929  14.310  20.717  0.00  0.00    +0.000 Br
ATOM     20  C   UNL     1      -1.498  11.771  19.496  0.00  0.00    +0.000 A 
ATOM     21  C   UNL     1      -0.754  10.636  19.167  0.00  0.00    +0.000 A 
ENDBRANCH  10  15
BRANCH   1  23
ATOM     22  C   UNL     1       5.311   5.504  15.306  0.00  0.00    +0.000 C 
ATOM     23  N   UNL     1       5.064   6.152  16.598  0.00  0.00    +0.000 N 
ATOM     24  C   UNL     1       6.162   7.016  17.052  0.00  0.00    +0.000 C 
ENDBRANCH   1  23
TORSDOF 2
ENDMDL
MODEL 2
REMARK VINA RESULT:      -7.1      3.471      7.713
REMARK  Name = 
REMARK  4 active torsions:
REMARK  status: ('A' for Active; 'I' for Inactive)
REMARK    1  A    between atoms: C_1  and  N_2
REMARK    2  A    between atoms: N_2  and  C_3
REMARK    3  A    between atoms: N_2  and  C_4
REMARK    4  A    between atoms: N_13  and  C_14
REMARK                            x       y       z     vdW  Elec       q    Type
REMARK                         _______ _______ _______ _____ _____    ______ ____
ROOT
ATOM      1  C   UNL     1      -0.962  11.895  20.486  0.00  0.00    +0.000 A 
ATOM      2  C   UNL     1      -1.619  12.475  21.592  0.00  0.00    +0.000 A 
ATOM      3  C   UNL     1      -1.500  11.917  22.854  0.00  0.00    +0.000 A 
ATOM      4  N   UNL     1      -0.806  10.810  23.143  0.00  0.00    +0.000 NA
ATOM      5  C   UNL     1      -0.186  10.259  22.085  0.00  0.00    +0.000 A 
ATOM      6  S   UNL     1       0.703   8.819  22.297  0.00  0.00    +0.000 S 
ATOM      7  C   UNL     1       1.128   8.778  20.662  0.00  0.00    +0.000 A 
ATOM      8  C   UNL     1       1.920   7.708  20.077  0.00  0.00    +0.000 A 
ATOM      9  O   UNL     1       2.305   6.733  20.723  0.00  0.00    +0.000 OA
ATOM     10  N   UNL     1       2.225   7.907  18.695  0.00  0.00    +0.000 N 
ATOM     11  C   UNL     1       1.811   9.063  18.024  0.00  0.00    +0.000 A 
ATOM     12  C   UNL     1       1.067  10.013  18.617  0.00  0.00    +0.000 A 
ATOM     13  C   UNL     1       0.665   9.881  19.976  0.00  0.00    +0.000 A 
ATOM     14  C   UNL     1      -0.186  10.731  20.767  0.00  0.00    +0.000 A 
ENDROOT
BRANCH  10  15
ATOM     15  C   UNL     1       3.008   6.924  18.022  0.00  0.00    +0.000 A 
ATOM     16  C   UNL     1       2.622   5.577  18.030  0.00  0.00    +0.000 A 
ATOM     17  C   UNL     1       3.387   4.620  17.360  0.00  0.00    +0.000 A 
ATOM     18  C   UNL     1       4.557   5.003  16.710  0.00  0.00    +0.000 A 
ATOM     19 BR   UNL     1       5.616   3.703  15.837  0.00  0.00    +0.000 Br
ATOM     20  C   UNL     1       4.958   6.338  16.702  0.00  0.00    +0.000 A 
ATOM     21  C   UNL     1       4.173   7.301  17.339  0.00  0.00    +0.000 A 
ENDBRANCH  10  15
BRANCH   1  23
ATOM     22  C   UNL     1      -0.794  13.861  19.031  0.00  0.00    +0.000 C 
ATOM     23  N   UNL     1      -1.087  12.433  19.185  0.00  0.00    +0.000 N 
ATOM     24  C   UNL     1      -2.316  12.000  18.505  0.00  0.00    +0.000 C 
ENDBRANCH   1  23
TORSDOF 2
ENDMDL
MODEL 3
REMARK VINA RESULT:      -7.0      3.489      7.612
REMARK  Name = 
REMARK  4 active torsions:
REMARK  status: ('A' for Active; 'I' for Inactive)
REMARK    1  A    between atoms: C_1  and  N_2
REMARK    2  A    between atoms: N_2  and  C_3
REMARK    3  A    between atoms: N_2  and  C_4
REMARK    4  A    between atoms: N_13  and  C_14
REMARK                            x       y       z     vdW  Elec       q    Type
REMARK                         _______ _______ _______ _____ _____    ______ ____
ROOT
ATOM      1  C   UNL     1      -0.764  11.643  20.266  0.00  0.00    +0.000 A 
ATOM      2  C   UNL     1      -1.457  12.186  21.369  0.00  0.00    +0.000 A 
ATOM      3  C   UNL     1      -1.364  11.596  22.619  0.00  0.00    +0.000 A 
ATOM      4  N   UNL     1      -0.665  10.490  22.898  0.00  0.00    +0.000 NA
ATOM      5  C   UNL     1      -0.011   9.974  21.842  0.00  0.00    +0.000 A 
ATOM      6  S   UNL     1       0.891   8.541  22.041  0.00  0.00    +0.000 S 
ATOM      7  C   UNL     1       1.359   8.547  20.417  0.00  0.00    +0.000 A 
ATOM      8  C   UNL     1       2.179   7.502  19.826  0.00  0.00    +0.000 A 
ATOM      9  O   UNL     1       2.559   6.515  20.457  0.00  0.00    +0.000 OA
ATOM     10  N   UNL     1       2.519   7.741  18.459  0.00  0.00    +0.000 N 
ATOM     11  C   UNL     1       2.108   8.910  17.807  0.00  0.00    +0.000 A 
ATOM     12  C   UNL     1       1.337   9.835  18.404  0.00  0.00    +0.000 A 
ATOM     13  C   UNL     1       0.900   9.662  19.748  0.00  0.00    +0.000 A 
ATOM     14  C   UNL     1       0.019  10.482  20.538  0.00  0.00    +0.000 A 
ENDROOT
BRANCH  10  15
ATOM     15  C   UNL     1       3.332   6.785  17.782  0.00  0.00    +0.000 A 
ATOM     16  C   UNL     1       4.471   7.191  17.075  0.00  0.00    +0.000 A 
ATOM     17  C   UNL     1       5.270   6.248  16.423  0.00  0.00    +0.000 A 
ATOM     18  C   UNL     1       4.910   4.903  16.449  0.00  0.00    +0.000 A 
ATOM     19 BR   UNL     1       5.966   3.631  15.533  0.00  0.00    +0.000 Br
ATOM     20  C   UNL     1       3.774   4.487  17.141  0.00  0.00    +0.000 A 
ATOM     21  C   UNL     1       2.998   5.424  17.825  0.00  0.00    +0.000 A 
ENDBRANCH  10  15
BRANCH   1  23
ATOM     22  C   UNL     1      -0.452  13.614  18.843  0.00  0.00    +0.000 C 
ATOM     23  N   UNL     1      -0.862  12.213  18.977  0.00  0.00    +0.000 N 
ATOM     24  C   UNL     1      -2.131  11.897  18.308  0.00  0.00    +0.000 C 
ENDBRANCH   1  23
TORSDOF 2
ENDMDL
MODEL 4
REMARK VINA RESULT:      -7.0      1.614      3.196
REMARK  Name = 
REMARK  4 active torsions:
REMARK  status: ('A' for Active; 'I' for Inactive)
REMARK    1  A    between atoms: C_1  and  N_2
REMARK    2  A    between atoms: N_2  and  C_3
REMARK    3  A    between atoms: N_2  and  C_4
REMARK    4  A    between atoms: N_13  and  C_14
REMARK                            x       y       z     vdW  Elec       q    Type
REMARK                         _______ _______ _______ _____ _____    ______ ____
ROOT
ATOM      1  C   UNL     1       2.972   4.126  19.517  0.00  0.00    +0.000 A 
ATOM      2  C   UNL     1       3.808   3.224  18.826  0.00  0.00    +0.000 A 
ATOM      3  C   UNL     1       4.552   3.647  17.737  0.00  0.00    +0.000 A 
ATOM      4  N   UNL     1       4.540   4.885  17.230  0.00  0.00    +0.000 NA
ATOM      5  C   UNL     1       3.737   5.739  17.890  0.00  0.00    +0.000 A 
ATOM      6  S   UNL     1       3.591   7.344  17.332  0.00  0.00    +0.000 S 
ATOM      7  C   UNL     1       2.510   7.732  18.571  0.00  0.00    +0.000 A 
ATOM      8  C   UNL     1       1.893   9.042  18.701  0.00  0.00    +0.000 A 
ATOM      9  O   UNL     1       2.082   9.952  17.893  0.00  0.00    +0.000 OA
ATOM     10  N   UNL     1       1.070   9.179  19.861  0.00  0.00    +0.000 N 
ATOM     11  C   UNL     1       0.936   8.130  20.779  0.00  0.00    +0.000 A 
ATOM     12  C   UNL     1       1.522   6.934  20.596  0.00  0.00    +0.000 A 
ATOM     13  C   UNL     1       2.319   6.682  19.443  0.00  0.00    +0.000 A 
ATOM     14  C   UNL     1       2.962   5.464  19.023  0.00  0.00    +0.000 A 
ENDROOT
BRANCH  10  15
ATOM     15  C   UNL     1       0.423  10.428  20.095  0.00  0.00    +0.000 A 
ATOM     16  C   UNL     1      -0.859  10.674  19.585  0.00  0.00    +0.000 A 
ATOM     17  C   UNL     1      -1.492  11.895  19.826  0.00  0.00    +0.000 A 
ATOM     18  C   UNL     1      -0.830  12.885  20.548  0.00  0.00    +0.000 A 
ATOM     19 BR   UNL     1      -1.668  14.553  20.840  0.00  0.00    +0.000 Br
ATOM     20  C   UNL     1       0.449  12.657  21.052  0.00  0.00    +0.000 A 
ATOM     21  C   UNL     1       1.066  11.422  20.845  0.00  0.00    +0.000 A 
ENDBRANCH  10  15
BRANCH   1  23
ATOM     22  C   UNL     1       2.781   2.718  21.515  0.00  0.00    +0.000 C 
ATOM     23  N   UNL     1       2.186   3.713  20.617  0.00  0.00    +0.000 N 
ATOM     24  C   UNL     1       0.794   3.425  20.247  0.00  0.00    +0.000 C 
ENDBRANCH   1  23
TORSDOF 2
ENDMDL
MODEL 5
REMARK VINA RESULT:      -6.9      1.994      3.268
REMARK  Name = 
REMARK  4 active torsions:
REMARK  status: ('A' for Active; 'I' for Inactive)
REMARK    1  A    between atoms: C_1  and  N_2
REMARK    2  A    between atoms: N_2  and  C_3
REMARK    3  A    between atoms: N_2  and  C_4
REMARK    4  A    between atoms: N_13  and  C_14
REMARK                            x       y       z     vdW  Elec       q    Type
REMARK                         _______ _______ _______ _____ _____    ______ ____
ROOT
ATOM      1  C   UNL     1       3.466   3.855  18.599  0.00  0.00    +0.000 A 
ATOM      2  C   UNL     1       4.327   3.302  17.627  0.00  0.00    +0.000 A 
ATOM      3  C   UNL     1       4.905   4.107  16.658  0.00  0.00    +0.000 A 
ATOM      4  N   UNL     1       4.701   5.424  16.530  0.00  0.00    +0.000 NA
ATOM      5  C   UNL     1       3.876   5.944  17.456  0.00  0.00    +0.000 A 
ATOM      6  S   UNL     1       3.494   7.604  17.391  0.00  0.00    +0.000 S 
ATOM      7  C   UNL     1       2.505   7.483  18.756  0.00  0.00    +0.000 A 
ATOM      8  C   UNL     1       1.759   8.609  19.295  0.00  0.00    +0.000 A 
ATOM      9  O   UNL     1       1.762   9.723  18.771  0.00  0.00    +0.000 OA
ATOM     10  N   UNL     1       1.046   8.306  20.495  0.00  0.00    +0.000 N 
ATOM     11  C   UNL     1       1.125   7.037  21.081  0.00  0.00    +0.000 A 
ATOM     12  C   UNL     1       1.822   6.030  20.527  0.00  0.00    +0.000 A 
ATOM     13  C   UNL     1       2.523   6.217  19.301  0.00  0.00    +0.000 A 
ATOM     14  C   UNL     1       3.255   5.263  18.510  0.00  0.00    +0.000 A 
ENDROOT
BRANCH  10  15
ATOM     15  C   UNL     1       0.288   9.341  21.117  0.00  0.00    +0.000 A 
ATOM     16  C   UNL     1      -0.272  10.373  20.352  0.00  0.00    +0.000 A 
ATOM     17  C   UNL     1      -1.023  11.378  20.965  0.00  0.00    +0.000 A 
ATOM     18  C   UNL     1      -1.187  11.371  22.349  0.00  0.00    +0.000 A 
ATOM     19 BR   UNL     1      -2.168  12.753  23.185  0.00  0.00    +0.000 Br
ATOM     20  C   UNL     1      -0.628  10.356  23.122  0.00  0.00    +0.000 A 
ATOM     21  C   UNL     1       0.090   9.329  22.505  0.00  0.00    +0.000 A 
ENDBRANCH  10  15
BRANCH   1  23
ATOM     22  C   UNL     1       3.730   2.410  20.561  0.00  0.00    +0.000 C 
ATOM     23  N   UNL     1       2.847   3.051  19.582  0.00  0.00    +0.000 N 
ATOM     24  C   UNL     1       1.825   2.154  19.024  0.00  0.00    +0.000 C 
ENDBRANCH   1  23
TORSDOF 2
ENDMDL
MODEL 6
REMARK VINA RESULT:      -6.6      1.627      2.992
REMARK  Name = 
REMARK  4 active torsions:
REMARK  status: ('A' for Active; 'I' for Inactive)
REMARK    1  A    between atoms: C_1  and  N_2
REMARK    2  A    between atoms: N_2  and  C_3
REMARK    3  A    between atoms: N_2  and  C_4
REMARK    4  A    between atoms: N_13  and  C_14
REMARK                            x       y       z     vdW  Elec       q    Type
REMARK                         _______ _______ _______ _____ _____    ______ ____
ROOT
ATOM      1  C   UNL     1       3.251   3.899  18.994  0.00  0.00    +0.000 A 
ATOM      2  C   UNL     1       4.110   3.060  18.253  0.00  0.00    +0.000 A 
ATOM      3  C   UNL     1       4.841   3.563  17.189  0.00  0.00    +0.000 A 
ATOM      4  N   UNL     1       4.796   4.828  16.754  0.00  0.00    +0.000 NA
ATOM      5  C   UNL     1       3.973   5.622  17.461  0.00  0.00    +0.000 A 
ATOM      6  S   UNL     1       3.785   7.251  16.995  0.00  0.00    +0.000 S 
ATOM      7  C   UNL     1       2.696   7.541  18.255  0.00  0.00    +0.000 A 
ATOM      8  C   UNL     1       2.045   8.825  18.460  0.00  0.00    +0.000 A 
ATOM      9  O   UNL     1       2.210   9.784  17.704  0.00  0.00    +0.000 OA
ATOM     10  N   UNL     1       1.221   8.874  19.625  0.00  0.00    +0.000 N 
ATOM     11  C   UNL     1       1.115   7.772  20.481  0.00  0.00    +0.000 A 
ATOM     12  C   UNL     1       1.732   6.604  20.231  0.00  0.00    +0.000 A 
ATOM     13  C   UNL     1       2.533   6.438  19.066  0.00  0.00    +0.000 A 
ATOM     14  C   UNL     1       3.206   5.263  18.577  0.00  0.00    +0.000 A 
ENDROOT
BRANCH  10  15
ATOM     15  C   UNL     1       0.542  10.091  19.929  0.00  0.00    +0.000 A 
ATOM     16  C   UNL     1       0.952  10.886  21.008  0.00  0.00    +0.000 A 
ATOM     17  C   UNL     1       0.292  12.082  21.294  0.00  0.00    +0.000 A 
ATOM     18  C   UNL     1      -0.802  12.468  20.522  0.00  0.00    +0.000 A 
ATOM     19 BR   UNL     1      -1.724  14.066  20.933  0.00  0.00    +0.000 Br
ATOM     20  C   UNL     1      -1.226  11.682  19.453  0.00  0.00    +0.000 A 
ATOM     21  C   UNL     1      -0.541  10.506  19.143  0.00  0.00    +0.000 A 
ENDBRANCH  10  15
BRANCH   1  23
ATOM     22  C   UNL     1       3.197   2.667  21.113  0.00  0.00    +0.000 C 
ATOM     23  N   UNL     1       2.478   3.404  20.069  0.00  0.00    +0.000 N 
ATOM     24  C   UNL     1       1.238   2.754  19.626  0.00  0.00    +0.000 C 
ENDBRANCH   1  23
TORSDOF 2
ENDMDL
MODEL 7
REMARK VINA RESULT:      -6.6      1.910      3.170
REMARK  Name = 
REMARK  4 active torsions:
REMARK  status: ('A' for Active; 'I' for Inactive)
REMARK    1  A    between atoms: C_1  and  N_2
REMARK    2  A    between atoms: N_2  and  C_3
REMARK    3  A    between atoms: N_2  and  C_4
REMARK    4  A    between atoms: N_13  and  C_14
REMARK                            x       y       z     vdW  Elec       q    Type
REMARK                         _______ _______ _______ _____ _____    ______ ____
ROOT
ATOM      1  C   UNL     1       3.161   4.126  19.062  0.00  0.00    +0.000 A 
ATOM      2  C   UNL     1       4.022   3.491  18.142  0.00  0.00    +0.000 A 
ATOM      3  C   UNL     1       4.616   4.213  17.120  0.00  0.00    +0.000 A 
ATOM      4  N   UNL     1       4.429   5.518  16.889  0.00  0.00    +0.000 NA
ATOM      5  C   UNL     1       3.603   6.116  17.766  0.00  0.00    +0.000 A 
ATOM      6  S   UNL     1       3.241   7.771  17.571  0.00  0.00    +0.000 S 
ATOM      7  C   UNL     1       2.241   7.767  18.934  0.00  0.00    +0.000 A 
ATOM      8  C   UNL     1       1.504   8.938  19.379  0.00  0.00    +0.000 A 
ATOM      9  O   UNL     1       1.524  10.009  18.771  0.00  0.00    +0.000 OA
ATOM     10  N   UNL     1       0.779   8.736  20.593  0.00  0.00    +0.000 N 
ATOM     11  C   UNL     1       0.839   7.515  21.274  0.00  0.00    +0.000 A 
ATOM     12  C   UNL     1       1.528   6.461  20.805  0.00  0.00    +0.000 A 
ATOM     13  C   UNL     1       2.240   6.546  19.574  0.00  0.00    +0.000 A 
ATOM     14  C   UNL     1       2.966   5.526  18.864  0.00  0.00    +0.000 A 
ENDROOT
BRANCH  10  15
ATOM     15  C   UNL     1       0.028   9.824  21.128  0.00  0.00    +0.000 A 
ATOM     16  C   UNL     1      -0.194   9.928  22.507  0.00  0.00    +0.000 A 
ATOM     17  C   UNL     1      -0.920  11.002  23.026  0.00  0.00    +0.000 A 
ATOM     18  C   UNL     1      -1.454  11.956  22.163  0.00  0.00    +0.000 A 
ATOM     19 BR   UNL     1      -2.472  13.388  22.859  0.00  0.00    +0.000 Br
ATOM     20  C   UNL     1      -1.249  11.859  20.788  0.00  0.00    +0.000 A 
ATOM     21  C   UNL     1      -0.489  10.807  20.273  0.00  0.00    +0.000 A 
ENDBRANCH  10  15
BRANCH   1  23
ATOM     22  C   UNL     1       3.368   2.503  20.888  0.00  0.00    +0.000 C 
ATOM     23  N   UNL     1       2.525   3.407  20.099  0.00  0.00    +0.000 N 
ATOM     24  C   UNL     1       1.246   2.816  19.682  0.00  0.00    +0.000 C 
ENDBRANCH   1  23
TORSDOF 2
ENDMDL
MODEL 8
REMARK VINA RESULT:      -6.6      1.944      3.252
REMARK  Name = 
REMARK  4 active torsions:
REMARK  status: ('A' for Active; 'I' for Inactive)
REMARK    1  A    between atoms: C_1  and  N_2
REMARK    2  A    between atoms: N_2  and  C_3
REMARK    3  A    between atoms: N_2  and  C_4
REMARK    4  A    between atoms: N_13  and  C_14
REMARK                            x       y       z     vdW  Elec       q    Type
REMARK                         _______ _______ _______ _____ _____    ______ ____
ROOT
ATOM      1  C   UNL     1       4.216   3.687  17.815  0.00  0.00    +0.000 A 
ATOM      2  C   UNL     1       5.088   3.227  16.804  0.00  0.00    +0.000 A 
ATOM      3  C   UNL     1       5.626   4.110  15.883  0.00  0.00    +0.000 A 
ATOM      4  N   UNL     1       5.373   5.424  15.836  0.00  0.00    +0.000 NA
ATOM      5  C   UNL     1       4.539   5.856  16.798  0.00  0.00    +0.000 A 
ATOM      6  S   UNL     1       4.095   7.501  16.837  0.00  0.00    +0.000 S 
ATOM      7  C   UNL     1       3.124   7.262  18.200  0.00  0.00    +0.000 A 
ATOM      8  C   UNL     1       2.342   8.324  18.812  0.00  0.00    +0.000 A 
ATOM      9  O   UNL     1       2.299   9.467  18.356  0.00  0.00    +0.000 OA
ATOM     10  N   UNL     1       1.652   7.922  19.997  0.00  0.00    +0.000 N 
ATOM     11  C   UNL     1       1.783   6.624  20.503  0.00  0.00    +0.000 A 
ATOM     12  C   UNL     1       2.512   5.679  19.883  0.00  0.00    +0.000 A 
ATOM     13  C   UNL     1       3.194   5.966  18.666  0.00  0.00    +0.000 A 
ATOM     14  C   UNL     1       3.952   5.090  17.813  0.00  0.00    +0.000 A 
ENDROOT
BRANCH  10  15
ATOM     15  C   UNL     1       0.863   8.889  20.686  0.00  0.00    +0.000 A 
ATOM     16  C   UNL     1       0.860   8.940  22.086  0.00  0.00    +0.000 A 
ATOM     17  C   UNL     1       0.093   9.896  22.756  0.00  0.00    +0.000 A 
ATOM     18  C   UNL     1      -0.698  10.781  22.026  0.00  0.00    +0.000 A 
ATOM     19 BR   UNL     1      -1.768  12.049  22.931  0.00  0.00    +0.000 Br
ATOM     20  C   UNL     1      -0.712  10.735  20.633  0.00  0.00    +0.000 A 
ATOM     21  C   UNL     1       0.085   9.804  19.963  0.00  0.00    +0.000 A 
ENDBRANCH  10  15
BRANCH   1  23
ATOM     22  C   UNL     1       4.393   2.558  19.983  0.00  0.00    +0.000 C 
ATOM     23  N   UNL     1       3.636   2.803  18.751  0.00  0.00    +0.000 N 
ATOM     24  C   UNL     1       3.100   1.585  18.129  0.00  0.00    +0.000 C 
ENDBRANCH   1  23
TORSDOF 2
ENDMDL
MODEL 9
REMARK VINA RESULT:      -6.5      1.450      1.796
REMARK  Name = 
REMARK  4 active torsions:
REMARK  status: ('A' for Active; 'I' for Inactive)
REMARK    1  A    between atoms: C_1  and  N_2
REMARK    2  A    between atoms: N_2  and  C_3
REMARK    3  A    between atoms: N_2  and  C_4
REMARK    4  A    between atoms: N_13  and  C_14
REMARK                            x       y       z     vdW  Elec       q    Type
REMARK                         _______ _______ _______ _____ _____    ______ ____
ROOT
ATOM      1  C   UNL     1       3.692   5.212  18.339  0.00  0.00    +0.000 A 
ATOM      2  C   UNL     1       3.824   3.911  18.871  0.00  0.00    +0.000 A 
ATOM      3  C   UNL     1       3.159   3.555  20.033  0.00  0.00    +0.000 A 
ATOM      4  N   UNL     1       2.381   4.369  20.755  0.00  0.00    +0.000 NA
ATOM      5  C   UNL     1       2.263   5.608  20.246  0.00  0.00    +0.000 A 
ATOM      6  S   UNL     1       1.332   6.766  21.083  0.00  0.00    +0.000 S 
ATOM      7  C   UNL     1       1.651   7.945  19.915  0.00  0.00    +0.000 A 
ATOM      8  C   UNL     1       1.161   9.310  20.013  0.00  0.00    +0.000 A 
ATOM      9  O   UNL     1       0.511   9.717  20.976  0.00  0.00    +0.000 OA
ATOM     10  N   UNL     1       1.484  10.121  18.882  0.00  0.00    +0.000 N 
ATOM     11  C   UNL     1       2.176   9.590  17.788  0.00  0.00    +0.000 A 
ATOM     12  C   UNL     1       2.617   8.320  17.761  0.00  0.00    +0.000 A 
ATOM     13  C   UNL     1       2.392   7.447  18.864  0.00  0.00    +0.000 A 
ATOM     14  C   UNL     1       2.841   6.095  19.068  0.00  0.00    +0.000 A 
ENDROOT
BRANCH  10  15
ATOM     15  C   UNL     1       1.042  11.476  18.867  0.00  0.00    +0.000 A 
ATOM     16  C   UNL     1      -0.270  11.794  18.493  0.00  0.00    +0.000 A 
ATOM     17  C   UNL     1      -0.701  13.123  18.492  0.00  0.00    +0.000 A 
ATOM     18  C   UNL     1       0.190  14.138  18.831  0.00  0.00    +0.000 A 
ATOM     19 BR   UNL     1      -0.379  15.940  18.789  0.00  0.00    +0.000 Br
ATOM     20  C   UNL     1       1.501  13.836  19.196  0.00  0.00    +0.000 A 
ATOM     21  C   UNL     1       1.920  12.505  19.235  0.00  0.00    +0.000 A 
ENDBRANCH  10  15
BRANCH   1  23
ATOM     22  C   UNL     1       4.612   4.567  16.160  0.00  0.00    +0.000 C 
ATOM     23  N   UNL     1       4.378   5.606  17.168  0.00  0.00    +0.000 N 
ATOM     24  C   UNL     1       5.555   6.439  17.450  0.00  0.00    +0.000 C 
ENDBRANCH   1  23
TORSDOF 2
ENDMDL
