MODEL 1
REMARK VINA RESULT:      -7.5      0.000      0.000
REMARK  Name = 
REMARK  4 active torsions:
REMARK  status: ('A' for Active; 'I' for Inactive)
REMARK    1  A    between atoms: C_3  and  C_4
REMARK    2  A    between atoms: C_4  and  N_5
REMARK    3  A    between atoms: N_5  and  C_6
REMARK    4  A    between atoms: C_10  and  N_11
REMARK                            x       y       z     vdW  Elec       q    Type
REMARK                         _______ _______ _______ _____ _____    ______ ____
ROOT
ATOM      1  N   UNL     1       3.337   5.369  19.994  0.00  0.00    +0.000 NA
ATOM      2  H   UNL     1       4.030   5.400  20.748  0.00  0.00    +0.000 HD
ENDROOT
BRANCH   1   3
ATOM      3  C   UNL     1       3.073   3.954  19.644  0.00  0.00    +0.000 C 
ATOM      4  C   UNL     1       1.598   3.664  19.305  0.00  0.00    +0.000 C 
ATOM      5  O   UNL     1       1.431   3.699  17.880  0.00  0.00    +0.000 OA
ATOM      6  C   UNL     1       2.720   3.890  17.284  0.00  0.00    +0.000 C 
ATOM      7  C   UNL     1       3.742   3.500  18.336  0.00  0.00    +0.000 C 
BRANCH   7   8
ATOM      8  N   UNL     1       5.084   3.967  18.120  0.00  0.00    +0.000 N 
ATOM      9  C   UNL     1       5.708   4.337  16.964  0.00  0.00    +0.000 A 
ATOM     10  C   UNL     1       6.939   4.784  17.377  0.00  0.00    +0.000 A 
ATOM     11  N   UNL     1       7.037   4.657  18.732  0.00  0.00    +0.000 NA
ATOM     12  N   UNL     1       5.894   4.153  19.181  0.00  0.00    +0.000 NA
ENDBRANCH   7   8
ENDBRANCH   1   3
BRANCH   1  13
ATOM     13  C   UNL     1       2.147   6.064  20.494  0.00  0.00    +0.000 C 
BRANCH  13  16
ATOM     14  C   UNL     1       2.232   8.661  17.696  0.00  0.00    +0.000 A 
ATOM     15  C   UNL     1       2.400   7.488  18.426  0.00  0.00    +0.000 A 
ATOM     16  C   UNL     1       1.938   7.365  19.754  0.00  0.00    +0.000 A 
ATOM     17  C   UNL     1       1.295   8.487  20.333  0.00  0.00    +0.000 A 
ATOM     18  C   UNL     1       0.720   8.743  21.614  0.00  0.00    +0.000 A 
ATOM     19  C   UNL     1       0.235  10.026  21.606  0.00  0.00    +0.000 A 
ATOM     20  N   UNL     1       0.499  10.572  20.378  0.00  0.00    +0.000 N 
ATOM     21  C   UNL     1       1.144   9.651  19.578  0.00  0.00    +0.000 A 
ATOM     22  C   UNL     1       1.597   9.768  18.261  0.00  0.00    +0.000 A 
ATOM     23  H   UNL     1       0.257  11.510  20.083  0.00  0.00    +0.000 HD
ENDBRANCH  13  16
ENDBRANCH   1  13
TORSDOF 4
ENDMDL
MODEL 2
REMARK VINA RESULT:      -7.3      2.566      4.582
REMARK  Name = 
REMARK  4 active torsions:
REMARK  status: ('A' for Active; 'I' for Inactive)
REMARK    1  A    between atoms: C_3  and  C_4
REMARK    2  A    between atoms: C_4  and  N_5
REMARK    3  A    between atoms: N_5  and  C_6
REMARK    4  A    between atoms: C_10  and  N_11
REMARK                            x       y       z     vdW  Elec       q    Type
REMARK                         _______ _______ _______ _____ _____    ______ ____
ROOT
ATOM      1  N   UNL     1       4.864   3.746  17.335  0.00  0.00    +0.000 NA
ATOM      2  H   UNL     1       5.215   3.396  16.437  0.00  0.00    +0.000 HD
ENDROOT
BRANCH   1   3
ATOM      3  C   UNL     1       5.533   5.031  17.642  0.00  0.00    +0.000 C 
ATOM      4  C   UNL     1       6.042   5.133  19.094  0.00  0.00    +0.000 C 
ATOM      5  O   UNL     1       7.434   4.784  19.127  0.00  0.00    +0.000 OA
ATOM      6  C   UNL     1       7.871   4.566  17.779  0.00  0.00    +0.000 C 
ATOM      7  C   UNL     1       6.852   5.245  16.881  0.00  0.00    +0.000 C 
BRANCH   7   8
ATOM      8  N   UNL     1       6.855   4.843  15.502  0.00  0.00    +0.000 N 
ATOM      9  C   UNL     1       6.142   3.864  14.872  0.00  0.00    +0.000 A 
ATOM     10  C   UNL     1       6.480   4.004  13.548  0.00  0.00    +0.000 A 
ATOM     11  N   UNL     1       7.381   5.019  13.414  0.00  0.00    +0.000 NA
ATOM     12  N   UNL     1       7.607   5.528  14.619  0.00  0.00    +0.000 NA
ENDBRANCH   7   8
ENDBRANCH   1   3
BRANCH   1  13
ATOM     13  C   UNL     1       3.411   3.880  17.189  0.00  0.00    +0.000 C 
BRANCH  13  16
ATOM     14  C   UNL     1       1.785   2.617  20.406  0.00  0.00    +0.000 A 
ATOM     15  C   UNL     1       2.402   2.666  19.159  0.00  0.00    +0.000 A 
ATOM     16  C   UNL     1       2.739   3.891  18.543  0.00  0.00    +0.000 A 
ATOM     17  C   UNL     1       2.421   5.085  19.237  0.00  0.00    +0.000 A 
ATOM     18  C   UNL     1       2.589   6.471  18.944  0.00  0.00    +0.000 A 
ATOM     19  C   UNL     1       2.085   7.187  19.999  0.00  0.00    +0.000 A 
ATOM     20  N   UNL     1       1.604   6.297  20.923  0.00  0.00    +0.000 N 
ATOM     21  C   UNL     1       1.799   5.004  20.484  0.00  0.00    +0.000 A 
ATOM     22  C   UNL     1       1.473   3.790  21.094  0.00  0.00    +0.000 A 
ATOM     23  H   UNL     1       1.170   6.538  21.806  0.00  0.00    +0.000 HD
ENDBRANCH  13  16
ENDBRANCH   1  13
TORSDOF 4
ENDMDL
MODEL 3
REMARK VINA RESULT:      -7.1      2.934      4.677
REMARK  Name = 
REMARK  4 active torsions:
REMARK  status: ('A' for Active; 'I' for Inactive)
REMARK    1  A    between atoms: C_3  and  C_4
REMARK    2  A    between atoms: C_4  and  N_5
REMARK    3  A    between atoms: N_5  and  C_6
REMARK    4  A    between atoms: C_10  and  N_11
REMARK                            x       y       z     vdW  Elec       q    Type
REMARK                         _______ _______ _______ _____ _____    ______ ____
ROOT
ATOM      1  N   UNL     1       4.709   4.593  16.385  0.00  0.00    +0.000 NA
ATOM      2  H   UNL     1       5.101   5.255  17.062  0.00  0.00    +0.000 HD
ENDROOT
BRANCH   1   3
ATOM      3  C   UNL     1       5.812   3.788  15.812  0.00  0.00    +0.000 C 
ATOM      4  C   UNL     1       5.708   3.592  14.286  0.00  0.00    +0.000 C 
ATOM      5  O   UNL     1       6.530   4.570  13.632  0.00  0.00    +0.000 OA
ATOM      6  C   UNL     1       7.230   5.310  14.641  0.00  0.00    +0.000 C 
ATOM      7  C   UNL     1       7.190   4.464  15.901  0.00  0.00    +0.000 C 
BRANCH   7   8
ATOM      8  N   UNL     1       7.478   5.147  17.132  0.00  0.00    +0.000 N 
ATOM      9  C   UNL     1       7.544   6.484  17.398  0.00  0.00    +0.000 A 
ATOM     10  C   UNL     1       7.754   6.545  18.753  0.00  0.00    +0.000 A 
ATOM     11  N   UNL     1       7.831   5.281  19.258  0.00  0.00    +0.000 NA
ATOM     12  N   UNL     1       7.661   4.428  18.256  0.00  0.00    +0.000 NA
ENDBRANCH   7   8
ENDBRANCH   1   3
BRANCH   1  13
ATOM     13  C   UNL     1       3.730   3.781  17.114  0.00  0.00    +0.000 C 
BRANCH  13  16
ATOM     14  C   UNL     1       2.367   6.706  19.157  0.00  0.00    +0.000 A 
ATOM     15  C   UNL     1       2.903   5.941  18.125  0.00  0.00    +0.000 A 
ATOM     16  C   UNL     1       3.150   4.560  18.273  0.00  0.00    +0.000 A 
ATOM     17  C   UNL     1       2.839   3.967  19.522  0.00  0.00    +0.000 A 
ATOM     18  C   UNL     1       2.953   2.642  20.042  0.00  0.00    +0.000 A 
ATOM     19  C   UNL     1       2.489   2.657  21.332  0.00  0.00    +0.000 A 
ATOM     20  N   UNL     1       2.106   3.938  21.629  0.00  0.00    +0.000 N 
ATOM     21  C   UNL     1       2.305   4.759  20.539  0.00  0.00    +0.000 A 
ATOM     22  C   UNL     1       2.056   6.126  20.387  0.00  0.00    +0.000 A 
ATOM     23  H   UNL     1       1.725   4.251  22.514  0.00  0.00    +0.000 HD
ENDBRANCH  13  16
ENDBRANCH   1  13
TORSDOF 4
ENDMDL
MODEL 4
REMARK VINA RESULT:      -7.1      2.464      4.389
REMARK  Name = 
REMARK  4 active torsions:
REMARK  status: ('A' for Active; 'I' for Inactive)
REMARK    1  A    between atoms: C_3  and  C_4
REMARK    2  A    between atoms: C_4  and  N_5
REMARK    3  A    between atoms: N_5  and  C_6
REMARK    4  A    between atoms: C_10  and  N_11
REMARK                            x       y       z     vdW  Elec       q    Type
REMARK                         _______ _______ _______ _____ _____    ______ ____
ROOT
ATOM      1  N   UNL     1       5.066   3.702  17.412  0.00  0.00    +0.000 NA
ATOM      2  H   UNL     1       5.315   2.851  17.927  0.00  0.00    +0.000 HD
ENDROOT
BRANCH   1   3
ATOM      3  C   UNL     1       5.948   3.819  16.228  0.00  0.00    +0.000 C 
ATOM      4  C   UNL     1       5.184   4.017  14.903  0.00  0.00    +0.000 C 
ATOM      5  O   UNL     1       5.142   5.418  14.594  0.00  0.00    +0.000 OA
ATOM      6  C   UNL     1       5.916   6.115  15.578  0.00  0.00    +0.000 C 
ATOM      7  C   UNL     1       6.823   5.083  16.224  0.00  0.00    +0.000 C 
BRANCH   7   8
ATOM      8  N   UNL     1       7.404   5.451  17.486  0.00  0.00    +0.000 N 
ATOM      9  C   UNL     1       7.575   6.684  18.045  0.00  0.00    +0.000 A 
ATOM     10  C   UNL     1       8.087   6.416  19.292  0.00  0.00    +0.000 A 
ATOM     11  N   UNL     1       8.230   5.069  19.444  0.00  0.00    +0.000 NA
ATOM     12  N   UNL     1       7.809   4.483  18.330  0.00  0.00    +0.000 NA
ENDBRANCH   7   8
ENDBRANCH   1   3
BRANCH   1  13
ATOM     13  C   UNL     1       3.649   3.573  17.057  0.00  0.00    +0.000 C 
BRANCH  13  16
ATOM     14  C   UNL     1       1.329   2.536  19.907  0.00  0.00    +0.000 A 
ATOM     15  C   UNL     1       2.137   2.508  18.774  0.00  0.00    +0.000 A 
ATOM     16  C   UNL     1       2.781   3.667  18.290  0.00  0.00    +0.000 A 
ATOM     17  C   UNL     1       2.572   4.878  18.996  0.00  0.00    +0.000 A 
ATOM     18  C   UNL     1       3.029   6.218  18.814  0.00  0.00    +0.000 A 
ATOM     19  C   UNL     1       2.497   6.982  19.821  0.00  0.00    +0.000 A 
ATOM     20  N   UNL     1       1.723   6.169  20.606  0.00  0.00    +0.000 N 
ATOM     21  C   UNL     1       1.754   4.876  20.127  0.00  0.00    +0.000 A 
ATOM     22  C   UNL     1       1.123   3.725  20.607  0.00  0.00    +0.000 A 
ATOM     23  H   UNL     1       1.203   6.460  21.425  0.00  0.00    +0.000 HD
ENDBRANCH  13  16
ENDBRANCH   1  13
TORSDOF 4
ENDMDL
MODEL 5
REMARK VINA RESULT:      -7.1      2.352      4.295
REMARK  Name = 
REMARK  4 active torsions:
REMARK  status: ('A' for Active; 'I' for Inactive)
REMARK    1  A    between atoms: C_3  and  C_4
REMARK    2  A    between atoms: C_4  and  N_5
REMARK    3  A    between atoms: N_5  and  C_6
REMARK    4  A    between atoms: C_10  and  N_11
REMARK                            x       y       z     vdW  Elec       q    Type
REMARK                         _______ _______ _______ _____ _____    ______ ____
ROOT
ATOM      1  N   UNL     1       4.412   4.671  16.552  0.00  0.00    +0.000 NA
ATOM      2  H   UNL     1       4.727   5.131  17.413  0.00  0.00    +0.000 HD
ENDROOT
BRANCH   1   3
ATOM      3  C   UNL     1       5.511   3.826  16.032  0.00  0.00    +0.000 C 
ATOM      4  C   UNL     1       5.617   3.826  14.494  0.00  0.00    +0.000 C 
ATOM      5  O   UNL     1       6.612   4.781  14.095  0.00  0.00    +0.000 OA
ATOM      6  C   UNL     1       7.218   5.314  15.279  0.00  0.00    +0.000 C 
ATOM      7  C   UNL     1       6.915   4.333  16.397  0.00  0.00    +0.000 C 
BRANCH   7   8
ATOM      8  N   UNL     1       7.077   4.829  17.736  0.00  0.00    +0.000 N 
ATOM      9  C   UNL     1       7.809   5.884  18.198  0.00  0.00    +0.000 A 
ATOM     10  C   UNL     1       7.507   5.941  19.536  0.00  0.00    +0.000 A 
ATOM     11  N   UNL     1       6.642   4.934  19.849  0.00  0.00    +0.000 NA
ATOM     12  N   UNL     1       6.384   4.255  18.738  0.00  0.00    +0.000 NA
ENDBRANCH   7   8
ENDBRANCH   1   3
BRANCH   1  13
ATOM     13  C   UNL     1       3.217   3.899  16.908  0.00  0.00    +0.000 C 
BRANCH  13  16
ATOM     14  C   UNL     1       2.484   3.133  20.577  0.00  0.00    +0.000 A 
ATOM     15  C   UNL     1       2.803   2.997  19.229  0.00  0.00    +0.000 A 
ATOM     16  C   UNL     1       2.861   4.109  18.362  0.00  0.00    +0.000 A 
ATOM     17  C   UNL     1       2.573   5.385  18.909  0.00  0.00    +0.000 A 
ATOM     18  C   UNL     1       2.520   6.703  18.365  0.00  0.00    +0.000 A 
ATOM     19  C   UNL     1       2.184   7.562  19.380  0.00  0.00    +0.000 A 
ATOM     20  N   UNL     1       2.018   6.824  20.522  0.00  0.00    +0.000 N 
ATOM     21  C   UNL     1       2.252   5.489  20.263  0.00  0.00    +0.000 A 
ATOM     22  C   UNL     1       2.203   4.386  21.121  0.00  0.00    +0.000 A 
ATOM     23  H   UNL     1       1.764   7.191  21.431  0.00  0.00    +0.000 HD
ENDBRANCH  13  16
ENDBRANCH   1  13
TORSDOF 4
ENDMDL
MODEL 6
REMARK VINA RESULT:      -7.1      3.427      5.108
REMARK  Name = 
REMARK  4 active torsions:
REMARK  status: ('A' for Active; 'I' for Inactive)
REMARK    1  A    between atoms: C_3  and  C_4
REMARK    2  A    between atoms: C_4  and  N_5
REMARK    3  A    between atoms: N_5  and  C_6
REMARK    4  A    between atoms: C_10  and  N_11
REMARK                            x       y       z     vdW  Elec       q    Type
REMARK                         _______ _______ _______ _____ _____    ______ ____
ROOT
ATOM      1  N   UNL     1       4.917   6.032  16.622  0.00  0.00    +0.000 NA
ATOM      2  H   UNL     1       4.536   6.720  15.964  0.00  0.00    +0.000 HD
ENDROOT
BRANCH   1   3
ATOM      3  C   UNL     1       6.327   6.380  16.914  0.00  0.00    +0.000 C 
ATOM      4  C   UNL     1       6.678   6.334  18.414  0.00  0.00    +0.000 C 
ATOM      5  O   UNL     1       7.279   5.065  18.714  0.00  0.00    +0.000 OA
ATOM      6  C   UNL     1       7.427   4.340  17.487  0.00  0.00    +0.000 C 
ATOM      7  C   UNL     1       7.345   5.364  16.370  0.00  0.00    +0.000 C 
BRANCH   7   8
ATOM      8  N   UNL     1       7.079   4.848  15.055  0.00  0.00    +0.000 N 
ATOM      9  C   UNL     1       6.246   3.842  14.661  0.00  0.00    +0.000 A 
ATOM     10  C   UNL     1       6.325   3.861  13.290  0.00  0.00    +0.000 A 
ATOM     11  N   UNL     1       7.196   4.834  12.899  0.00  0.00    +0.000 NA
ATOM     12  N   UNL     1       7.656   5.435  13.989  0.00  0.00    +0.000 NA
ENDBRANCH   7   8
ENDBRANCH   1   3
BRANCH   1  13
ATOM     13  C   UNL     1       4.061   6.075  17.811  0.00  0.00    +0.000 C 
BRANCH  13  16
ATOM     14  C   UNL     1       2.906   2.489  17.189  0.00  0.00    +0.000 A 
ATOM     15  C   UNL     1       3.557   3.714  17.076  0.00  0.00    +0.000 A 
ATOM     16  C   UNL     1       3.321   4.769  17.983  0.00  0.00    +0.000 A 
ATOM     17  C   UNL     1       2.384   4.544  19.023  0.00  0.00    +0.000 A 
ATOM     18  C   UNL     1       1.886   5.346  20.093  0.00  0.00    +0.000 A 
ATOM     19  C   UNL     1       0.981   4.592  20.795  0.00  0.00    +0.000 A 
ATOM     20  N   UNL     1       0.894   3.365  20.193  0.00  0.00    +0.000 N 
ATOM     21  C   UNL     1       1.744   3.306  19.108  0.00  0.00    +0.000 A 
ATOM     22  C   UNL     1       1.986   2.262  18.212  0.00  0.00    +0.000 A 
ATOM     23  H   UNL     1       0.301   2.600  20.492  0.00  0.00    +0.000 HD
ENDBRANCH  13  16
ENDBRANCH   1  13
TORSDOF 4
ENDMDL
MODEL 7
REMARK VINA RESULT:      -7.0      2.404      5.961
REMARK  Name = 
REMARK  4 active torsions:
REMARK  status: ('A' for Active; 'I' for Inactive)
REMARK    1  A    between atoms: C_3  and  C_4
REMARK    2  A    between atoms: C_4  and  N_5
REMARK    3  A    between atoms: N_5  and  C_6
REMARK    4  A    between atoms: C_10  and  N_11
REMARK                            x       y       z     vdW  Elec       q    Type
REMARK                         _______ _______ _______ _____ _____    ______ ____
ROOT
ATOM      1  N   UNL     1       3.773   3.204  18.956  0.00  0.00    +0.000 NA
ATOM      2  H   UNL     1       3.969   4.141  19.323  0.00  0.00    +0.000 HD
ENDROOT
BRANCH   1   3
ATOM      3  C   UNL     1       2.309   2.982  18.968  0.00  0.00    +0.000 C 
ATOM      4  C   UNL     1       1.865   1.828  19.888  0.00  0.00    +0.000 C 
ATOM      5  O   UNL     1       1.456   2.370  21.153  0.00  0.00    +0.000 OA
ATOM      6  C   UNL     1       1.513   3.799  21.065  0.00  0.00    +0.000 C 
ATOM      7  C   UNL     1       1.507   4.140  19.585  0.00  0.00    +0.000 C 
BRANCH   7   8
ATOM      8  N   UNL     1       1.945   5.464  19.238  0.00  0.00    +0.000 N 
ATOM      9  C   UNL     1       2.227   6.532  20.040  0.00  0.00    +0.000 A 
ATOM     10  C   UNL     1       2.691   7.489  19.170  0.00  0.00    +0.000 A 
ATOM     11  N   UNL     1       2.658   7.000  17.897  0.00  0.00    +0.000 NA
ATOM     12  N   UNL     1       2.198   5.756  17.947  0.00  0.00    +0.000 NA
ENDBRANCH   7   8
ENDBRANCH   1   3
BRANCH   1  13
ATOM     13  C   UNL     1       4.346   3.157  17.608  0.00  0.00    +0.000 C 
BRANCH  13  16
ATOM     14  C   UNL     1       6.707   6.041  18.438  0.00  0.00    +0.000 A 
ATOM     15  C   UNL     1       5.750   5.036  18.540  0.00  0.00    +0.000 A 
ATOM     16  C   UNL     1       5.390   4.236  17.434  0.00  0.00    +0.000 A 
ATOM     17  C   UNL     1       6.036   4.494  16.199  0.00  0.00    +0.000 A 
ATOM     18  C   UNL     1       5.935   3.922  14.895  0.00  0.00    +0.000 A 
ATOM     19  C   UNL     1       6.817   4.584  14.079  0.00  0.00    +0.000 A 
ATOM     20  N   UNL     1       7.445   5.546  14.825  0.00  0.00    +0.000 N 
ATOM     21  C   UNL     1       6.989   5.511  16.126  0.00  0.00    +0.000 A 
ATOM     22  C   UNL     1       7.348   6.297  17.225  0.00  0.00    +0.000 A 
ATOM     23  H   UNL     1       8.147   6.192  14.486  0.00  0.00    +0.000 HD
ENDBRANCH  13  16
ENDBRANCH   1  13
TORSDOF 4
ENDMDL
MODEL 8
REMARK VINA RESULT:      -7.0      3.247      5.339
REMARK  Name = 
REMARK  4 active torsions:
REMARK  status: ('A' for Active; 'I' for Inactive)
REMARK    1  A    between atoms: C_3  and  C_4
REMARK    2  A    between atoms: C_4  and  N_5
REMARK    3  A    between atoms: N_5  and  C_6
REMARK    4  A    between atoms: C_10  and  N_11
REMARK                            x       y       z     vdW  Elec       q    Type
REMARK                         _______ _______ _______ _____ _____    ______ ____
ROOT
ATOM      1  N   UNL     1       4.780   5.544  17.166  0.00  0.00    +0.000 NA
ATOM      2  H   UNL     1       4.568   5.497  16.164  0.00  0.00    +0.000 HD
ENDROOT
BRANCH   1   3
ATOM      3  C   UNL     1       6.105   6.179  17.345  0.00  0.00    +0.000 C 
ATOM      4  C   UNL     1       6.595   6.189  18.807  0.00  0.00    +0.000 C 
ATOM      5  O   UNL     1       7.474   5.072  19.012  0.00  0.00    +0.000 OA
ATOM      6  C   UNL     1       7.657   4.412  17.754  0.00  0.00    +0.000 C 
ATOM      7  C   UNL     1       7.260   5.411  16.681  0.00  0.00    +0.000 C 
BRANCH   7   8
ATOM      8  N   UNL     1       6.988   4.868  15.379  0.00  0.00    +0.000 N 
ATOM      9  C   UNL     1       6.143   3.863  15.007  0.00  0.00    +0.000 A 
ATOM     10  C   UNL     1       6.223   3.849  13.636  0.00  0.00    +0.000 A 
ATOM     11  N   UNL     1       7.107   4.802  13.224  0.00  0.00    +0.000 NA
ATOM     12  N   UNL     1       7.573   5.423  14.300  0.00  0.00    +0.000 NA
ENDBRANCH   7   8
ENDBRANCH   1   3
BRANCH   1  13
ATOM     13  C   UNL     1       3.692   6.310  17.784  0.00  0.00    +0.000 C 
BRANCH  13  16
ATOM     14  C   UNL     1       1.574   5.202  20.763  0.00  0.00    +0.000 A 
ATOM     15  C   UNL     1       2.339   5.968  19.888  0.00  0.00    +0.000 A 
ATOM     16  C   UNL     1       2.872   5.428  18.698  0.00  0.00    +0.000 A 
ATOM     17  C   UNL     1       2.608   4.063  18.419  0.00  0.00    +0.000 A 
ATOM     18  C   UNL     1       2.973   3.184  17.355  0.00  0.00    +0.000 A 
ATOM     19  C   UNL     1       2.423   1.956  17.620  0.00  0.00    +0.000 A 
ATOM     20  N   UNL     1       1.747   2.041  18.808  0.00  0.00    +0.000 N 
ATOM     21  C   UNL     1       1.841   3.320  19.317  0.00  0.00    +0.000 A 
ATOM     22  C   UNL     1       1.309   3.860  20.492  0.00  0.00    +0.000 A 
ATOM     23  H   UNL     1       1.243   1.286  19.257  0.00  0.00    +0.000 HD
ENDBRANCH  13  16
ENDBRANCH   1  13
TORSDOF 4
ENDMDL
MODEL 9
REMARK VINA RESULT:      -6.9      1.082      1.212
REMARK  Name = 
REMARK  4 active torsions:
REMARK  status: ('A' for Active; 'I' for Inactive)
REMARK    1  A    between atoms: C_3  and  C_4
REMARK    2  A    between atoms: C_4  and  N_5
REMARK    3  A    between atoms: N_5  and  C_6
REMARK    4  A    between atoms: C_10  and  N_11
REMARK                            x       y       z     vdW  Elec       q    Type
REMARK                         _______ _______ _______ _____ _____    ______ ____
ROOT
ATOM      1  N   UNL     1       3.768   5.866  19.669  0.00  0.00    +0.000 NA
ATOM      2  H   UNL     1       4.422   6.171  20.397  0.00  0.00    +0.000 HD
ENDROOT
BRANCH   1   3
ATOM      3  C   UNL     1       3.923   4.408  19.467  0.00  0.00    +0.000 C 
ATOM      4  C   UNL     1       2.604   3.620  19.591  0.00  0.00    +0.000 C 
ATOM      5  O   UNL     1       2.062   3.407  18.280  0.00  0.00    +0.000 OA
ATOM      6  C   UNL     1       2.999   3.915  17.322  0.00  0.00    +0.000 C 
ATOM      7  C   UNL     1       4.334   4.016  18.038  0.00  0.00    +0.000 C 
BRANCH   7   8
ATOM      8  N   UNL     1       5.324   4.852  17.416  0.00  0.00    +0.000 N 
ATOM      9  C   UNL     1       6.681   4.712  17.363  0.00  0.00    +0.000 A 
ATOM     10  C   UNL     1       7.091   5.746  16.558  0.00  0.00    +0.000 A 
ATOM     11  N   UNL     1       6.008   6.480  16.173  0.00  0.00    +0.000 NA
ATOM     12  N   UNL     1       4.927   5.925  16.705  0.00  0.00    +0.000 NA
ENDBRANCH   7   8
ENDBRANCH   1   3
BRANCH   1  13
ATOM     13  C   UNL     1       2.427   6.238  20.133  0.00  0.00    +0.000 C 
BRANCH  13  16
ATOM     14  C   UNL     1       1.987   9.141  17.691  0.00  0.00    +0.000 A 
ATOM     15  C   UNL     1       2.333   7.913  18.247  0.00  0.00    +0.000 A 
ATOM     16  C   UNL     1       2.030   7.590  19.587  0.00  0.00    +0.000 A 
ATOM     17  C   UNL     1       1.362   8.569  20.364  0.00  0.00    +0.000 A 
ATOM     18  C   UNL     1       0.910   8.617  21.717  0.00  0.00    +0.000 A 
ATOM     19  C   UNL     1       0.321   9.838  21.919  0.00  0.00    +0.000 A 
ATOM     20  N   UNL     1       0.402  10.547  20.750  0.00  0.00    +0.000 N 
ATOM     21  C   UNL     1       1.031   9.794  19.781  0.00  0.00    +0.000 A 
ATOM     22  C   UNL     1       1.327  10.107  18.451  0.00  0.00    +0.000 A 
ATOM     23  H   UNL     1       0.052  11.486  20.602  0.00  0.00    +0.000 HD
ENDBRANCH  13  16
ENDBRANCH   1  13
TORSDOF 4
ENDMDL
