MODEL 1
REMARK VINA RESULT:      -7.5      0.000      0.000
REMARK  Name = 
REMARK  10 active torsions:
REMARK  status: ('A' for Active; 'I' for Inactive)
REMARK    1  A    between atoms: C_1  and  C_2
REMARK    2  A    between atoms: C_2  and  C_3
REMARK    3  A    between atoms: C_6  and  O_7
REMARK    4  A    between atoms: O_7  and  C_8
REMARK    5  A    between atoms: C_8  and  C_9
REMARK    6  A    between atoms: C_11  and  C_12
REMARK    7  A    between atoms: C_15  and  O_16
REMARK    8  A    between atoms: O_16  and  C_17
REMARK    9  A    between atoms: C_18  and  O_19
REMARK   10  A    between atoms: O_19  and  C_20
REMARK                            x       y       z     vdW  Elec       q    Type
REMARK                         _______ _______ _______ _____ _____    ______ ____
ROOT
ATOM      1  C   UNL     1       2.407   5.793  20.064  0.00  0.00    +0.000 A 
ATOM      2  N   UNL     1       3.349   6.209  19.251  0.00  0.00    +0.000 NA
ATOM      3  C   UNL     1       3.771   5.043  18.650  0.00  0.00    +0.000 A 
ATOM      4  N   UNL     1       3.144   3.944  19.098  0.00  0.00    +0.000 NA
ATOM      5  O   UNL     1       2.236   4.439  20.038  0.00  0.00    +0.000 OA
ENDROOT
BRANCH   3   6
ATOM      6  C   UNL     1       4.777   5.063  17.595  0.00  0.00    +0.000 A 
ATOM      7  C   UNL     1       4.803   4.105  16.581  0.00  0.00    +0.000 A 
ATOM      8  C   UNL     1       5.792   4.165  15.597  0.00  0.00    +0.000 A 
ATOM      9  C   UNL     1       6.772   5.172  15.602  0.00  0.00    +0.000 A 
ATOM     10  C   UNL     1       6.751   6.146  16.615  0.00  0.00    +0.000 A 
ATOM     11  C   UNL     1       5.745   6.082  17.590  0.00  0.00    +0.000 A 
BRANCH   9  12
ATOM     12  O   UNL     1       7.649   5.044  14.556  0.00  0.00    +0.000 OA
ATOM     13  C   UNL     1       7.148   4.700  13.277  0.00  0.00    +0.000 C 
ENDBRANCH   9  12
BRANCH  10  14
ATOM     14  O   UNL     1       7.716   7.119  16.615  0.00  0.00    +0.000 OA
ATOM     15  C   UNL     1       7.789   8.003  17.728  0.00  0.00    +0.000 C 
ENDBRANCH  10  14
ENDBRANCH   3   6
BRANCH   1  16
ATOM     16  C   UNL     1       1.380   6.590  20.776  0.00  0.00    +0.000 C 
BRANCH  16  17
ATOM     17  O   UNL     1       1.824   7.933  20.924  0.00  0.00    +0.000 OA
BRANCH  17  21
ATOM     18  C   UNL     1      -0.424  10.951  19.051  0.00  0.00    +0.000 A 
ATOM     19  C   UNL     1       0.459  10.113  18.375  0.00  0.00    +0.000 A 
ATOM     20  C   UNL     1       1.167   9.127  19.075  0.00  0.00    +0.000 A 
ATOM     21  C   UNL     1       1.012   8.943  20.463  0.00  0.00    +0.000 A 
ATOM     22  C   UNL     1       0.101   9.775  21.136  0.00  0.00    +0.000 A 
ATOM     23 BR   UNL     1      -0.343   9.760  22.990  0.00  0.00    +0.000 Br
ATOM     24  C   UNL     1      -0.604  10.761  20.423  0.00  0.00    +0.000 A 
BRANCH  18  26
ATOM     25  C   UNL     1      -0.417  13.348  18.291  0.00  0.00    +0.000 C 
ATOM     26  C   UNL     1      -1.189  12.039  18.343  0.00  0.00    +0.000 C 
ENDBRANCH  18  26
ENDBRANCH  17  21
ENDBRANCH  16  17
ENDBRANCH   1  16
TORSDOF 7
ENDMDL
MODEL 2
REMARK VINA RESULT:      -7.5      1.453      2.020
REMARK  Name = 
REMARK  10 active torsions:
REMARK  status: ('A' for Active; 'I' for Inactive)
REMARK    1  A    between atoms: C_1  and  C_2
REMARK    2  A    between atoms: C_2  and  C_3
REMARK    3  A    between atoms: C_6  and  O_7
REMARK    4  A    between atoms: O_7  and  C_8
REMARK    5  A    between atoms: C_8  and  C_9
REMARK    6  A    between atoms: C_11  and  C_12
REMARK    7  A    between atoms: C_15  and  O_16
REMARK    8  A    between atoms: O_16  and  C_17
REMARK    9  A    between atoms: C_18  and  O_19
REMARK   10  A    between atoms: O_19  and  C_20
REMARK                            x       y       z     vdW  Elec       q    Type
REMARK                         _______ _______ _______ _____ _____    ______ ____
ROOT
ATOM      1  C   UNL     1       2.284   5.594  19.787  0.00  0.00    +0.000 A 
ATOM      2  N   UNL     1       3.374   5.975  19.162  0.00  0.00    +0.000 NA
ATOM      3  C   UNL     1       3.543   4.988  18.215  0.00  0.00    +0.000 A 
ATOM      4  N   UNL     1       2.619   4.017  18.272  0.00  0.00    +0.000 NA
ATOM      5  O   UNL     1       1.780   4.417  19.315  0.00  0.00    +0.000 OA
ENDROOT
BRANCH   3   6
ATOM      6  C   UNL     1       4.617   5.067  17.232  0.00  0.00    +0.000 A 
ATOM      7  C   UNL     1       4.665   4.223  16.121  0.00  0.00    +0.000 A 
ATOM      8  C   UNL     1       5.720   4.335  15.212  0.00  0.00    +0.000 A 
ATOM      9  C   UNL     1       6.743   5.282  15.389  0.00  0.00    +0.000 A 
ATOM     10  C   UNL     1       6.700   6.141  16.500  0.00  0.00    +0.000 A 
ATOM     11  C   UNL     1       5.630   6.027  17.399  0.00  0.00    +0.000 A 
BRANCH   9  12
ATOM     12  O   UNL     1       7.681   5.219  14.391  0.00  0.00    +0.000 OA
ATOM     13  C   UNL     1       7.326   4.640  13.148  0.00  0.00    +0.000 C 
ENDBRANCH   9  12
BRANCH  10  14
ATOM     14  O   UNL     1       7.708   7.055  16.666  0.00  0.00    +0.000 OA
ATOM     15  C   UNL     1       7.793   7.753  17.904  0.00  0.00    +0.000 C 
ENDBRANCH  10  14
ENDBRANCH   3   6
BRANCH   1  16
ATOM     16  C   UNL     1       1.429   6.373  20.714  0.00  0.00    +0.000 C 
BRANCH  16  17
ATOM     17  O   UNL     1       2.002   7.654  20.943  0.00  0.00    +0.000 OA
BRANCH  17  21
ATOM     18  C   UNL     1      -0.623  10.893  21.481  0.00  0.00    +0.000 A 
ATOM     19  C   UNL     1      -0.183  10.074  22.518  0.00  0.00    +0.000 A 
ATOM     20  C   UNL     1       0.699   9.018  22.254  0.00  0.00    +0.000 A 
ATOM     21  C   UNL     1       1.170   8.749  20.954  0.00  0.00    +0.000 A 
ATOM     22  C   UNL     1       0.742   9.593  19.915  0.00  0.00    +0.000 A 
ATOM     23 BR   UNL     1       1.216   9.504  18.070  0.00  0.00    +0.000 Br
ATOM     24  C   UNL     1      -0.141  10.651  20.192  0.00  0.00    +0.000 A 
BRANCH  18  26
ATOM     25  C   UNL     1      -2.225  11.966  23.094  0.00  0.00    +0.000 C 
ATOM     26  C   UNL     1      -1.587  12.027  21.715  0.00  0.00    +0.000 C 
ENDBRANCH  18  26
ENDBRANCH  17  21
ENDBRANCH  16  17
ENDBRANCH   1  16
TORSDOF 7
ENDMDL
MODEL 3
REMARK VINA RESULT:      -7.4      4.949      7.796
REMARK  Name = 
REMARK  10 active torsions:
REMARK  status: ('A' for Active; 'I' for Inactive)
REMARK    1  A    between atoms: C_1  and  C_2
REMARK    2  A    between atoms: C_2  and  C_3
REMARK    3  A    between atoms: C_6  and  O_7
REMARK    4  A    between atoms: O_7  and  C_8
REMARK    5  A    between atoms: C_8  and  C_9
REMARK    6  A    between atoms: C_11  and  C_12
REMARK    7  A    between atoms: C_15  and  O_16
REMARK    8  A    between atoms: O_16  and  C_17
REMARK    9  A    between atoms: C_18  and  O_19
REMARK   10  A    between atoms: O_19  and  C_20
REMARK                            x       y       z     vdW  Elec       q    Type
REMARK                         _______ _______ _______ _____ _____    ______ ____
ROOT
ATOM      1  C   UNL     1       7.804   6.861  18.231  0.00  0.00    +0.000 A 
ATOM      2  N   UNL     1       8.520   7.744  18.887  0.00  0.00    +0.000 NA
ATOM      3  C   UNL     1       8.296   8.906  18.179  0.00  0.00    +0.000 A 
ATOM      4  N   UNL     1       7.503   8.744  17.108  0.00  0.00    +0.000 NA
ATOM      5  O   UNL     1       7.174   7.386  17.140  0.00  0.00    +0.000 OA
ENDROOT
BRANCH   3   6
ATOM      6  C   UNL     1       8.853  10.177  18.625  0.00  0.00    +0.000 A 
ATOM      7  C   UNL     1       9.655  10.273  19.762  0.00  0.00    +0.000 A 
ATOM      8  C   UNL     1      10.160  11.517  20.150  0.00  0.00    +0.000 A 
ATOM      9  C   UNL     1       9.876  12.684  19.420  0.00  0.00    +0.000 A 
ATOM     10  C   UNL     1       9.076  12.597  18.268  0.00  0.00    +0.000 A 
ATOM     11  C   UNL     1       8.586  11.340  17.882  0.00  0.00    +0.000 A 
BRANCH   9  12
ATOM     12  O   UNL     1      10.460  13.793  19.974  0.00  0.00    +0.000 OA
ATOM     13  C   UNL     1      11.822  14.065  19.696  0.00  0.00    +0.000 C 
ENDBRANCH   9  12
BRANCH  10  14
ATOM     14  O   UNL     1       8.799  13.742  17.569  0.00  0.00    +0.000 OA
ATOM     15  C   UNL     1       7.704  14.547  17.991  0.00  0.00    +0.000 C 
ENDBRANCH  10  14
ENDBRANCH   3   6
BRANCH   1  16
ATOM     16  C   UNL     1       7.402   5.499  18.653  0.00  0.00    +0.000 C 
BRANCH  16  17
ATOM     17  O   UNL     1       6.258   5.568  19.495  0.00  0.00    +0.000 OA
BRANCH  17  21
ATOM     18  C   UNL     1       2.969   3.169  18.444  0.00  0.00    +0.000 A 
ATOM     19  C   UNL     1       4.062   2.706  19.173  0.00  0.00    +0.000 A 
ATOM     20  C   UNL     1       5.116   3.574  19.487  0.00  0.00    +0.000 A 
ATOM     21  C   UNL     1       5.111   4.926  19.090  0.00  0.00    +0.000 A 
ATOM     22  C   UNL     1       3.994   5.395  18.377  0.00  0.00    +0.000 A 
ATOM     23 BR   UNL     1       3.681   7.159  17.726  0.00  0.00    +0.000 Br
ATOM     24  C   UNL     1       2.942   4.514  18.068  0.00  0.00    +0.000 A 
BRANCH  18  26
ATOM     25  C   UNL     1       0.601   2.487  18.943  0.00  0.00    +0.000 C 
ATOM     26  C   UNL     1       1.824   2.266  18.066  0.00  0.00    +0.000 C 
ENDBRANCH  18  26
ENDBRANCH  17  21
ENDBRANCH  16  17
ENDBRANCH   1  16
TORSDOF 7
ENDMDL
MODEL 4
REMARK VINA RESULT:      -7.4      4.414      7.476
REMARK  Name = 
REMARK  10 active torsions:
REMARK  status: ('A' for Active; 'I' for Inactive)
REMARK    1  A    between atoms: C_1  and  C_2
REMARK    2  A    between atoms: C_2  and  C_3
REMARK    3  A    between atoms: C_6  and  O_7
REMARK    4  A    between atoms: O_7  and  C_8
REMARK    5  A    between atoms: C_8  and  C_9
REMARK    6  A    between atoms: C_11  and  C_12
REMARK    7  A    between atoms: C_15  and  O_16
REMARK    8  A    between atoms: O_16  and  C_17
REMARK    9  A    between atoms: C_18  and  O_19
REMARK   10  A    between atoms: O_19  and  C_20
REMARK                            x       y       z     vdW  Elec       q    Type
REMARK                         _______ _______ _______ _____ _____    ______ ____
ROOT
ATOM      1  C   UNL     1       7.302   7.138  17.527  0.00  0.00    +0.000 A 
ATOM      2  N   UNL     1       7.540   8.424  17.413  0.00  0.00    +0.000 NA
ATOM      3  C   UNL     1       8.410   8.667  18.454  0.00  0.00    +0.000 A 
ATOM      4  N   UNL     1       8.673   7.585  19.204  0.00  0.00    +0.000 NA
ATOM      5  O   UNL     1       7.939   6.567  18.590  0.00  0.00    +0.000 OA
ENDROOT
BRANCH   3   6
ATOM      6  C   UNL     1       8.999   9.986  18.649  0.00  0.00    +0.000 A 
ATOM      7  C   UNL     1       9.292  10.829  17.576  0.00  0.00    +0.000 A 
ATOM      8  C   UNL     1       9.863  12.081  17.816  0.00  0.00    +0.000 A 
ATOM      9  C   UNL     1      10.155  12.517  19.120  0.00  0.00    +0.000 A 
ATOM     10  C   UNL     1       9.857  11.678  20.208  0.00  0.00    +0.000 A 
ATOM     11  C   UNL     1       9.272  10.429  19.954  0.00  0.00    +0.000 A 
BRANCH   9  12
ATOM     12  O   UNL     1      10.716  13.767  19.132  0.00  0.00    +0.000 OA
ATOM     13  C   UNL     1      10.104  14.804  18.386  0.00  0.00    +0.000 C 
ENDBRANCH   9  12
BRANCH  10  14
ATOM     14  O   UNL     1      10.153  12.110  21.474  0.00  0.00    +0.000 OA
ATOM     15  C   UNL     1       9.144  12.789  22.213  0.00  0.00    +0.000 C 
ENDBRANCH  10  14
ENDBRANCH   3   6
BRANCH   1  16
ATOM     16  C   UNL     1       6.674   6.223  16.545  0.00  0.00    +0.000 C 
BRANCH  16  17
ATOM     17  O   UNL     1       5.322   6.603  16.322  0.00  0.00    +0.000 OA
BRANCH  17  21
ATOM     18  C   UNL     1       2.522   3.946  17.987  0.00  0.00    +0.000 A 
ATOM     19  C   UNL     1       3.665   3.536  17.304  0.00  0.00    +0.000 A 
ATOM     20  C   UNL     1       4.551   4.489  16.784  0.00  0.00    +0.000 A 
ATOM     21  C   UNL     1       4.330   5.872  16.933  0.00  0.00    +0.000 A 
ATOM     22  C   UNL     1       3.188   6.279  17.644  0.00  0.00    +0.000 A 
ATOM     23 BR   UNL     1       2.628   8.060  18.031  0.00  0.00    +0.000 Br
ATOM     24  C   UNL     1       2.306   5.315  18.162  0.00  0.00    +0.000 A 
BRANCH  18  26
ATOM     25  C   UNL     1       0.980   3.391  19.894  0.00  0.00    +0.000 C 
ATOM     26  C   UNL     1       1.530   2.957  18.544  0.00  0.00    +0.000 C 
ENDBRANCH  18  26
ENDBRANCH  17  21
ENDBRANCH  16  17
ENDBRANCH   1  16
TORSDOF 7
ENDMDL
MODEL 5
REMARK VINA RESULT:      -7.4      1.497      1.858
REMARK  Name = 
REMARK  10 active torsions:
REMARK  status: ('A' for Active; 'I' for Inactive)
REMARK    1  A    between atoms: C_1  and  C_2
REMARK    2  A    between atoms: C_2  and  C_3
REMARK    3  A    between atoms: C_6  and  O_7
REMARK    4  A    between atoms: O_7  and  C_8
REMARK    5  A    between atoms: C_8  and  C_9
REMARK    6  A    between atoms: C_11  and  C_12
REMARK    7  A    between atoms: C_15  and  O_16
REMARK    8  A    between atoms: O_16  and  C_17
REMARK    9  A    between atoms: C_18  and  O_19
REMARK   10  A    between atoms: O_19  and  C_20
REMARK                            x       y       z     vdW  Elec       q    Type
REMARK                         _______ _______ _______ _____ _____    ______ ____
ROOT
ATOM      1  C   UNL     1       2.394   4.858  19.421  0.00  0.00    +0.000 A 
ATOM      2  N   UNL     1       3.531   5.285  18.924  0.00  0.00    +0.000 NA
ATOM      3  C   UNL     1       3.659   4.541  17.771  0.00  0.00    +0.000 A 
ATOM      4  N   UNL     1       2.662   3.664  17.577  0.00  0.00    +0.000 NA
ATOM      5  O   UNL     1       1.819   3.873  18.672  0.00  0.00    +0.000 OA
ENDROOT
BRANCH   3   6
ATOM      6  C   UNL     1       4.771   4.763  16.854  0.00  0.00    +0.000 A 
ATOM      7  C   UNL     1       4.931   4.008  15.691  0.00  0.00    +0.000 A 
ATOM      8  C   UNL     1       6.018   4.256  14.849  0.00  0.00    +0.000 A 
ATOM      9  C   UNL     1       6.963   5.252  15.146  0.00  0.00    +0.000 A 
ATOM     10  C   UNL     1       6.808   6.023  16.310  0.00  0.00    +0.000 A 
ATOM     11  C   UNL     1       5.706   5.772  17.141  0.00  0.00    +0.000 A 
BRANCH   9  12
ATOM     12  O   UNL     1       7.950   5.325  14.197  0.00  0.00    +0.000 OA
ATOM     13  C   UNL     1       7.642   4.984  12.857  0.00  0.00    +0.000 C 
ENDBRANCH   9  12
BRANCH  10  14
ATOM     14  O   UNL     1       7.741   6.985  16.594  0.00  0.00    +0.000 OA
ATOM     15  C   UNL     1       7.689   7.627  17.863  0.00  0.00    +0.000 C 
ENDBRANCH  10  14
ENDBRANCH   3   6
BRANCH   1  16
ATOM     16  C   UNL     1       1.568   5.461  20.493  0.00  0.00    +0.000 C 
BRANCH  16  17
ATOM     17  O   UNL     1       2.130   6.703  20.899  0.00  0.00    +0.000 OA
BRANCH  17  21
ATOM     18  C   UNL     1      -0.174  10.179  20.370  0.00  0.00    +0.000 A 
ATOM     19  C   UNL     1      -0.189   9.411  21.532  0.00  0.00    +0.000 A 
ATOM     20  C   UNL     1       0.616   8.268  21.629  0.00  0.00    +0.000 A 
ATOM     21  C   UNL     1       1.460   7.860  20.578  0.00  0.00    +0.000 A 
ATOM     22  C   UNL     1       1.490   8.651  19.417  0.00  0.00    +0.000 A 
ATOM     23 BR   UNL     1       2.534   8.379  17.846  0.00  0.00    +0.000 Br
ATOM     24  C   UNL     1       0.679   9.797  19.331  0.00  0.00    +0.000 A 
BRANCH  18  26
ATOM     25  C   UNL     1      -0.773  12.133  18.905  0.00  0.00    +0.000 C 
ATOM     26  C   UNL     1      -1.038  11.403  20.213  0.00  0.00    +0.000 C 
ENDBRANCH  18  26
ENDBRANCH  17  21
ENDBRANCH  16  17
ENDBRANCH   1  16
TORSDOF 7
ENDMDL
MODEL 6
REMARK VINA RESULT:      -7.4      5.422      8.253
REMARK  Name = 
REMARK  10 active torsions:
REMARK  status: ('A' for Active; 'I' for Inactive)
REMARK    1  A    between atoms: C_1  and  C_2
REMARK    2  A    between atoms: C_2  and  C_3
REMARK    3  A    between atoms: C_6  and  O_7
REMARK    4  A    between atoms: O_7  and  C_8
REMARK    5  A    between atoms: C_8  and  C_9
REMARK    6  A    between atoms: C_11  and  C_12
REMARK    7  A    between atoms: C_15  and  O_16
REMARK    8  A    between atoms: O_16  and  C_17
REMARK    9  A    between atoms: C_18  and  O_19
REMARK   10  A    between atoms: O_19  and  C_20
REMARK                            x       y       z     vdW  Elec       q    Type
REMARK                         _______ _______ _______ _____ _____    ______ ____
ROOT
ATOM      1  C   UNL     1       8.047   7.244  18.357  0.00  0.00    +0.000 A 
ATOM      2  N   UNL     1       8.767   8.126  19.010  0.00  0.00    +0.000 NA
ATOM      3  C   UNL     1       8.531   9.290  18.312  0.00  0.00    +0.000 A 
ATOM      4  N   UNL     1       7.727   9.132  17.248  0.00  0.00    +0.000 NA
ATOM      5  O   UNL     1       7.403   7.773  17.277  0.00  0.00    +0.000 OA
ENDROOT
BRANCH   3   6
ATOM      6  C   UNL     1       9.088  10.561  18.759  0.00  0.00    +0.000 A 
ATOM      7  C   UNL     1       9.904  10.654  19.887  0.00  0.00    +0.000 A 
ATOM      8  C   UNL     1      10.408  11.897  20.276  0.00  0.00    +0.000 A 
ATOM      9  C   UNL     1      10.110  13.067  19.558  0.00  0.00    +0.000 A 
ATOM     10  C   UNL     1       9.295  12.984  18.416  0.00  0.00    +0.000 A 
ATOM     11  C   UNL     1       8.806  11.728  18.028  0.00  0.00    +0.000 A 
BRANCH   9  12
ATOM     12  O   UNL     1      10.697  14.175  20.112  0.00  0.00    +0.000 OA
ATOM     13  C   UNL     1      11.941  14.622  19.604  0.00  0.00    +0.000 C 
ENDBRANCH   9  12
BRANCH  10  14
ATOM     14  O   UNL     1       9.005  14.133  17.728  0.00  0.00    +0.000 OA
ATOM     15  C   UNL     1       7.722  14.724  17.905  0.00  0.00    +0.000 C 
ENDBRANCH  10  14
ENDBRANCH   3   6
BRANCH   1  16
ATOM     16  C   UNL     1       7.655   5.878  18.776  0.00  0.00    +0.000 C 
BRANCH  16  17
ATOM     17  O   UNL     1       7.243   5.121  17.644  0.00  0.00    +0.000 OA
BRANCH  17  21
ATOM     18  C   UNL     1       3.169   4.106  17.844  0.00  0.00    +0.000 A 
ATOM     19  C   UNL     1       3.912   4.541  18.939  0.00  0.00    +0.000 A 
ATOM     20  C   UNL     1       5.266   4.866  18.785  0.00  0.00    +0.000 A 
ATOM     21  C   UNL     1       5.918   4.772  17.539  0.00  0.00    +0.000 A 
ATOM     22  C   UNL     1       5.157   4.356  16.433  0.00  0.00    +0.000 A 
ATOM     23 BR   UNL     1       5.738   4.152  14.628  0.00  0.00    +0.000 Br
ATOM     24  C   UNL     1       3.799   4.034  16.599  0.00  0.00    +0.000 A 
BRANCH  18  26
ATOM     25  C   UNL     1       1.370   3.214  19.357  0.00  0.00    +0.000 C 
ATOM     26  C   UNL     1       1.717   3.725  17.968  0.00  0.00    +0.000 C 
ENDBRANCH  18  26
ENDBRANCH  17  21
ENDBRANCH  16  17
ENDBRANCH   1  16
TORSDOF 7
ENDMDL
MODEL 7
REMARK VINA RESULT:      -7.3      2.669      4.052
REMARK  Name = 
REMARK  10 active torsions:
REMARK  status: ('A' for Active; 'I' for Inactive)
REMARK    1  A    between atoms: C_1  and  C_2
REMARK    2  A    between atoms: C_2  and  C_3
REMARK    3  A    between atoms: C_6  and  O_7
REMARK    4  A    between atoms: O_7  and  C_8
REMARK    5  A    between atoms: C_8  and  C_9
REMARK    6  A    between atoms: C_11  and  C_12
REMARK    7  A    between atoms: C_15  and  O_16
REMARK    8  A    between atoms: O_16  and  C_17
REMARK    9  A    between atoms: C_18  and  O_19
REMARK   10  A    between atoms: O_19  and  C_20
REMARK                            x       y       z     vdW  Elec       q    Type
REMARK                         _______ _______ _______ _____ _____    ______ ____
ROOT
ATOM      1  C   UNL     1       1.508   8.611  19.708  0.00  0.00    +0.000 A 
ATOM      2  N   UNL     1       2.133   7.474  19.510  0.00  0.00    +0.000 NA
ATOM      3  C   UNL     1       2.620   7.613  18.228  0.00  0.00    +0.000 A 
ATOM      4  N   UNL     1       2.281   8.771  17.641  0.00  0.00    +0.000 NA
ATOM      5  O   UNL     1       1.542   9.437  18.622  0.00  0.00    +0.000 OA
ENDROOT
BRANCH   3   6
ATOM      6  C   UNL     1       3.464   6.585  17.629  0.00  0.00    +0.000 A 
ATOM      7  C   UNL     1       4.583   6.904  16.860  0.00  0.00    +0.000 A 
ATOM      8  C   UNL     1       5.355   5.881  16.304  0.00  0.00    +0.000 A 
ATOM      9  C   UNL     1       5.028   4.528  16.496  0.00  0.00    +0.000 A 
ATOM     10  C   UNL     1       3.907   4.196  17.275  0.00  0.00    +0.000 A 
ATOM     11  C   UNL     1       3.148   5.232  17.839  0.00  0.00    +0.000 A 
BRANCH   9  12
ATOM     12  O   UNL     1       5.908   3.691  15.860  0.00  0.00    +0.000 OA
ATOM     13  C   UNL     1       6.235   3.937  14.504  0.00  0.00    +0.000 C 
ENDBRANCH   9  12
BRANCH  10  14
ATOM     14  O   UNL     1       3.594   2.873  17.450  0.00  0.00    +0.000 OA
ATOM     15  C   UNL     1       2.305   2.542  17.955  0.00  0.00    +0.000 C 
ENDBRANCH  10  14
ENDBRANCH   3   6
BRANCH   1  16
ATOM     16  C   UNL     1       1.021   9.188  20.982  0.00  0.00    +0.000 C 
BRANCH  16  17
ATOM     17  O   UNL     1       0.942  10.605  20.876  0.00  0.00    +0.000 OA
BRANCH  17  21
ATOM     18  C   UNL     1      -2.636  12.245  22.351  0.00  0.00    +0.000 A 
ATOM     19  C   UNL     1      -1.761  11.481  23.120  0.00  0.00    +0.000 A 
ATOM     20  C   UNL     1      -0.585  10.976  22.552  0.00  0.00    +0.000 A 
ATOM     21  C   UNL     1      -0.242  11.219  21.207  0.00  0.00    +0.000 A 
ATOM     22  C   UNL     1      -1.116  12.012  20.443  0.00  0.00    +0.000 A 
ATOM     23 BR   UNL     1      -0.923  12.535  18.619  0.00  0.00    +0.000 Br
ATOM     24  C   UNL     1      -2.294  12.515  21.024  0.00  0.00    +0.000 A 
BRANCH  18  26
ATOM     25  C   UNL     1      -4.061  12.519  24.404  0.00  0.00    +0.000 C 
ATOM     26  C   UNL     1      -3.922  12.791  22.914  0.00  0.00    +0.000 C 
ENDBRANCH  18  26
ENDBRANCH  17  21
ENDBRANCH  16  17
ENDBRANCH   1  16
TORSDOF 7
ENDMDL
MODEL 8
REMARK VINA RESULT:      -7.3      2.283      3.561
REMARK  Name = 
REMARK  10 active torsions:
REMARK  status: ('A' for Active; 'I' for Inactive)
REMARK    1  A    between atoms: C_1  and  C_2
REMARK    2  A    between atoms: C_2  and  C_3
REMARK    3  A    between atoms: C_6  and  O_7
REMARK    4  A    between atoms: O_7  and  C_8
REMARK    5  A    between atoms: C_8  and  C_9
REMARK    6  A    between atoms: C_11  and  C_12
REMARK    7  A    between atoms: C_15  and  O_16
REMARK    8  A    between atoms: O_16  and  C_17
REMARK    9  A    between atoms: C_18  and  O_19
REMARK   10  A    between atoms: O_19  and  C_20
REMARK                            x       y       z     vdW  Elec       q    Type
REMARK                         _______ _______ _______ _____ _____    ______ ____
ROOT
ATOM      1  C   UNL     1       1.351   8.440  20.257  0.00  0.00    +0.000 A 
ATOM      2  N   UNL     1       2.124   8.193  19.225  0.00  0.00    +0.000 NA
ATOM      3  C   UNL     1       2.453   6.866  19.401  0.00  0.00    +0.000 A 
ATOM      4  N   UNL     1       1.935   6.321  20.512  0.00  0.00    +0.000 NA
ATOM      5  O   UNL     1       1.201   7.364  21.083  0.00  0.00    +0.000 OA
ENDROOT
BRANCH   3   6
ATOM      6  C   UNL     1       3.254   6.154  18.412  0.00  0.00    +0.000 A 
ATOM      7  C   UNL     1       4.042   6.826  17.477  0.00  0.00    +0.000 A 
ATOM      8  C   UNL     1       4.786   6.095  16.547  0.00  0.00    +0.000 A 
ATOM      9  C   UNL     1       4.759   4.691  16.526  0.00  0.00    +0.000 A 
ATOM     10  C   UNL     1       3.974   4.004  17.468  0.00  0.00    +0.000 A 
ATOM     11  C   UNL     1       3.242   4.748  18.405  0.00  0.00    +0.000 A 
BRANCH   9  12
ATOM     12  O   UNL     1       5.551   4.175  15.533  0.00  0.00    +0.000 OA
ATOM     13  C   UNL     1       6.916   4.547  15.478  0.00  0.00    +0.000 C 
ENDBRANCH   9  12
BRANCH  10  14
ATOM     14  O   UNL     1       3.950   2.635  17.434  0.00  0.00    +0.000 OA
ATOM     15  C   UNL     1       3.065   1.950  18.314  0.00  0.00    +0.000 C 
ENDBRANCH  10  14
ENDBRANCH   3   6
BRANCH   1  16
ATOM     16  C   UNL     1       0.454   9.597  20.484  0.00  0.00    +0.000 C 
BRANCH  16  17
ATOM     17  O   UNL     1       0.386  10.398  19.311  0.00  0.00    +0.000 OA
BRANCH  17  21
ATOM     18  C   UNL     1      -3.270  10.945  17.310  0.00  0.00    +0.000 A 
ATOM     19  C   UNL     1      -2.293  10.041  16.901  0.00  0.00    +0.000 A 
ATOM     20  C   UNL     1      -1.103   9.916  17.629  0.00  0.00    +0.000 A 
ATOM     21  C   UNL     1      -0.853  10.681  18.785  0.00  0.00    +0.000 A 
ATOM     22  C   UNL     1      -1.853  11.574  19.208  0.00  0.00    +0.000 A 
ATOM     23 BR   UNL     1      -1.825  12.722  20.730  0.00  0.00    +0.000 Br
ATOM     24  C   UNL     1      -3.044  11.691  18.469  0.00  0.00    +0.000 A 
BRANCH  18  26
ATOM     25  C   UNL     1      -5.473  12.152  17.196  0.00  0.00    +0.000 C 
ATOM     26  C   UNL     1      -4.556  11.129  16.546  0.00  0.00    +0.000 C 
ENDBRANCH  18  26
ENDBRANCH  17  21
ENDBRANCH  16  17
ENDBRANCH   1  16
TORSDOF 7
ENDMDL
MODEL 9
REMARK VINA RESULT:      -7.3      2.935      8.943
REMARK  Name = 
REMARK  10 active torsions:
REMARK  status: ('A' for Active; 'I' for Inactive)
REMARK    1  A    between atoms: C_1  and  C_2
REMARK    2  A    between atoms: C_2  and  C_3
REMARK    3  A    between atoms: C_6  and  O_7
REMARK    4  A    between atoms: O_7  and  C_8
REMARK    5  A    between atoms: C_8  and  C_9
REMARK    6  A    between atoms: C_11  and  C_12
REMARK    7  A    between atoms: C_15  and  O_16
REMARK    8  A    between atoms: O_16  and  C_17
REMARK    9  A    between atoms: C_18  and  O_19
REMARK   10  A    between atoms: O_19  and  C_20
REMARK                            x       y       z     vdW  Elec       q    Type
REMARK                         _______ _______ _______ _____ _____    ______ ____
ROOT
ATOM      1  C   UNL     1       2.738   6.732  18.910  0.00  0.00    +0.000 A 
ATOM      2  N   UNL     1       2.236   7.170  20.041  0.00  0.00    +0.000 NA
ATOM      3  C   UNL     1       1.694   8.386  19.684  0.00  0.00    +0.000 A 
ATOM      4  N   UNL     1       1.883   8.706  18.394  0.00  0.00    +0.000 NA
ATOM      5  O   UNL     1       2.575   7.608  17.877  0.00  0.00    +0.000 OA
ENDROOT
BRANCH   3   6
ATOM      6  C   UNL     1       0.950   9.190  20.647  0.00  0.00    +0.000 A 
ATOM      7  C   UNL     1       0.271   8.614  21.721  0.00  0.00    +0.000 A 
ATOM      8  C   UNL     1      -0.432   9.429  22.612  0.00  0.00    +0.000 A 
ATOM      9  C   UNL     1      -0.475  10.824  22.452  0.00  0.00    +0.000 A 
ATOM     10  C   UNL     1       0.211  11.415  21.378  0.00  0.00    +0.000 A 
ATOM     11  C   UNL     1       0.924  10.587  20.498  0.00  0.00    +0.000 A 
BRANCH   9  12
ATOM     12  O   UNL     1      -1.223  11.431  23.427  0.00  0.00    +0.000 OA
ATOM     13  C   UNL     1      -2.498  11.952  23.094  0.00  0.00    +0.000 C 
ENDBRANCH   9  12
BRANCH  10  14
ATOM     14  O   UNL     1       0.155  12.775  21.227  0.00  0.00    +0.000 OA
ATOM     15  C   UNL     1       1.318  13.456  20.769  0.00  0.00    +0.000 C 
ENDBRANCH  10  14
ENDBRANCH   3   6
BRANCH   1  16
ATOM     16  C   UNL     1       3.200   5.366  18.572  0.00  0.00    +0.000 C 
BRANCH  16  17
ATOM     17  O   UNL     1       4.621   5.320  18.569  0.00  0.00    +0.000 OA
BRANCH  17  21
ATOM     18  C   UNL     1       6.258   4.511  14.782  0.00  0.00    +0.000 A 
ATOM     19  C   UNL     1       5.107   3.899  15.274  0.00  0.00    +0.000 A 
ATOM     20  C   UNL     1       4.624   4.231  16.546  0.00  0.00    +0.000 A 
ATOM     21  C   UNL     1       5.268   5.181  17.363  0.00  0.00    +0.000 A 
ATOM     22  C   UNL     1       6.414   5.814  16.852  0.00  0.00    +0.000 A 
ATOM     23 BR   UNL     1       7.485   7.147  17.696  0.00  0.00    +0.000 Br
ATOM     24  C   UNL     1       6.889   5.474  15.573  0.00  0.00    +0.000 A 
BRANCH  18  26
ATOM     25  C   UNL     1       5.823   3.436  12.551  0.00  0.00    +0.000 C 
ATOM     26  C   UNL     1       6.825   4.170  13.428  0.00  0.00    +0.000 C 
ENDBRANCH  18  26
ENDBRANCH  17  21
ENDBRANCH  16  17
ENDBRANCH   1  16
TORSDOF 7
ENDMDL
