MODEL 1
REMARK VINA RESULT:      -6.9      0.000      0.000
REMARK  Name = 
REMARK  5 active torsions:
REMARK  status: ('A' for Active; 'I' for Inactive)
REMARK    1  A    between atoms: C_1  and  C_2
REMARK    2  A    between atoms: C_2  and  C_3
REMARK    3  A    between atoms: C_2  and  C_4
REMARK    4  A    between atoms: C_4  and  C_5
REMARK    5  A    between atoms: N_10  and  C_11
REMARK                            x       y       z     vdW  Elec       q    Type
REMARK                         _______ _______ _______ _____ _____    ______ ____
ROOT
ATOM      1  C   UNL     1       5.974   4.130  14.085  0.00  0.00    +0.000 C 
ATOM      2  O   UNL     1       4.827   4.484  14.350  0.00  0.00    +0.000 OA
ATOM      3  N   UNL     1       7.012   4.116  14.999  0.00  0.00    +0.000 N 
ATOM      4  C   UNL     1       6.960   4.462  16.334  0.00  0.00    +0.000 C 
ATOM      5  O   UNL     1       7.974   4.445  17.022  0.00  0.00    +0.000 OA
ATOM      6  N   UNL     1       5.722   4.798  16.789  0.00  0.00    +0.000 N 
ATOM      7  H   UNL     1       7.941   3.864  14.698  0.00  0.00    +0.000 HD
ATOM      8  H   UNL     1       5.025   4.940  16.061  0.00  0.00    +0.000 HD
ENDROOT
BRANCH   6   9
ATOM      9  C   UNL     1       5.410   5.296  18.120  0.00  0.00    +0.000 C 
ATOM     10  C   UNL     1       4.146   6.165  18.102  0.00  0.00    +0.000 C 
ATOM     11  C   UNL     1       2.885   5.356  17.788  0.00  0.00    +0.000 C 
ATOM     12  C   UNL     1       2.728   4.141  18.700  0.00  0.00    +0.000 C 
ATOM     13  C   UNL     1       3.987   3.281  18.755  0.00  0.00    +0.000 C 
ATOM     14  C   UNL     1       5.227   4.115  19.084  0.00  0.00    +0.000 C 
ENDBRANCH   6   9
BRANCH   1  15
ATOM     15  C   UNL     1       6.351   3.724  12.676  0.00  0.00    +0.000 C 
BRANCH  15  17
ATOM     16  C   UNL     1       4.315   3.204  11.248  0.00  0.00    +0.000 C 
ATOM     17  C   UNL     1       5.473   2.626  12.065  0.00  0.00    +0.000 C 
ATOM     18  C   UNL     1       6.335   1.731  11.170  0.00  0.00    +0.000 C 
ENDBRANCH  15  17
ENDBRANCH   1  15
TORSDOF 3
ENDMDL
MODEL 2
REMARK VINA RESULT:      -6.9      3.325      6.382
REMARK  Name = 
REMARK  5 active torsions:
REMARK  status: ('A' for Active; 'I' for Inactive)
REMARK    1  A    between atoms: C_1  and  C_2
REMARK    2  A    between atoms: C_2  and  C_3
REMARK    3  A    between atoms: C_2  and  C_4
REMARK    4  A    between atoms: C_4  and  C_5
REMARK    5  A    between atoms: N_10  and  C_11
REMARK                            x       y       z     vdW  Elec       q    Type
REMARK                         _______ _______ _______ _____ _____    ______ ____
ROOT
ATOM      1  C   UNL     1       2.866   5.396  19.810  0.00  0.00    +0.000 C 
ATOM      2  O   UNL     1       3.919   4.766  19.741  0.00  0.00    +0.000 OA
ATOM      3  N   UNL     1       2.559   6.485  19.015  0.00  0.00    +0.000 N 
ATOM      4  C   UNL     1       3.335   7.040  18.017  0.00  0.00    +0.000 C 
ATOM      5  O   UNL     1       2.956   8.040  17.417  0.00  0.00    +0.000 OA
ATOM      6  N   UNL     1       4.504   6.388  17.772  0.00  0.00    +0.000 N 
ATOM      7  H   UNL     1       1.698   6.987  19.163  0.00  0.00    +0.000 HD
ATOM      8  H   UNL     1       4.757   5.692  18.471  0.00  0.00    +0.000 HD
ENDROOT
BRANCH   6   9
ATOM      9  C   UNL     1       5.543   6.818  16.849  0.00  0.00    +0.000 C 
ATOM     10  C   UNL     1       6.937   6.470  17.386  0.00  0.00    +0.000 C 
ATOM     11  C   UNL     1       7.187   4.961  17.426  0.00  0.00    +0.000 C 
ATOM     12  C   UNL     1       6.908   4.287  16.084  0.00  0.00    +0.000 C 
ATOM     13  C   UNL     1       5.538   4.647  15.519  0.00  0.00    +0.000 C 
ATOM     14  C   UNL     1       5.323   6.162  15.480  0.00  0.00    +0.000 C 
ENDBRANCH   6   9
BRANCH   1  15
ATOM     15  C   UNL     1       1.820   5.041  20.846  0.00  0.00    +0.000 C 
BRANCH  15  17
ATOM     16  C   UNL     1       1.162   3.276  19.141  0.00  0.00    +0.000 C 
ATOM     17  C   UNL     1       1.104   3.707  20.609  0.00  0.00    +0.000 C 
ATOM     18  C   UNL     1       1.745   2.628  21.487  0.00  0.00    +0.000 C 
ENDBRANCH  15  17
ENDBRANCH   1  15
TORSDOF 3
ENDMDL
MODEL 3
REMARK VINA RESULT:      -6.7      0.962      1.045
REMARK  Name = 
REMARK  5 active torsions:
REMARK  status: ('A' for Active; 'I' for Inactive)
REMARK    1  A    between atoms: C_1  and  C_2
REMARK    2  A    between atoms: C_2  and  C_3
REMARK    3  A    between atoms: C_2  and  C_4
REMARK    4  A    between atoms: C_4  and  C_5
REMARK    5  A    between atoms: N_10  and  C_11
REMARK                            x       y       z     vdW  Elec       q    Type
REMARK                         _______ _______ _______ _____ _____    ______ ____
ROOT
ATOM      1  C   UNL     1       6.155   4.291  14.911  0.00  0.00    +0.000 C 
ATOM      2  O   UNL     1       4.954   4.235  15.164  0.00  0.00    +0.000 OA
ATOM      3  N   UNL     1       7.147   4.366  15.872  0.00  0.00    +0.000 N 
ATOM      4  C   UNL     1       6.989   4.373  17.243  0.00  0.00    +0.000 C 
ATOM      5  O   UNL     1       7.960   4.489  17.982  0.00  0.00    +0.000 OA
ATOM      6  N   UNL     1       5.705   4.231  17.671  0.00  0.00    +0.000 N 
ATOM      7  H   UNL     1       8.111   4.464  15.591  0.00  0.00    +0.000 HD
ATOM      8  H   UNL     1       5.001   4.330  16.942  0.00  0.00    +0.000 HD
ENDROOT
BRANCH   6   9
ATOM      9  C   UNL     1       5.253   4.305  19.051  0.00  0.00    +0.000 C 
ATOM     10  C   UNL     1       4.364   5.534  19.277  0.00  0.00    +0.000 C 
ATOM     11  C   UNL     1       3.028   5.433  18.536  0.00  0.00    +0.000 C 
ATOM     12  C   UNL     1       2.290   4.131  18.841  0.00  0.00    +0.000 C 
ATOM     13  C   UNL     1       3.169   2.898  18.653  0.00  0.00    +0.000 C 
ATOM     14  C   UNL     1       4.490   3.025  19.415  0.00  0.00    +0.000 C 
ENDBRANCH   6   9
BRANCH   1  15
ATOM     15  C   UNL     1       6.642   4.338  13.478  0.00  0.00    +0.000 C 
BRANCH  15  17
ATOM     16  C   UNL     1       4.821   3.554  11.890  0.00  0.00    +0.000 C 
ATOM     17  C   UNL     1       6.135   3.198  12.587  0.00  0.00    +0.000 C 
ATOM     18  C   UNL     1       7.201   2.867  11.538  0.00  0.00    +0.000 C 
ENDBRANCH  15  17
ENDBRANCH   1  15
TORSDOF 3
ENDMDL
MODEL 4
REMARK VINA RESULT:      -6.6      3.183      6.441
REMARK  Name = 
REMARK  5 active torsions:
REMARK  status: ('A' for Active; 'I' for Inactive)
REMARK    1  A    between atoms: C_1  and  C_2
REMARK    2  A    between atoms: C_2  and  C_3
REMARK    3  A    between atoms: C_2  and  C_4
REMARK    4  A    between atoms: C_4  and  C_5
REMARK    5  A    between atoms: N_10  and  C_11
REMARK                            x       y       z     vdW  Elec       q    Type
REMARK                         _______ _______ _______ _____ _____    ______ ____
ROOT
ATOM      1  C   UNL     1       3.128   5.034  19.694  0.00  0.00    +0.000 C 
ATOM      2  O   UNL     1       4.177   4.429  19.485  0.00  0.00    +0.000 OA
ATOM      3  N   UNL     1       2.778   6.218  19.070  0.00  0.00    +0.000 N 
ATOM      4  C   UNL     1       3.498   6.909  18.117  0.00  0.00    +0.000 C 
ATOM      5  O   UNL     1       3.087   7.977  17.677  0.00  0.00    +0.000 OA
ATOM      6  N   UNL     1       4.653   6.306  17.725  0.00  0.00    +0.000 N 
ATOM      7  H   UNL     1       1.925   6.688  19.329  0.00  0.00    +0.000 HD
ATOM      8  H   UNL     1       4.945   5.525  18.310  0.00  0.00    +0.000 HD
ENDROOT
BRANCH   6   9
ATOM      9  C   UNL     1       5.641   6.866  16.816  0.00  0.00    +0.000 C 
ATOM     10  C   UNL     1       7.063   6.466  17.230  0.00  0.00    +0.000 C 
ATOM     11  C   UNL     1       7.322   4.967  17.059  0.00  0.00    +0.000 C 
ATOM     12  C   UNL     1       6.977   4.472  15.656  0.00  0.00    +0.000 C 
ATOM     13  C   UNL     1       5.578   4.887  15.213  0.00  0.00    +0.000 C 
ATOM     14  C   UNL     1       5.354   6.392  15.384  0.00  0.00    +0.000 C 
ENDBRANCH   6   9
BRANCH   1  15
ATOM     15  C   UNL     1       2.139   4.535  20.726  0.00  0.00    +0.000 C 
BRANCH  15  17
ATOM     16  C   UNL     1       1.337   2.492  22.008  0.00  0.00    +0.000 C 
ATOM     17  C   UNL     1       1.857   3.029  20.673  0.00  0.00    +0.000 C 
ATOM     18  C   UNL     1       0.830   2.748  19.571  0.00  0.00    +0.000 C 
ENDBRANCH  15  17
ENDBRANCH   1  15
TORSDOF 3
ENDMDL
MODEL 5
REMARK VINA RESULT:      -6.5      1.771      2.605
REMARK  Name = 
REMARK  5 active torsions:
REMARK  status: ('A' for Active; 'I' for Inactive)
REMARK    1  A    between atoms: C_1  and  C_2
REMARK    2  A    between atoms: C_2  and  C_3
REMARK    3  A    between atoms: C_2  and  C_4
REMARK    4  A    between atoms: C_4  and  C_5
REMARK    5  A    between atoms: N_10  and  C_11
REMARK                            x       y       z     vdW  Elec       q    Type
REMARK                         _______ _______ _______ _____ _____    ______ ____
ROOT
ATOM      1  C   UNL     1       6.060   4.265  16.211  0.00  0.00    +0.000 C 
ATOM      2  O   UNL     1       4.875   4.138  15.911  0.00  0.00    +0.000 OA
ATOM      3  N   UNL     1       6.516   4.476  17.499  0.00  0.00    +0.000 N 
ATOM      4  C   UNL     1       5.763   4.561  18.653  0.00  0.00    +0.000 C 
ATOM      5  O   UNL     1       6.297   4.797  19.730  0.00  0.00    +0.000 OA
ATOM      6  N   UNL     1       4.429   4.354  18.481  0.00  0.00    +0.000 N 
ATOM      7  H   UNL     1       7.499   4.625  17.665  0.00  0.00    +0.000 HD
ATOM      8  H   UNL     1       4.120   4.353  17.510  0.00  0.00    +0.000 HD
ENDROOT
BRANCH   6   9
ATOM      9  C   UNL     1       3.406   4.486  19.507  0.00  0.00    +0.000 C 
ATOM     10  C   UNL     1       2.111   5.067  18.926  0.00  0.00    +0.000 C 
ATOM     11  C   UNL     1       1.426   4.107  17.951  0.00  0.00    +0.000 C 
ATOM     12  C   UNL     1       1.209   2.720  18.553  0.00  0.00    +0.000 C 
ATOM     13  C   UNL     1       2.479   2.139  19.165  0.00  0.00    +0.000 C 
ATOM     14  C   UNL     1       3.133   3.116  20.144  0.00  0.00    +0.000 C 
ENDBRANCH   6   9
BRANCH   1  15
ATOM     15  C   UNL     1       7.133   4.253  15.142  0.00  0.00    +0.000 C 
BRANCH  15  17
ATOM     16  C   UNL     1       7.806   5.369  12.961  0.00  0.00    +0.000 C 
ATOM     17  C   UNL     1       6.670   4.726  13.759  0.00  0.00    +0.000 C 
ATOM     18  C   UNL     1       6.106   3.533  12.982  0.00  0.00    +0.000 C 
ENDBRANCH  15  17
ENDBRANCH   1  15
TORSDOF 3
ENDMDL
MODEL 6
REMARK VINA RESULT:      -6.5      2.776      6.092
REMARK  Name = 
REMARK  5 active torsions:
REMARK  status: ('A' for Active; 'I' for Inactive)
REMARK    1  A    between atoms: C_1  and  C_2
REMARK    2  A    between atoms: C_2  and  C_3
REMARK    3  A    between atoms: C_2  and  C_4
REMARK    4  A    between atoms: C_4  and  C_5
REMARK    5  A    between atoms: N_10  and  C_11
REMARK                            x       y       z     vdW  Elec       q    Type
REMARK                         _______ _______ _______ _____ _____    ______ ____
ROOT
ATOM      1  C   UNL     1       3.022   3.367  18.726  0.00  0.00    +0.000 C 
ATOM      2  O   UNL     1       2.745   3.799  17.610  0.00  0.00    +0.000 OA
ATOM      3  N   UNL     1       4.122   3.770  19.463  0.00  0.00    +0.000 N 
ATOM      4  C   UNL     1       5.069   4.711  19.110  0.00  0.00    +0.000 C 
ATOM      5  O   UNL     1       6.023   4.940  19.845  0.00  0.00    +0.000 OA
ATOM      6  N   UNL     1       4.839   5.337  17.924  0.00  0.00    +0.000 N 
ATOM      7  H   UNL     1       4.318   3.334  20.350  0.00  0.00    +0.000 HD
ATOM      8  H   UNL     1       4.113   4.909  17.352  0.00  0.00    +0.000 HD
ENDROOT
BRANCH   6   9
ATOM      9  C   UNL     1       5.727   6.289  17.277  0.00  0.00    +0.000 C 
ATOM     10  C   UNL     1       7.177   5.789  17.290  0.00  0.00    +0.000 C 
ATOM     11  C   UNL     1       7.378   4.555  16.408  0.00  0.00    +0.000 C 
ATOM     12  C   UNL     1       6.860   4.763  14.987  0.00  0.00    +0.000 C 
ATOM     13  C   UNL     1       5.429   5.290  14.954  0.00  0.00    +0.000 C 
ATOM     14  C   UNL     1       5.264   6.531  15.834  0.00  0.00    +0.000 C 
ENDBRANCH   6   9
BRANCH   1  15
ATOM     15  C   UNL     1       2.179   2.285  19.369  0.00  0.00    +0.000 C 
BRANCH  15  17
ATOM     16  C   UNL     1       1.867   2.578  21.873  0.00  0.00    +0.000 C 
ATOM     17  C   UNL     1       1.250   2.772  20.487  0.00  0.00    +0.000 C 
ATOM     18  C   UNL     1       0.932   4.254  20.267  0.00  0.00    +0.000 C 
ENDBRANCH  15  17
ENDBRANCH   1  15
TORSDOF 3
ENDMDL
MODEL 7
REMARK VINA RESULT:      -6.5      3.462      6.042
REMARK  Name = 
REMARK  5 active torsions:
REMARK  status: ('A' for Active; 'I' for Inactive)
REMARK    1  A    between atoms: C_1  and  C_2
REMARK    2  A    between atoms: C_2  and  C_3
REMARK    3  A    between atoms: C_2  and  C_4
REMARK    4  A    between atoms: C_4  and  C_5
REMARK    5  A    between atoms: N_10  and  C_11
REMARK                            x       y       z     vdW  Elec       q    Type
REMARK                         _______ _______ _______ _____ _____    ______ ____
ROOT
ATOM      1  C   UNL     1       3.105   4.887  19.310  0.00  0.00    +0.000 C 
ATOM      2  O   UNL     1       4.079   5.284  19.946  0.00  0.00    +0.000 OA
ATOM      3  N   UNL     1       3.163   4.432  18.006  0.00  0.00    +0.000 N 
ATOM      4  C   UNL     1       4.282   4.322  17.205  0.00  0.00    +0.000 C 
ATOM      5  O   UNL     1       4.182   3.942  16.043  0.00  0.00    +0.000 OA
ATOM      6  N   UNL     1       5.455   4.650  17.812  0.00  0.00    +0.000 N 
ATOM      7  H   UNL     1       2.315   4.172  17.527  0.00  0.00    +0.000 HD
ATOM      8  H   UNL     1       5.351   5.117  18.711  0.00  0.00    +0.000 HD
ENDROOT
BRANCH   6   9
ATOM      9  C   UNL     1       6.758   4.717  17.170  0.00  0.00    +0.000 C 
ATOM     10  C   UNL     1       6.907   6.007  16.354  0.00  0.00    +0.000 C 
ATOM     11  C   UNL     1       6.951   7.256  17.238  0.00  0.00    +0.000 C 
ATOM     12  C   UNL     1       8.004   7.154  18.339  0.00  0.00    +0.000 C 
ATOM     13  C   UNL     1       7.892   5.862  19.142  0.00  0.00    +0.000 C 
ATOM     14  C   UNL     1       7.863   4.632  18.232  0.00  0.00    +0.000 C 
ENDBRANCH   6   9
BRANCH   1  15
ATOM     15  C   UNL     1       1.718   4.923  19.918  0.00  0.00    +0.000 C 
BRANCH  15  17
ATOM     16  C   UNL     1       0.939   2.573  19.345  0.00  0.00    +0.000 C 
ATOM     17  C   UNL     1       1.218   3.581  20.463  0.00  0.00    +0.000 C 
ATOM     18  C   UNL     1       2.264   3.007  21.423  0.00  0.00    +0.000 C 
ENDBRANCH  15  17
ENDBRANCH   1  15
TORSDOF 3
ENDMDL
MODEL 8
REMARK VINA RESULT:      -6.4      3.593      5.149
REMARK  Name = 
REMARK  5 active torsions:
REMARK  status: ('A' for Active; 'I' for Inactive)
REMARK    1  A    between atoms: C_1  and  C_2
REMARK    2  A    between atoms: C_2  and  C_3
REMARK    3  A    between atoms: C_2  and  C_4
REMARK    4  A    between atoms: C_4  and  C_5
REMARK    5  A    between atoms: N_10  and  C_11
REMARK                            x       y       z     vdW  Elec       q    Type
REMARK                         _______ _______ _______ _____ _____    ______ ____
ROOT
ATOM      1  C   UNL     1       5.268   5.178  17.376  0.00  0.00    +0.000 C 
ATOM      2  O   UNL     1       5.045   4.004  17.661  0.00  0.00    +0.000 OA
ATOM      3  N   UNL     1       4.361   6.206  17.553  0.00  0.00    +0.000 N 
ATOM      4  C   UNL     1       3.088   6.121  18.081  0.00  0.00    +0.000 C 
ATOM      5  O   UNL     1       2.369   7.112  18.140  0.00  0.00    +0.000 OA
ATOM      6  N   UNL     1       2.734   4.883  18.522  0.00  0.00    +0.000 N 
ATOM      7  H   UNL     1       4.592   7.138  17.246  0.00  0.00    +0.000 HD
ATOM      8  H   UNL     1       3.364   4.135  18.238  0.00  0.00    +0.000 HD
ENDROOT
BRANCH   6   9
ATOM      9  C   UNL     1       1.425   4.499  19.026  0.00  0.00    +0.000 C 
ATOM     10  C   UNL     1       1.169   3.001  18.816  0.00  0.00    +0.000 C 
ATOM     11  C   UNL     1       2.083   2.127  19.678  0.00  0.00    +0.000 C 
ATOM     12  C   UNL     1       2.036   2.512  21.155  0.00  0.00    +0.000 C 
ATOM     13  C   UNL     1       2.257   4.005  21.381  0.00  0.00    +0.000 C 
ATOM     14  C   UNL     1       1.321   4.851  20.516  0.00  0.00    +0.000 C 
ENDBRANCH   6   9
BRANCH   1  15
ATOM     15  C   UNL     1       6.581   5.582  16.736  0.00  0.00    +0.000 C 
BRANCH  15  17
ATOM     16  C   UNL     1       7.627   7.716  17.634  0.00  0.00    +0.000 C 
ATOM     17  C   UNL     1       7.608   6.187  17.700  0.00  0.00    +0.000 C 
ATOM     18  C   UNL     1       7.284   5.737  19.128  0.00  0.00    +0.000 C 
ENDBRANCH  15  17
ENDBRANCH   1  15
TORSDOF 3
ENDMDL
MODEL 9
REMARK VINA RESULT:      -6.3      2.910      6.340
REMARK  Name = 
REMARK  5 active torsions:
REMARK  status: ('A' for Active; 'I' for Inactive)
REMARK    1  A    between atoms: C_1  and  C_2
REMARK    2  A    between atoms: C_2  and  C_3
REMARK    3  A    between atoms: C_2  and  C_4
REMARK    4  A    between atoms: C_4  and  C_5
REMARK    5  A    between atoms: N_10  and  C_11
REMARK                            x       y       z     vdW  Elec       q    Type
REMARK                         _______ _______ _______ _____ _____    ______ ____
ROOT
ATOM      1  C   UNL     1       3.912   3.670  19.630  0.00  0.00    +0.000 C 
ATOM      2  O   UNL     1       5.005   3.326  19.184  0.00  0.00    +0.000 OA
ATOM      3  N   UNL     1       3.310   4.884  19.356  0.00  0.00    +0.000 N 
ATOM      4  C   UNL     1       3.789   5.895  18.548  0.00  0.00    +0.000 C 
ATOM      5  O   UNL     1       3.168   6.945  18.429  0.00  0.00    +0.000 OA
ATOM      6  N   UNL     1       4.961   5.615  17.916  0.00  0.00    +0.000 N 
ATOM      7  H   UNL     1       2.437   5.122  19.800  0.00  0.00    +0.000 HD
ATOM      8  H   UNL     1       5.440   4.784  18.258  0.00  0.00    +0.000 HD
ENDROOT
BRANCH   6   9
ATOM      9  C   UNL     1       5.728   6.538  17.093  0.00  0.00    +0.000 C 
ATOM     10  C   UNL     1       7.223   6.198  17.127  0.00  0.00    +0.000 C 
ATOM     11  C   UNL     1       7.535   4.865  16.443  0.00  0.00    +0.000 C 
ATOM     12  C   UNL     1       6.965   4.788  15.028  0.00  0.00    +0.000 C 
ATOM     13  C   UNL     1       5.486   5.154  14.969  0.00  0.00    +0.000 C 
ATOM     14  C   UNL     1       5.208   6.496  15.650  0.00  0.00    +0.000 C 
ENDBRANCH   6   9
BRANCH   1  15
ATOM     15  C   UNL     1       3.152   2.775  20.587  0.00  0.00    +0.000 C 
BRANCH  15  17
ATOM     16  C   UNL     1       0.813   2.651  19.603  0.00  0.00    +0.000 C 
ATOM     17  C   UNL     1       1.674   3.138  20.771  0.00  0.00    +0.000 C 
ATOM     18  C   UNL     1       1.163   2.523  22.078  0.00  0.00    +0.000 C 
ENDBRANCH  15  17
ENDBRANCH   1  15
TORSDOF 3
ENDMDL
