MODEL 1
REMARK VINA RESULT:      -7.8      0.000      0.000
REMARK  Name = 
REMARK  8 active torsions:
REMARK  status: ('A' for Active; 'I' for Inactive)
REMARK    1  A    between atoms: C_1  and  N_2
REMARK    2  A    between atoms: C_6  and  O_7
REMARK    3  A    between atoms: O_7  and  C_8
REMARK    4  A    between atoms: N_10  and  C_11
REMARK    5  A    between atoms: C_19  and  C_20
REMARK    6  A    between atoms: N_23  and  C_24
REMARK    7  A    between atoms: C_24  and  C_25
REMARK    8  A    between atoms: C_25  and  C_26
REMARK                            x       y       z     vdW  Elec       q    Type
REMARK                         _______ _______ _______ _____ _____    ______ ____
ROOT
ATOM      1  C   UNL     1      -1.032  10.329  22.856  0.00  0.00    +0.000 C 
ATOM      2  N   UNL     1      -0.819  10.594  21.458  0.00  0.00    +0.000 N 
ATOM      3  C   UNL     1       0.113   9.956  20.672  0.00  0.00    +0.000 A 
ATOM      4  C   UNL     1       1.061   9.045  21.091  0.00  0.00    +0.000 A 
ATOM      5  C   UNL     1       1.915   8.473  20.153  0.00  0.00    +0.000 A 
ATOM      6  C   UNL     1       1.747   8.729  18.783  0.00  0.00    +0.000 A 
ATOM      7  C   UNL     1       0.818   9.688  18.353  0.00  0.00    +0.000 A 
ATOM      8  C   UNL     1       0.021  10.317  19.321  0.00  0.00    +0.000 A 
ATOM      9  C   UNL     1      -1.025  11.417  19.194  0.00  0.00    +0.000 C 
ATOM     10  C   UNL     1      -2.248  10.986  18.385  0.00  0.00    +0.000 C 
ATOM     11  C   UNL     1      -0.448  12.731  18.673  0.00  0.00    +0.000 C 
ATOM     12  C   UNL     1       0.105  13.402  19.913  0.00  0.00    +0.000 C 
ATOM     13  N   UNL     1      -0.909  13.132  20.933  0.00  0.00    +0.000 NA
ATOM     14  C   UNL     1      -1.364  11.732  20.723  0.00  0.00    +0.000 C 
ENDROOT
BRANCH   6  15
ATOM     15  O   UNL     1       2.528   8.033  17.830  0.00  0.00    +0.000 OA
BRANCH  15  16
ATOM     16  C   UNL     1       2.876   6.711  18.170  0.00  0.00    +0.000 C 
ATOM     17  O   UNL     1       3.985   6.394  18.594  0.00  0.00    +0.000 OA
ATOM     18  N   UNL     1       1.837   5.818  17.949  0.00  0.00    +0.000 N 
ATOM     19  H   UNL     1       1.065   6.151  17.403  0.00  0.00    +0.000 HD
BRANCH  18  20
ATOM     20  C   UNL     1       1.863   4.466  18.372  0.00  0.00    +0.000 A 
ATOM     21  C   UNL     1       1.395   4.062  19.632  0.00  0.00    +0.000 A 
ATOM     22  C   UNL     1       1.413   2.726  20.030  0.00  0.00    +0.000 A 
ATOM     23  C   UNL     1       1.901   1.756  19.165  0.00  0.00    +0.000 A 
ATOM     24  C   UNL     1       2.367   2.131  17.904  0.00  0.00    +0.000 A 
ATOM     25  C   UNL     1       2.343   3.479  17.506  0.00  0.00    +0.000 A 
ENDBRANCH  18  20
ENDBRANCH  15  16
ENDBRANCH   6  15
BRANCH  13  26
ATOM     26  C   UNL     1      -0.415  13.396  22.293  0.00  0.00    +0.000 C 
BRANCH  26  27
ATOM     27  C   UNL     1      -1.230  14.457  23.059  0.00  0.00    +0.000 C 
BRANCH  27  28
ATOM     28  C   UNL     1      -2.679  14.058  23.235  0.00  0.00    +0.000 A 
ATOM     29  C   UNL     1      -3.698  14.741  22.558  0.00  0.00    +0.000 A 
ATOM     30  C   UNL     1      -5.035  14.372  22.725  0.00  0.00    +0.000 A 
ATOM     31  C   UNL     1      -5.366  13.317  23.572  0.00  0.00    +0.000 A 
ATOM     32  C   UNL     1      -4.362  12.630  24.251  0.00  0.00    +0.000 A 
ATOM     33  C   UNL     1      -3.024  12.998  24.086  0.00  0.00    +0.000 A 
ENDBRANCH  27  28
ENDBRANCH  26  27
ENDBRANCH  13  26
TORSDOF 6
ENDMDL
MODEL 2
REMARK VINA RESULT:      -7.7      2.384      9.365
REMARK  Name = 
REMARK  8 active torsions:
REMARK  status: ('A' for Active; 'I' for Inactive)
REMARK    1  A    between atoms: C_1  and  N_2
REMARK    2  A    between atoms: C_6  and  O_7
REMARK    3  A    between atoms: O_7  and  C_8
REMARK    4  A    between atoms: N_10  and  C_11
REMARK    5  A    between atoms: C_19  and  C_20
REMARK    6  A    between atoms: N_23  and  C_24
REMARK    7  A    between atoms: C_24  and  C_25
REMARK    8  A    between atoms: C_25  and  C_26
REMARK                            x       y       z     vdW  Elec       q    Type
REMARK                         _______ _______ _______ _____ _____    ______ ____
ROOT
ATOM      1  C   UNL     1       4.790   4.337  20.071  0.00  0.00    +0.000 C 
ATOM      2  N   UNL     1       4.867   5.204  18.925  0.00  0.00    +0.000 N 
ATOM      3  C   UNL     1       3.994   6.234  18.662  0.00  0.00    +0.000 A 
ATOM      4  C   UNL     1       2.853   6.552  19.371  0.00  0.00    +0.000 A 
ATOM      5  C   UNL     1       2.092   7.649  18.980  0.00  0.00    +0.000 A 
ATOM      6  C   UNL     1       2.533   8.493  17.949  0.00  0.00    +0.000 A 
ATOM      7  C   UNL     1       3.665   8.153  17.193  0.00  0.00    +0.000 A 
ATOM      8  C   UNL     1       4.374   6.996  17.549  0.00  0.00    +0.000 A 
ATOM      9  C   UNL     1       5.590   6.334  16.914  0.00  0.00    +0.000 C 
ATOM     10  C   UNL     1       6.848   7.198  16.992  0.00  0.00    +0.000 C 
ATOM     11  C   UNL     1       5.331   5.856  15.487  0.00  0.00    +0.000 C 
ATOM     12  C   UNL     1       4.688   4.496  15.671  0.00  0.00    +0.000 C 
ATOM     13  N   UNL     1       5.454   3.898  16.764  0.00  0.00    +0.000 NA
ATOM     14  C   UNL     1       5.707   4.979  17.753  0.00  0.00    +0.000 C 
ENDROOT
BRANCH   6  15
ATOM     15  O   UNL     1       1.826   9.684  17.655  0.00  0.00    +0.000 OA
BRANCH  15  16
ATOM     16  C   UNL     1       0.777  10.007  18.539  0.00  0.00    +0.000 C 
ATOM     17  O   UNL     1      -0.410   9.876  18.252  0.00  0.00    +0.000 OA
ATOM     18  N   UNL     1       1.240  10.509  19.747  0.00  0.00    +0.000 N 
ATOM     19  H   UNL     1       2.207  10.773  19.785  0.00  0.00    +0.000 HD
BRANCH  18  20
ATOM     20  C   UNL     1       0.407  10.743  20.869  0.00  0.00    +0.000 A 
ATOM     21  C   UNL     1      -0.233  11.973  21.088  0.00  0.00    +0.000 A 
ATOM     22  C   UNL     1      -1.062  12.185  22.189  0.00  0.00    +0.000 A 
ATOM     23  C   UNL     1      -1.272  11.159  23.100  0.00  0.00    +0.000 A 
ATOM     24  C   UNL     1      -0.652   9.925  22.903  0.00  0.00    +0.000 A 
ATOM     25  C   UNL     1       0.180   9.715  21.789  0.00  0.00    +0.000 A 
ENDBRANCH  18  20
ENDBRANCH  15  16
ENDBRANCH   6  15
BRANCH  13  26
ATOM     26  C   UNL     1       4.782   2.719  17.335  0.00  0.00    +0.000 C 
BRANCH  26  27
ATOM     27  C   UNL     1       3.273   2.650  17.027  0.00  0.00    +0.000 C 
BRANCH  27  28
ATOM     28  C   UNL     1       2.423   2.772  18.273  0.00  0.00    +0.000 A 
ATOM     29  C   UNL     1       2.692   1.990  19.404  0.00  0.00    +0.000 A 
ATOM     30  C   UNL     1       1.904   2.102  20.552  0.00  0.00    +0.000 A 
ATOM     31  C   UNL     1       0.838   2.998  20.580  0.00  0.00    +0.000 A 
ATOM     32  C   UNL     1       0.559   3.781  19.462  0.00  0.00    +0.000 A 
ATOM     33  C   UNL     1       1.346   3.670  18.312  0.00  0.00    +0.000 A 
ENDBRANCH  27  28
ENDBRANCH  26  27
ENDBRANCH  13  26
TORSDOF 6
ENDMDL
MODEL 3
REMARK VINA RESULT:      -7.7      2.400      9.315
REMARK  Name = 
REMARK  8 active torsions:
REMARK  status: ('A' for Active; 'I' for Inactive)
REMARK    1  A    between atoms: C_1  and  N_2
REMARK    2  A    between atoms: C_6  and  O_7
REMARK    3  A    between atoms: O_7  and  C_8
REMARK    4  A    between atoms: N_10  and  C_11
REMARK    5  A    between atoms: C_19  and  C_20
REMARK    6  A    between atoms: N_23  and  C_24
REMARK    7  A    between atoms: C_24  and  C_25
REMARK    8  A    between atoms: C_25  and  C_26
REMARK                            x       y       z     vdW  Elec       q    Type
REMARK                         _______ _______ _______ _____ _____    ______ ____
ROOT
ATOM      1  C   UNL     1       4.828   4.370  20.080  0.00  0.00    +0.000 C 
ATOM      2  N   UNL     1       4.888   5.226  18.926  0.00  0.00    +0.000 N 
ATOM      3  C   UNL     1       3.999   6.241  18.656  0.00  0.00    +0.000 A 
ATOM      4  C   UNL     1       2.857   6.549  19.365  0.00  0.00    +0.000 A 
ATOM      5  C   UNL     1       2.079   7.632  18.965  0.00  0.00    +0.000 A 
ATOM      6  C   UNL     1       2.505   8.471  17.924  0.00  0.00    +0.000 A 
ATOM      7  C   UNL     1       3.639   8.140  17.168  0.00  0.00    +0.000 A 
ATOM      8  C   UNL     1       4.365   6.996  17.533  0.00  0.00    +0.000 A 
ATOM      9  C   UNL     1       5.588   6.345  16.901  0.00  0.00    +0.000 C 
ATOM     10  C   UNL     1       6.834   7.228  16.965  0.00  0.00    +0.000 C 
ATOM     11  C   UNL     1       5.331   5.849  15.480  0.00  0.00    +0.000 C 
ATOM     12  C   UNL     1       4.709   4.482  15.680  0.00  0.00    +0.000 C 
ATOM     13  N   UNL     1       5.487   3.906  16.776  0.00  0.00    +0.000 NA
ATOM     14  C   UNL     1       5.727   5.001  17.753  0.00  0.00    +0.000 C 
ENDROOT
BRANCH   6  15
ATOM     15  O   UNL     1       1.779   9.649  17.620  0.00  0.00    +0.000 OA
BRANCH  15  16
ATOM     16  C   UNL     1       0.736   9.972  18.510  0.00  0.00    +0.000 C 
ATOM     17  O   UNL     1      -0.453   9.907  18.206  0.00  0.00    +0.000 OA
ATOM     18  N   UNL     1       1.207  10.391  19.747  0.00  0.00    +0.000 N 
ATOM     19  H   UNL     1       2.183  10.610  19.806  0.00  0.00    +0.000 HD
BRANCH  18  20
ATOM     20  C   UNL     1       0.372  10.603  20.872  0.00  0.00    +0.000 A 
ATOM     21  C   UNL     1       0.202   9.637  21.876  0.00  0.00    +0.000 A 
ATOM     22  C   UNL     1      -0.612   9.865  22.985  0.00  0.00    +0.000 A 
ATOM     23  C   UNL     1      -1.274  11.078  23.116  0.00  0.00    +0.000 A 
ATOM     24  C   UNL     1      -1.117  12.057  22.134  0.00  0.00    +0.000 A 
ATOM     25  C   UNL     1      -0.293  11.824  21.020  0.00  0.00    +0.000 A 
ENDBRANCH  18  20
ENDBRANCH  15  16
ENDBRANCH   6  15
BRANCH  13  26
ATOM     26  C   UNL     1       4.834   2.724  17.361  0.00  0.00    +0.000 C 
BRANCH  26  27
ATOM     27  C   UNL     1       3.330   2.617  17.039  0.00  0.00    +0.000 C 
BRANCH  27  28
ATOM     28  C   UNL     1       2.463   2.769  18.270  0.00  0.00    +0.000 A 
ATOM     29  C   UNL     1       1.371   3.647  18.273  0.00  0.00    +0.000 A 
ATOM     30  C   UNL     1       0.574   3.788  19.412  0.00  0.00    +0.000 A 
ATOM     31  C   UNL     1       0.862   3.053  20.559  0.00  0.00    +0.000 A 
ATOM     32  C   UNL     1       1.946   2.178  20.570  0.00  0.00    +0.000 A 
ATOM     33  C   UNL     1       2.745   2.036  19.432  0.00  0.00    +0.000 A 
ENDBRANCH  27  28
ENDBRANCH  26  27
ENDBRANCH  13  26
TORSDOF 6
ENDMDL
MODEL 4
REMARK VINA RESULT:      -7.4      0.971      1.624
REMARK  Name = 
REMARK  8 active torsions:
REMARK  status: ('A' for Active; 'I' for Inactive)
REMARK    1  A    between atoms: C_1  and  N_2
REMARK    2  A    between atoms: C_6  and  O_7
REMARK    3  A    between atoms: O_7  and  C_8
REMARK    4  A    between atoms: N_10  and  C_11
REMARK    5  A    between atoms: C_19  and  C_20
REMARK    6  A    between atoms: N_23  and  C_24
REMARK    7  A    between atoms: C_24  and  C_25
REMARK    8  A    between atoms: C_25  and  C_26
REMARK                            x       y       z     vdW  Elec       q    Type
REMARK                         _______ _______ _______ _____ _____    ______ ____
ROOT
ATOM      1  C   UNL     1      -0.873  10.545  22.471  0.00  0.00    +0.000 C 
ATOM      2  N   UNL     1      -0.584  10.777  21.081  0.00  0.00    +0.000 N 
ATOM      3  C   UNL     1       0.307  10.044  20.332  0.00  0.00    +0.000 A 
ATOM      4  C   UNL     1       1.144   9.047  20.787  0.00  0.00    +0.000 A 
ATOM      5  C   UNL     1       1.971   8.386  19.883  0.00  0.00    +0.000 A 
ATOM      6  C   UNL     1       1.877   8.649  18.508  0.00  0.00    +0.000 A 
ATOM      7  C   UNL     1       1.064   9.692  18.040  0.00  0.00    +0.000 A 
ATOM      8  C   UNL     1       0.300  10.403  18.977  0.00  0.00    +0.000 A 
ATOM      9  C   UNL     1      -0.627  11.601  18.808  0.00  0.00    +0.000 C 
ATOM     10  C   UNL     1      -1.856  11.287  17.956  0.00  0.00    +0.000 C 
ATOM     11  C   UNL     1       0.097  12.848  18.304  0.00  0.00    +0.000 C 
ATOM     12  C   UNL     1       0.668  13.469  19.561  0.00  0.00    +0.000 C 
ATOM     13  N   UNL     1      -0.403  13.307  20.544  0.00  0.00    +0.000 NA
ATOM     14  C   UNL     1      -0.988  11.958  20.323  0.00  0.00    +0.000 C 
ENDROOT
BRANCH   6  15
ATOM     15  O   UNL     1       2.620   7.872  17.585  0.00  0.00    +0.000 OA
BRANCH  15  16
ATOM     16  C   UNL     1       2.936   6.563  18.001  0.00  0.00    +0.000 C 
ATOM     17  O   UNL     1       4.036   6.245  18.446  0.00  0.00    +0.000 OA
ATOM     18  N   UNL     1       1.877   5.683  17.828  0.00  0.00    +0.000 N 
ATOM     19  H   UNL     1       1.114   6.003  17.262  0.00  0.00    +0.000 HD
BRANCH  18  20
ATOM     20  C   UNL     1       1.871   4.357  18.327  0.00  0.00    +0.000 A 
ATOM     21  C   UNL     1       2.428   3.283  17.616  0.00  0.00    +0.000 A 
ATOM     22  C   UNL     1       2.427   1.985  18.125  0.00  0.00    +0.000 A 
ATOM     23  C   UNL     1       1.868   1.734  19.371  0.00  0.00    +0.000 A 
ATOM     24  C   UNL     1       1.312   2.786  20.100  0.00  0.00    +0.000 A 
ATOM     25  C   UNL     1       1.318   4.093  19.584  0.00  0.00    +0.000 A 
ENDBRANCH  18  20
ENDBRANCH  15  16
ENDBRANCH   6  15
BRANCH  13  26
ATOM     26  C   UNL     1       0.065  13.531  21.921  0.00  0.00    +0.000 C 
BRANCH  26  27
ATOM     27  C   UNL     1      -0.207  14.953  22.450  0.00  0.00    +0.000 C 
BRANCH  27  28
ATOM     28  C   UNL     1      -1.177  14.961  23.612  0.00  0.00    +0.000 A 
ATOM     29  C   UNL     1      -2.461  14.416  23.477  0.00  0.00    +0.000 A 
ATOM     30  C   UNL     1      -3.356  14.428  24.549  0.00  0.00    +0.000 A 
ATOM     31  C   UNL     1      -2.976  14.986  25.768  0.00  0.00    +0.000 A 
ATOM     32  C   UNL     1      -1.702  15.533  25.914  0.00  0.00    +0.000 A 
ATOM     33  C   UNL     1      -0.806  15.522  24.843  0.00  0.00    +0.000 A 
ENDBRANCH  27  28
ENDBRANCH  26  27
ENDBRANCH  13  26
TORSDOF 6
ENDMDL
MODEL 5
REMARK VINA RESULT:      -7.4      1.207      1.512
REMARK  Name = 
REMARK  8 active torsions:
REMARK  status: ('A' for Active; 'I' for Inactive)
REMARK    1  A    between atoms: C_1  and  N_2
REMARK    2  A    between atoms: C_6  and  O_7
REMARK    3  A    between atoms: O_7  and  C_8
REMARK    4  A    between atoms: N_10  and  C_11
REMARK    5  A    between atoms: C_19  and  C_20
REMARK    6  A    between atoms: N_23  and  C_24
REMARK    7  A    between atoms: C_24  and  C_25
REMARK    8  A    between atoms: C_25  and  C_26
REMARK                            x       y       z     vdW  Elec       q    Type
REMARK                         _______ _______ _______ _____ _____    ______ ____
ROOT
ATOM      1  C   UNL     1      -0.927  10.256  22.750  0.00  0.00    +0.000 C 
ATOM      2  N   UNL     1      -0.712  10.528  21.353  0.00  0.00    +0.000 N 
ATOM      3  C   UNL     1       0.219   9.893  20.565  0.00  0.00    +0.000 A 
ATOM      4  C   UNL     1       1.166   8.978  20.979  0.00  0.00    +0.000 A 
ATOM      5  C   UNL     1       2.020   8.411  20.039  0.00  0.00    +0.000 A 
ATOM      6  C   UNL     1       1.853   8.675  18.671  0.00  0.00    +0.000 A 
ATOM      7  C   UNL     1       0.926   9.637  18.245  0.00  0.00    +0.000 A 
ATOM      8  C   UNL     1       0.129  10.262  19.216  0.00  0.00    +0.000 A 
ATOM      9  C   UNL     1      -0.916  11.363  19.094  0.00  0.00    +0.000 C 
ATOM     10  C   UNL     1      -2.138  10.938  18.281  0.00  0.00    +0.000 C 
ATOM     11  C   UNL     1      -0.336  12.680  18.580  0.00  0.00    +0.000 C 
ATOM     12  C   UNL     1       0.216  13.343  19.825  0.00  0.00    +0.000 C 
ATOM     13  N   UNL     1      -0.799  13.068  20.842  0.00  0.00    +0.000 NA
ATOM     14  C   UNL     1      -1.256  11.670  20.624  0.00  0.00    +0.000 C 
ENDROOT
BRANCH   6  15
ATOM     15  O   UNL     1       2.635   7.982  17.714  0.00  0.00    +0.000 OA
BRANCH  15  16
ATOM     16  C   UNL     1       2.958   6.650  18.035  0.00  0.00    +0.000 C 
ATOM     17  O   UNL     1       4.089   6.288  18.350  0.00  0.00    +0.000 OA
ATOM     18  N   UNL     1       1.865   5.801  17.932  0.00  0.00    +0.000 N 
ATOM     19  H   UNL     1       1.056   6.163  17.462  0.00  0.00    +0.000 HD
BRANCH  18  20
ATOM     20  C   UNL     1       1.875   4.453  18.368  0.00  0.00    +0.000 A 
ATOM     21  C   UNL     1       1.367   4.062  19.617  0.00  0.00    +0.000 A 
ATOM     22  C   UNL     1       1.370   2.730  20.028  0.00  0.00    +0.000 A 
ATOM     23  C   UNL     1       1.883   1.751  19.187  0.00  0.00    +0.000 A 
ATOM     24  C   UNL     1       2.388   2.113  17.938  0.00  0.00    +0.000 A 
ATOM     25  C   UNL     1       2.379   3.457  17.527  0.00  0.00    +0.000 A 
ENDBRANCH  18  20
ENDBRANCH  15  16
ENDBRANCH   6  15
BRANCH  13  26
ATOM     26  C   UNL     1      -0.306  13.325  22.204  0.00  0.00    +0.000 C 
BRANCH  26  27
ATOM     27  C   UNL     1      -0.189  14.821  22.555  0.00  0.00    +0.000 C 
BRANCH  27  28
ATOM     28  C   UNL     1      -1.351  15.312  23.391  0.00  0.00    +0.000 A 
ATOM     29  C   UNL     1      -1.777  14.594  24.517  0.00  0.00    +0.000 A 
ATOM     30  C   UNL     1      -2.851  15.047  25.285  0.00  0.00    +0.000 A 
ATOM     31  C   UNL     1      -3.512  16.222  24.935  0.00  0.00    +0.000 A 
ATOM     32  C   UNL     1      -3.099  16.945  23.818  0.00  0.00    +0.000 A 
ATOM     33  C   UNL     1      -2.024  16.493  23.047  0.00  0.00    +0.000 A 
ENDBRANCH  27  28
ENDBRANCH  26  27
ENDBRANCH  13  26
TORSDOF 6
ENDMDL
MODEL 6
REMARK VINA RESULT:      -7.4      1.280      2.161
REMARK  Name = 
REMARK  8 active torsions:
REMARK  status: ('A' for Active; 'I' for Inactive)
REMARK    1  A    between atoms: C_1  and  N_2
REMARK    2  A    between atoms: C_6  and  O_7
REMARK    3  A    between atoms: O_7  and  C_8
REMARK    4  A    between atoms: N_10  and  C_11
REMARK    5  A    between atoms: C_19  and  C_20
REMARK    6  A    between atoms: N_23  and  C_24
REMARK    7  A    between atoms: C_24  and  C_25
REMARK    8  A    between atoms: C_25  and  C_26
REMARK                            x       y       z     vdW  Elec       q    Type
REMARK                         _______ _______ _______ _____ _____    ______ ____
ROOT
ATOM      1  C   UNL     1      -0.945  10.090  22.777  0.00  0.00    +0.000 C 
ATOM      2  N   UNL     1      -0.732  10.408  21.390  0.00  0.00    +0.000 N 
ATOM      3  C   UNL     1       0.212   9.814  20.586  0.00  0.00    +0.000 A 
ATOM      4  C   UNL     1       1.175   8.905  20.975  0.00  0.00    +0.000 A 
ATOM      5  C   UNL     1       2.041   8.381  20.020  0.00  0.00    +0.000 A 
ATOM      6  C   UNL     1       1.872   8.683  18.660  0.00  0.00    +0.000 A 
ATOM      7  C   UNL     1       0.928   9.641  18.261  0.00  0.00    +0.000 A 
ATOM      8  C   UNL     1       0.119  10.222  19.248  0.00  0.00    +0.000 A 
ATOM      9  C   UNL     1      -0.946  11.308  19.157  0.00  0.00    +0.000 C 
ATOM     10  C   UNL     1      -2.159  10.885  18.328  0.00  0.00    +0.000 C 
ATOM     11  C   UNL     1      -0.389  12.649  18.684  0.00  0.00    +0.000 C 
ATOM     12  C   UNL     1       0.148  13.285  19.950  0.00  0.00    +0.000 C 
ATOM     13  N   UNL     1      -0.864  12.961  20.955  0.00  0.00    +0.000 NA
ATOM     14  C   UNL     1      -1.295  11.562  20.695  0.00  0.00    +0.000 C 
ENDROOT
BRANCH   6  15
ATOM     15  O   UNL     1       2.668   8.034  17.685  0.00  0.00    +0.000 OA
BRANCH  15  16
ATOM     16  C   UNL     1       2.988   6.689  17.951  0.00  0.00    +0.000 C 
ATOM     17  O   UNL     1       4.136   6.294  18.144  0.00  0.00    +0.000 OA
ATOM     18  N   UNL     1       1.869   5.868  17.947  0.00  0.00    +0.000 N 
ATOM     19  H   UNL     1       1.026   6.258  17.567  0.00  0.00    +0.000 HD
BRANCH  18  20
ATOM     20  C   UNL     1       1.888   4.513  18.359  0.00  0.00    +0.000 A 
ATOM     21  C   UNL     1       2.398   3.487  17.548  0.00  0.00    +0.000 A 
ATOM     22  C   UNL     1       2.424   2.159  17.972  0.00  0.00    +0.000 A 
ATOM     23  C   UNL     1       1.941   1.828  19.231  0.00  0.00    +0.000 A 
ATOM     24  C   UNL     1       1.434   2.830  20.058  0.00  0.00    +0.000 A 
ATOM     25  C   UNL     1       1.413   4.168  19.628  0.00  0.00    +0.000 A 
ENDBRANCH  18  20
ENDBRANCH  15  16
ENDBRANCH   6  15
BRANCH  13  26
ATOM     26  C   UNL     1      -0.378  13.185  22.326  0.00  0.00    +0.000 C 
BRANCH  26  27
ATOM     27  C   UNL     1      -1.482  13.596  23.320  0.00  0.00    +0.000 C 
BRANCH  27  28
ATOM     28  C   UNL     1      -1.197  14.926  23.983  0.00  0.00    +0.000 A 
ATOM     29  C   UNL     1      -0.368  15.871  23.365  0.00  0.00    +0.000 A 
ATOM     30  C   UNL     1      -0.104  17.098  23.979  0.00  0.00    +0.000 A 
ATOM     31  C   UNL     1      -0.666  17.391  25.220  0.00  0.00    +0.000 A 
ATOM     32  C   UNL     1      -1.492  16.459  25.846  0.00  0.00    +0.000 A 
ATOM     33  C   UNL     1      -1.757  15.231  25.232  0.00  0.00    +0.000 A 
ENDBRANCH  27  28
ENDBRANCH  26  27
ENDBRANCH  13  26
TORSDOF 6
ENDMDL
MODEL 7
REMARK VINA RESULT:      -7.3      1.607      2.608
REMARK  Name = 
REMARK  8 active torsions:
REMARK  status: ('A' for Active; 'I' for Inactive)
REMARK    1  A    between atoms: C_1  and  N_2
REMARK    2  A    between atoms: C_6  and  O_7
REMARK    3  A    between atoms: O_7  and  C_8
REMARK    4  A    between atoms: N_10  and  C_11
REMARK    5  A    between atoms: C_19  and  C_20
REMARK    6  A    between atoms: N_23  and  C_24
REMARK    7  A    between atoms: C_24  and  C_25
REMARK    8  A    between atoms: C_25  and  C_26
REMARK                            x       y       z     vdW  Elec       q    Type
REMARK                         _______ _______ _______ _____ _____    ______ ____
ROOT
ATOM      1  C   UNL     1      -3.605  12.093  18.815  0.00  0.00    +0.000 C 
ATOM      2  N   UNL     1      -2.227  12.288  19.180  0.00  0.00    +0.000 N 
ATOM      3  C   UNL     1      -1.209  11.408  18.897  0.00  0.00    +0.000 A 
ATOM      4  C   UNL     1      -1.331  10.160  18.321  0.00  0.00    +0.000 A 
ATOM      5  C   UNL     1      -0.187   9.405  18.082  0.00  0.00    +0.000 A 
ATOM      6  C   UNL     1       1.086   9.946  18.317  0.00  0.00    +0.000 A 
ATOM      7  C   UNL     1       1.221  11.193  18.944  0.00  0.00    +0.000 A 
ATOM      8  C   UNL     1       0.052  11.905  19.255  0.00  0.00    +0.000 A 
ATOM      9  C   UNL     1      -0.148  13.236  19.969  0.00  0.00    +0.000 C 
ATOM     10  C   UNL     1       0.438  14.419  19.198  0.00  0.00    +0.000 C 
ATOM     11  C   UNL     1       0.343  13.216  21.415  0.00  0.00    +0.000 C 
ATOM     12  C   UNL     1      -0.822  12.630  22.185  0.00  0.00    +0.000 C 
ATOM     13  N   UNL     1      -1.992  13.258  21.573  0.00  0.00    +0.000 NA
ATOM     14  C   UNL     1      -1.738  13.303  20.108  0.00  0.00    +0.000 C 
ENDROOT
BRANCH   6  15
ATOM     15  O   UNL     1       2.244   9.224  17.937  0.00  0.00    +0.000 OA
BRANCH  15  16
ATOM     16  C   UNL     1       2.414   7.969  18.553  0.00  0.00    +0.000 C 
ATOM     17  O   UNL     1       2.151   7.757  19.734  0.00  0.00    +0.000 OA
ATOM     18  N   UNL     1       2.928   7.018  17.682  0.00  0.00    +0.000 N 
ATOM     19  H   UNL     1       3.304   7.357  16.816  0.00  0.00    +0.000 HD
BRANCH  18  20
ATOM     20  C   UNL     1       3.026   5.640  17.996  0.00  0.00    +0.000 A 
ATOM     21  C   UNL     1       1.963   4.745  17.797  0.00  0.00    +0.000 A 
ATOM     22  C   UNL     1       2.078   3.389  18.097  0.00  0.00    +0.000 A 
ATOM     23  C   UNL     1       3.273   2.894  18.602  0.00  0.00    +0.000 A 
ATOM     24  C   UNL     1       4.346   3.761  18.803  0.00  0.00    +0.000 A 
ATOM     25  C   UNL     1       4.227   5.128  18.496  0.00  0.00    +0.000 A 
ENDBRANCH  18  20
ENDBRANCH  15  16
ENDBRANCH   6  15
BRANCH  13  26
ATOM     26  C   UNL     1      -3.245  12.576  21.935  0.00  0.00    +0.000 C 
BRANCH  26  27
ATOM     27  C   UNL     1      -3.564  12.616  23.442  0.00  0.00    +0.000 C 
BRANCH  27  28
ATOM     28  C   UNL     1      -3.905  14.009  23.924  0.00  0.00    +0.000 A 
ATOM     29  C   UNL     1      -5.099  14.631  23.534  0.00  0.00    +0.000 A 
ATOM     30  C   UNL     1      -5.410  15.918  23.978  0.00  0.00    +0.000 A 
ATOM     31  C   UNL     1      -4.529  16.598  24.816  0.00  0.00    +0.000 A 
ATOM     32  C   UNL     1      -3.338  15.992  25.210  0.00  0.00    +0.000 A 
ATOM     33  C   UNL     1      -3.025  14.704  24.767  0.00  0.00    +0.000 A 
ENDBRANCH  27  28
ENDBRANCH  26  27
ENDBRANCH  13  26
TORSDOF 6
ENDMDL
MODEL 8
REMARK VINA RESULT:      -7.2      1.614      2.547
REMARK  Name = 
REMARK  8 active torsions:
REMARK  status: ('A' for Active; 'I' for Inactive)
REMARK    1  A    between atoms: C_1  and  N_2
REMARK    2  A    between atoms: C_6  and  O_7
REMARK    3  A    between atoms: O_7  and  C_8
REMARK    4  A    between atoms: N_10  and  C_11
REMARK    5  A    between atoms: C_19  and  C_20
REMARK    6  A    between atoms: N_23  and  C_24
REMARK    7  A    between atoms: C_24  and  C_25
REMARK    8  A    between atoms: C_25  and  C_26
REMARK                            x       y       z     vdW  Elec       q    Type
REMARK                         _______ _______ _______ _____ _____    ______ ____
ROOT
ATOM      1  C   UNL     1      -2.789  11.927  18.021  0.00  0.00    +0.000 C 
ATOM      2  N   UNL     1      -1.428  12.023  18.478  0.00  0.00    +0.000 N 
ATOM      3  C   UNL     1      -0.481  11.036  18.329  0.00  0.00    +0.000 A 
ATOM      4  C   UNL     1      -0.681   9.768  17.824  0.00  0.00    +0.000 A 
ATOM      5  C   UNL     1       0.400   8.898  17.721  0.00  0.00    +0.000 A 
ATOM      6  C   UNL     1       1.700   9.336  18.018  0.00  0.00    +0.000 A 
ATOM      7  C   UNL     1       1.908  10.607  18.575  0.00  0.00    +0.000 A 
ATOM      8  C   UNL     1       0.793  11.441  18.751  0.00  0.00    +0.000 A 
ATOM      9  C   UNL     1       0.671  12.830  19.364  0.00  0.00    +0.000 C 
ATOM     10  C   UNL     1       1.420  13.900  18.568  0.00  0.00    +0.000 C 
ATOM     11  C   UNL     1       1.055  12.866  20.841  0.00  0.00    +0.000 C 
ATOM     12  C   UNL     1      -0.212  12.441  21.555  0.00  0.00    +0.000 C 
ATOM     13  N   UNL     1      -1.271  13.130  20.817  0.00  0.00    +0.000 NA
ATOM     14  C   UNL     1      -0.911  13.050  19.377  0.00  0.00    +0.000 C 
ENDROOT
BRANCH   6  15
ATOM     15  O   UNL     1       2.808   8.489  17.774  0.00  0.00    +0.000 OA
BRANCH  15  16
ATOM     16  C   UNL     1       2.802   7.259  18.460  0.00  0.00    +0.000 C 
ATOM     17  O   UNL     1       2.446   7.142  19.631  0.00  0.00    +0.000 OA
ATOM     18  N   UNL     1       3.262   6.212  17.674  0.00  0.00    +0.000 N 
ATOM     19  H   UNL     1       3.724   6.460  16.819  0.00  0.00    +0.000 HD
BRANCH  18  20
ATOM     20  C   UNL     1       3.191   4.851  18.060  0.00  0.00    +0.000 A 
ATOM     21  C   UNL     1       4.174   4.242  18.856  0.00  0.00    +0.000 A 
ATOM     22  C   UNL     1       4.084   2.905  19.241  0.00  0.00    +0.000 A 
ATOM     23  C   UNL     1       2.995   2.144  18.838  0.00  0.00    +0.000 A 
ATOM     24  C   UNL     1       2.002   2.727  18.051  0.00  0.00    +0.000 A 
ATOM     25  C   UNL     1       2.095   4.076  17.668  0.00  0.00    +0.000 A 
ENDBRANCH  18  20
ENDBRANCH  15  16
ENDBRANCH   6  15
BRANCH  13  26
ATOM     26  C   UNL     1      -2.605  12.590  21.124  0.00  0.00    +0.000 C 
BRANCH  26  27
ATOM     27  C   UNL     1      -3.120  12.958  22.530  0.00  0.00    +0.000 C 
BRANCH  27  28
ATOM     28  C   UNL     1      -4.623  12.833  22.647  0.00  0.00    +0.000 A 
ATOM     29  C   UNL     1      -5.254  12.907  23.896  0.00  0.00    +0.000 A 
ATOM     30  C   UNL     1      -6.641  12.788  24.001  0.00  0.00    +0.000 A 
ATOM     31  C   UNL     1      -7.413  12.594  22.858  0.00  0.00    +0.000 A 
ATOM     32  C   UNL     1      -6.798  12.518  21.610  0.00  0.00    +0.000 A 
ATOM     33  C   UNL     1      -5.410  12.636  21.502  0.00  0.00    +0.000 A 
ENDBRANCH  27  28
ENDBRANCH  26  27
ENDBRANCH  13  26
TORSDOF 6
ENDMDL
MODEL 9
REMARK VINA RESULT:      -7.2      1.624      2.325
REMARK  Name = 
REMARK  8 active torsions:
REMARK  status: ('A' for Active; 'I' for Inactive)
REMARK    1  A    between atoms: C_1  and  N_2
REMARK    2  A    between atoms: C_6  and  O_7
REMARK    3  A    between atoms: O_7  and  C_8
REMARK    4  A    between atoms: N_10  and  C_11
REMARK    5  A    between atoms: C_19  and  C_20
REMARK    6  A    between atoms: N_23  and  C_24
REMARK    7  A    between atoms: C_24  and  C_25
REMARK    8  A    between atoms: C_25  and  C_26
REMARK                            x       y       z     vdW  Elec       q    Type
REMARK                         _______ _______ _______ _____ _____    ______ ____
ROOT
ATOM      1  C   UNL     1      -2.353  12.155  17.836  0.00  0.00    +0.000 C 
ATOM      2  N   UNL     1      -0.984  12.187  18.278  0.00  0.00    +0.000 N 
ATOM      3  C   UNL     1      -0.120  11.117  18.231  0.00  0.00    +0.000 A 
ATOM      4  C   UNL     1      -0.426   9.824  17.861  0.00  0.00    +0.000 A 
ATOM      5  C   UNL     1       0.581   8.864  17.846  0.00  0.00    +0.000 A 
ATOM      6  C   UNL     1       1.914   9.224  18.094  0.00  0.00    +0.000 A 
ATOM      7  C   UNL     1       2.229  10.525  18.515  0.00  0.00    +0.000 A 
ATOM      8  C   UNL     1       1.186  11.459  18.606  0.00  0.00    +0.000 A 
ATOM      9  C   UNL     1       1.182  12.910  19.071  0.00  0.00    +0.000 C 
ATOM     10  C   UNL     1       2.005  13.828  18.167  0.00  0.00    +0.000 C 
ATOM     11  C   UNL     1       1.582  13.067  20.536  0.00  0.00    +0.000 C 
ATOM     12  C   UNL     1       0.293  12.822  21.293  0.00  0.00    +0.000 C 
ATOM     13  N   UNL     1      -0.715  13.514  20.489  0.00  0.00    +0.000 NA
ATOM     14  C   UNL     1      -0.378  13.257  19.064  0.00  0.00    +0.000 C 
ENDROOT
BRANCH   6  15
ATOM     15  O   UNL     1       2.949   8.269  17.937  0.00  0.00    +0.000 OA
BRANCH  15  16
ATOM     16  C   UNL     1       2.782   7.064  18.646  0.00  0.00    +0.000 C 
ATOM     17  O   UNL     1       2.481   7.018  19.836  0.00  0.00    +0.000 OA
ATOM     18  N   UNL     1       3.020   5.948  17.855  0.00  0.00    +0.000 N 
ATOM     19  H   UNL     1       3.466   6.109  16.972  0.00  0.00    +0.000 HD
BRANCH  18  20
ATOM     20  C   UNL     1       2.751   4.621  18.271  0.00  0.00    +0.000 A 
ATOM     21  C   UNL     1       3.702   3.834  18.939  0.00  0.00    +0.000 A 
ATOM     22  C   UNL     1       3.419   2.534  19.356  0.00  0.00    +0.000 A 
ATOM     23  C   UNL     1       2.164   1.991  19.114  0.00  0.00    +0.000 A 
ATOM     24  C   UNL     1       1.200   2.755  18.456  0.00  0.00    +0.000 A 
ATOM     25  C   UNL     1       1.488   4.066  18.042  0.00  0.00    +0.000 A 
ENDBRANCH  18  20
ENDBRANCH  15  16
ENDBRANCH   6  15
BRANCH  13  26
ATOM     26  C   UNL     1      -2.085  13.118  20.853  0.00  0.00    +0.000 C 
BRANCH  26  27
ATOM     27  C   UNL     1      -2.181  12.353  22.188  0.00  0.00    +0.000 C 
BRANCH  27  28
ATOM     28  C   UNL     1      -3.540  12.492  22.837  0.00  0.00    +0.000 A 
ATOM     29  C   UNL     1      -4.673  12.795  22.071  0.00  0.00    +0.000 A 
ATOM     30  C   UNL     1      -5.927  12.926  22.673  0.00  0.00    +0.000 A 
ATOM     31  C   UNL     1      -6.060  12.756  24.049  0.00  0.00    +0.000 A 
ATOM     32  C   UNL     1      -4.940  12.456  24.823  0.00  0.00    +0.000 A 
ATOM     33  C   UNL     1      -3.685  12.325  24.223  0.00  0.00    +0.000 A 
ENDBRANCH  27  28
ENDBRANCH  26  27
ENDBRANCH  13  26
TORSDOF 6
ENDMDL
