MODEL 1
REMARK VINA RESULT:      -7.8      0.000      0.000
REMARK  Name = 
REMARK  12 active torsions:
REMARK  status: ('A' for Active; 'I' for Inactive)
REMARK    1  A    between atoms: C_1  and  C_2
REMARK    2  A    between atoms: C_2  and  C_3
REMARK    3  A    between atoms: C_3  and  C_4
REMARK    4  A    between atoms: C_3  and  C_5
REMARK    5  A    between atoms: C_3  and  C_6
REMARK    6  A    between atoms: C_6  and  C_8
REMARK    7  A    between atoms: C_14  and  C_15
REMARK    8  A    between atoms: C_15  and  S_17
REMARK    9  A    between atoms: S_17  and  C_18
REMARK   10  A    between atoms: C_18  and  C_19
REMARK   11  A    between atoms: C_19  and  C_20
REMARK   12  A    between atoms: C_20  and  C_21
REMARK                            x       y       z     vdW  Elec       q    Type
REMARK                         _______ _______ _______ _____ _____    ______ ____
ROOT
ATOM      1  C   UNL     1       4.595   3.521  18.695  0.00  0.00    +0.000 C 
ATOM      2  O   UNL     1       5.171   3.393  19.770  0.00  0.00    +0.000 OA
ATOM      3  N   UNL     1       5.159   4.148  17.594  0.00  0.00    +0.000 N 
ATOM      4  C   UNL     1       4.591   4.286  16.266  0.00  0.00    +0.000 C 
ATOM      5  C   UNL     1       5.752   3.920  15.362  0.00  0.00    +0.000 C 
ATOM      6  C   UNL     1       6.955   4.510  16.086  0.00  0.00    +0.000 C 
ATOM      7  C   UNL     1       6.594   4.461  17.584  0.00  0.00    +0.000 C 
ENDROOT
BRANCH   1   8
ATOM      8  C   UNL     1       3.207   2.889  18.527  0.00  0.00    +0.000 C 
ATOM      9  O   UNL     1       3.148   1.698  18.233  0.00  0.00    +0.000 OA
BRANCH   8  10
ATOM     10  C   UNL     1       1.966   3.736  18.852  0.00  0.00    +0.000 C 
ATOM     11  C   UNL     1       1.190   3.989  17.542  0.00  0.00    +0.000 C 
ATOM     12  C   UNL     1       2.374   5.109  19.417  0.00  0.00    +0.000 C 
BRANCH  10  14
ATOM     13  C   UNL     1       1.493   3.151  21.345  0.00  0.00    +0.000 C 
ATOM     14  C   UNL     1       1.066   3.014  19.885  0.00  0.00    +0.000 C 
ENDBRANCH  10  14
ENDBRANCH   8  10
ENDBRANCH   1   8
BRANCH   7  15
ATOM     15  C   UNL     1       6.944   5.786  18.296  0.00  0.00    +0.000 C 
ATOM     16  O   UNL     1       7.434   5.880  19.413  0.00  0.00    +0.000 OA
BRANCH  15  17
ATOM     17  S   UNL     1       6.544   7.223  17.338  0.00  0.00    +0.000 S 
BRANCH  17  18
ATOM     18  C   UNL     1       8.152   8.059  17.280  0.00  0.00    +0.000 C 
BRANCH  18  19
ATOM     19  C   UNL     1       8.049   9.352  18.095  0.00  0.00    +0.000 C 
BRANCH  19  20
ATOM     20  C   UNL     1       9.166   9.458  19.134  0.00  0.00    +0.000 C 
BRANCH  20  21
ATOM     21  C   UNL     1       9.677  10.873  19.263  0.00  0.00    +0.000 A 
ATOM     22  C   UNL     1       9.908  11.438  20.524  0.00  0.00    +0.000 A 
ATOM     23  C   UNL     1      10.368  12.753  20.638  0.00  0.00    +0.000 A 
ATOM     24  C   UNL     1      10.594  13.518  19.495  0.00  0.00    +0.000 A 
ATOM     25  C   UNL     1      10.362  12.967  18.236  0.00  0.00    +0.000 A 
ATOM     26  C   UNL     1       9.901  11.654  18.120  0.00  0.00    +0.000 A 
ENDBRANCH  20  21
ENDBRANCH  19  20
ENDBRANCH  18  19
ENDBRANCH  17  18
ENDBRANCH  15  17
ENDBRANCH   7  15
TORSDOF 9
ENDMDL
MODEL 2
REMARK VINA RESULT:      -7.4      0.874      1.599
REMARK  Name = 
REMARK  12 active torsions:
REMARK  status: ('A' for Active; 'I' for Inactive)
REMARK    1  A    between atoms: C_1  and  C_2
REMARK    2  A    between atoms: C_2  and  C_3
REMARK    3  A    between atoms: C_3  and  C_4
REMARK    4  A    between atoms: C_3  and  C_5
REMARK    5  A    between atoms: C_3  and  C_6
REMARK    6  A    between atoms: C_6  and  C_8
REMARK    7  A    between atoms: C_14  and  C_15
REMARK    8  A    between atoms: C_15  and  S_17
REMARK    9  A    between atoms: S_17  and  C_18
REMARK   10  A    between atoms: C_18  and  C_19
REMARK   11  A    between atoms: C_19  and  C_20
REMARK   12  A    between atoms: C_20  and  C_21
REMARK                            x       y       z     vdW  Elec       q    Type
REMARK                         _______ _______ _______ _____ _____    ______ ____
ROOT
ATOM      1  C   UNL     1       4.767   3.642  18.600  0.00  0.00    +0.000 C 
ATOM      2  O   UNL     1       5.385   3.501  19.649  0.00  0.00    +0.000 OA
ATOM      3  N   UNL     1       5.293   4.268  17.479  0.00  0.00    +0.000 N 
ATOM      4  C   UNL     1       4.672   4.420  16.177  0.00  0.00    +0.000 C 
ATOM      5  C   UNL     1       5.788   4.042  15.223  0.00  0.00    +0.000 C 
ATOM      6  C   UNL     1       7.030   4.612  15.899  0.00  0.00    +0.000 C 
ATOM      7  C   UNL     1       6.731   4.560  17.411  0.00  0.00    +0.000 C 
ENDROOT
BRANCH   1   8
ATOM      8  C   UNL     1       3.364   3.031  18.488  0.00  0.00    +0.000 C 
ATOM      9  O   UNL     1       3.276   1.831  18.242  0.00  0.00    +0.000 OA
BRANCH   8  10
ATOM     10  C   UNL     1       2.146   3.915  18.805  0.00  0.00    +0.000 C 
ATOM     11  C   UNL     1       1.181   3.113  19.705  0.00  0.00    +0.000 C 
ATOM     12  C   UNL     1       1.382   4.277  17.519  0.00  0.00    +0.000 C 
BRANCH  10  14
ATOM     13  C   UNL     1       1.760   5.627  20.728  0.00  0.00    +0.000 C 
ATOM     14  C   UNL     1       2.588   5.220  19.513  0.00  0.00    +0.000 C 
ENDBRANCH  10  14
ENDBRANCH   8  10
ENDBRANCH   1   8
BRANCH   7  15
ATOM     15  C   UNL     1       7.130   5.876  18.113  0.00  0.00    +0.000 C 
ATOM     16  O   UNL     1       7.076   6.079  19.318  0.00  0.00    +0.000 OA
BRANCH  15  17
ATOM     17  S   UNL     1       7.673   7.134  16.987  0.00  0.00    +0.000 S 
BRANCH  17  18
ATOM     18  C   UNL     1       7.285   8.633  17.930  0.00  0.00    +0.000 C 
BRANCH  18  19
ATOM     19  C   UNL     1       8.603   9.313  18.313  0.00  0.00    +0.000 C 
BRANCH  19  20
ATOM     20  C   UNL     1       8.551  10.823  18.077  0.00  0.00    +0.000 C 
BRANCH  20  21
ATOM     21  C   UNL     1       9.868  11.485  18.409  0.00  0.00    +0.000 A 
ATOM     22  C   UNL     1      10.526  12.282  17.463  0.00  0.00    +0.000 A 
ATOM     23  C   UNL     1      11.751  12.881  17.770  0.00  0.00    +0.000 A 
ATOM     24  C   UNL     1      12.333  12.685  19.021  0.00  0.00    +0.000 A 
ATOM     25  C   UNL     1      11.689  11.890  19.967  0.00  0.00    +0.000 A 
ATOM     26  C   UNL     1      10.466  11.289  19.662  0.00  0.00    +0.000 A 
ENDBRANCH  20  21
ENDBRANCH  19  20
ENDBRANCH  18  19
ENDBRANCH  17  18
ENDBRANCH  15  17
ENDBRANCH   7  15
TORSDOF 9
ENDMDL
MODEL 3
REMARK VINA RESULT:      -7.4      1.231      1.776
REMARK  Name = 
REMARK  12 active torsions:
REMARK  status: ('A' for Active; 'I' for Inactive)
REMARK    1  A    between atoms: C_1  and  C_2
REMARK    2  A    between atoms: C_2  and  C_3
REMARK    3  A    between atoms: C_3  and  C_4
REMARK    4  A    between atoms: C_3  and  C_5
REMARK    5  A    between atoms: C_3  and  C_6
REMARK    6  A    between atoms: C_6  and  C_8
REMARK    7  A    between atoms: C_14  and  C_15
REMARK    8  A    between atoms: C_15  and  S_17
REMARK    9  A    between atoms: S_17  and  C_18
REMARK   10  A    between atoms: C_18  and  C_19
REMARK   11  A    between atoms: C_19  and  C_20
REMARK   12  A    between atoms: C_20  and  C_21
REMARK                            x       y       z     vdW  Elec       q    Type
REMARK                         _______ _______ _______ _____ _____    ______ ____
ROOT
ATOM      1  C   UNL     1       5.369   4.461  18.993  0.00  0.00    +0.000 C 
ATOM      2  O   UNL     1       6.113   4.910  19.858  0.00  0.00    +0.000 OA
ATOM      3  N   UNL     1       5.561   4.669  17.635  0.00  0.00    +0.000 N 
ATOM      4  C   UNL     1       4.785   4.124  16.537  0.00  0.00    +0.000 C 
ATOM      5  C   UNL     1       5.852   3.650  15.570  0.00  0.00    +0.000 C 
ATOM      6  C   UNL     1       6.935   4.713  15.700  0.00  0.00    +0.000 C 
ATOM      7  C   UNL     1       6.832   5.224  17.152  0.00  0.00    +0.000 C 
ENDROOT
BRANCH   1   8
ATOM      8  C   UNL     1       4.206   3.557  19.422  0.00  0.00    +0.000 C 
ATOM      9  O   UNL     1       4.435   2.361  19.586  0.00  0.00    +0.000 OA
BRANCH   8  10
ATOM     10  C   UNL     1       2.849   4.203  19.743  0.00  0.00    +0.000 C 
ATOM     11  C   UNL     1       1.814   3.706  18.712  0.00  0.00    +0.000 C 
ATOM     12  C   UNL     1       2.927   5.735  19.613  0.00  0.00    +0.000 C 
BRANCH  10  14
ATOM     13  C   UNL     1       1.239   2.855  21.283  0.00  0.00    +0.000 C 
ATOM     14  C   UNL     1       2.398   3.843  21.181  0.00  0.00    +0.000 C 
ENDBRANCH  10  14
ENDBRANCH   8  10
ENDBRANCH   1   8
BRANCH   7  15
ATOM     15  C   UNL     1       6.899   6.766  17.216  0.00  0.00    +0.000 C 
ATOM     16  O   UNL     1       6.233   7.531  16.532  0.00  0.00    +0.000 OA
BRANCH  15  17
ATOM     17  S   UNL     1       8.081   7.368  18.391  0.00  0.00    +0.000 S 
BRANCH  17  18
ATOM     18  C   UNL     1       8.085   9.139  18.002  0.00  0.00    +0.000 C 
BRANCH  18  19
ATOM     19  C   UNL     1       9.408   9.735  18.492  0.00  0.00    +0.000 C 
BRANCH  19  20
ATOM     20  C   UNL     1       9.183  10.954  19.388  0.00  0.00    +0.000 C 
BRANCH  20  21
ATOM     21  C   UNL     1      10.088  12.102  19.006  0.00  0.00    +0.000 A 
ATOM     22  C   UNL     1      10.476  12.293  17.673  0.00  0.00    +0.000 A 
ATOM     23  C   UNL     1      11.324  13.348  17.327  0.00  0.00    +0.000 A 
ATOM     24  C   UNL     1      11.799  14.216  18.307  0.00  0.00    +0.000 A 
ATOM     25  C   UNL     1      11.424  14.031  19.637  0.00  0.00    +0.000 A 
ATOM     26  C   UNL     1      10.578  12.977  19.986  0.00  0.00    +0.000 A 
ENDBRANCH  20  21
ENDBRANCH  19  20
ENDBRANCH  18  19
ENDBRANCH  17  18
ENDBRANCH  15  17
ENDBRANCH   7  15
TORSDOF 9
ENDMDL
MODEL 4
REMARK VINA RESULT:      -7.2      1.176      1.853
REMARK  Name = 
REMARK  12 active torsions:
REMARK  status: ('A' for Active; 'I' for Inactive)
REMARK    1  A    between atoms: C_1  and  C_2
REMARK    2  A    between atoms: C_2  and  C_3
REMARK    3  A    between atoms: C_3  and  C_4
REMARK    4  A    between atoms: C_3  and  C_5
REMARK    5  A    between atoms: C_3  and  C_6
REMARK    6  A    between atoms: C_6  and  C_8
REMARK    7  A    between atoms: C_14  and  C_15
REMARK    8  A    between atoms: C_15  and  S_17
REMARK    9  A    between atoms: S_17  and  C_18
REMARK   10  A    between atoms: C_18  and  C_19
REMARK   11  A    between atoms: C_19  and  C_20
REMARK   12  A    between atoms: C_20  and  C_21
REMARK                            x       y       z     vdW  Elec       q    Type
REMARK                         _______ _______ _______ _____ _____    ______ ____
ROOT
ATOM      1  C   UNL     1       4.789   3.715  18.565  0.00  0.00    +0.000 C 
ATOM      2  O   UNL     1       5.402   3.955  19.600  0.00  0.00    +0.000 OA
ATOM      3  N   UNL     1       5.134   4.245  17.331  0.00  0.00    +0.000 N 
ATOM      4  C   UNL     1       4.521   3.968  16.045  0.00  0.00    +0.000 C 
ATOM      5  C   UNL     1       5.717   3.755  15.138  0.00  0.00    +0.000 C 
ATOM      6  C   UNL     1       6.728   4.772  15.653  0.00  0.00    +0.000 C 
ATOM      7  C   UNL     1       6.428   4.919  17.158  0.00  0.00    +0.000 C 
ENDROOT
BRANCH   1   8
ATOM      8  C   UNL     1       3.624   2.718  18.617  0.00  0.00    +0.000 C 
ATOM      9  O   UNL     1       3.801   1.600  18.140  0.00  0.00    +0.000 OA
BRANCH   8  10
ATOM     10  C   UNL     1       2.342   3.119  19.366  0.00  0.00    +0.000 C 
ATOM     11  C   UNL     1       2.523   2.781  20.861  0.00  0.00    +0.000 C 
ATOM     12  C   UNL     1       1.135   2.313  18.854  0.00  0.00    +0.000 C 
BRANCH  10  14
ATOM     13  C   UNL     1       1.886   5.432  20.470  0.00  0.00    +0.000 C 
ATOM     14  C   UNL     1       2.053   4.630  19.182  0.00  0.00    +0.000 C 
ENDBRANCH  10  14
ENDBRANCH   8  10
ENDBRANCH   1   8
BRANCH   7  15
ATOM     15  C   UNL     1       6.418   6.401  17.592  0.00  0.00    +0.000 C 
ATOM     16  O   UNL     1       5.499   7.186  17.403  0.00  0.00    +0.000 OA
BRANCH  15  17
ATOM     17  S   UNL     1       7.913   6.905  18.400  0.00  0.00    +0.000 S 
BRANCH  17  18
ATOM     18  C   UNL     1       8.318   8.409  17.471  0.00  0.00    +0.000 C 
BRANCH  18  19
ATOM     19  C   UNL     1       8.094   9.614  18.388  0.00  0.00    +0.000 C 
BRANCH  19  20
ATOM     20  C   UNL     1       8.602  10.911  17.756  0.00  0.00    +0.000 C 
BRANCH  20  21
ATOM     21  C   UNL     1       9.874  11.392  18.414  0.00  0.00    +0.000 A 
ATOM     22  C   UNL     1      10.973  11.788  17.640  0.00  0.00    +0.000 A 
ATOM     23  C   UNL     1      12.152  12.219  18.254  0.00  0.00    +0.000 A 
ATOM     24  C   UNL     1      12.249  12.251  19.643  0.00  0.00    +0.000 A 
ATOM     25  C   UNL     1      11.163  11.853  20.422  0.00  0.00    +0.000 A 
ATOM     26  C   UNL     1       9.984  11.421  19.811  0.00  0.00    +0.000 A 
ENDBRANCH  20  21
ENDBRANCH  19  20
ENDBRANCH  18  19
ENDBRANCH  17  18
ENDBRANCH  15  17
ENDBRANCH   7  15
TORSDOF 9
ENDMDL
MODEL 5
REMARK VINA RESULT:      -7.2      1.088      1.503
REMARK  Name = 
REMARK  12 active torsions:
REMARK  status: ('A' for Active; 'I' for Inactive)
REMARK    1  A    between atoms: C_1  and  C_2
REMARK    2  A    between atoms: C_2  and  C_3
REMARK    3  A    between atoms: C_3  and  C_4
REMARK    4  A    between atoms: C_3  and  C_5
REMARK    5  A    between atoms: C_3  and  C_6
REMARK    6  A    between atoms: C_6  and  C_8
REMARK    7  A    between atoms: C_14  and  C_15
REMARK    8  A    between atoms: C_15  and  S_17
REMARK    9  A    between atoms: S_17  and  C_18
REMARK   10  A    between atoms: C_18  and  C_19
REMARK   11  A    between atoms: C_19  and  C_20
REMARK   12  A    between atoms: C_20  and  C_21
REMARK                            x       y       z     vdW  Elec       q    Type
REMARK                         _______ _______ _______ _____ _____    ______ ____
ROOT
ATOM      1  C   UNL     1       4.515   4.068  18.651  0.00  0.00    +0.000 C 
ATOM      2  O   UNL     1       4.951   4.521  19.703  0.00  0.00    +0.000 OA
ATOM      3  N   UNL     1       5.032   4.392  17.405  0.00  0.00    +0.000 N 
ATOM      4  C   UNL     1       4.635   3.858  16.116  0.00  0.00    +0.000 C 
ATOM      5  C   UNL     1       5.963   3.559  15.450  0.00  0.00    +0.000 C 
ATOM      6  C   UNL     1       6.851   4.706  15.913  0.00  0.00    +0.000 C 
ATOM      7  C   UNL     1       6.316   5.098  17.306  0.00  0.00    +0.000 C 
ENDROOT
BRANCH   1   8
ATOM      8  C   UNL     1       3.387   3.030  18.711  0.00  0.00    +0.000 C 
ATOM      9  O   UNL     1       3.697   1.842  18.730  0.00  0.00    +0.000 OA
BRANCH   8  10
ATOM     10  C   UNL     1       1.938   3.522  18.867  0.00  0.00    +0.000 C 
ATOM     11  C   UNL     1       0.987   2.343  18.573  0.00  0.00    +0.000 C 
ATOM     12  C   UNL     1       1.624   4.632  17.848  0.00  0.00    +0.000 C 
BRANCH  10  14
ATOM     13  C   UNL     1       1.807   3.044  21.423  0.00  0.00    +0.000 C 
ATOM     14  C   UNL     1       1.698   4.069  20.297  0.00  0.00    +0.000 C 
ENDBRANCH  10  14
ENDBRANCH   8  10
ENDBRANCH   1   8
BRANCH   7  15
ATOM     15  C   UNL     1       6.193   6.630  17.455  0.00  0.00    +0.000 C 
ATOM     16  O   UNL     1       5.197   7.225  17.845  0.00  0.00    +0.000 OA
BRANCH  15  17
ATOM     17  S   UNL     1       7.660   7.501  16.974  0.00  0.00    +0.000 S 
BRANCH  17  18
ATOM     18  C   UNL     1       8.138   8.267  18.546  0.00  0.00    +0.000 C 
BRANCH  18  19
ATOM     19  C   UNL     1       8.731   9.647  18.247  0.00  0.00    +0.000 C 
BRANCH  19  20
ATOM     20  C   UNL     1       9.413  10.250  19.477  0.00  0.00    +0.000 C 
BRANCH  20  21
ATOM     21  C   UNL     1      10.218  11.478  19.122  0.00  0.00    +0.000 A 
ATOM     22  C   UNL     1      10.102  12.068  17.857  0.00  0.00    +0.000 A 
ATOM     23  C   UNL     1      10.860  13.196  17.529  0.00  0.00    +0.000 A 
ATOM     24  C   UNL     1      11.744  13.741  18.458  0.00  0.00    +0.000 A 
ATOM     25  C   UNL     1      11.871  13.158  19.717  0.00  0.00    +0.000 A 
ATOM     26  C   UNL     1      11.116  12.030  20.047  0.00  0.00    +0.000 A 
ENDBRANCH  20  21
ENDBRANCH  19  20
ENDBRANCH  18  19
ENDBRANCH  17  18
ENDBRANCH  15  17
ENDBRANCH   7  15
TORSDOF 9
ENDMDL
MODEL 6
REMARK VINA RESULT:      -7.2      0.773      1.661
REMARK  Name = 
REMARK  12 active torsions:
REMARK  status: ('A' for Active; 'I' for Inactive)
REMARK    1  A    between atoms: C_1  and  C_2
REMARK    2  A    between atoms: C_2  and  C_3
REMARK    3  A    between atoms: C_3  and  C_4
REMARK    4  A    between atoms: C_3  and  C_5
REMARK    5  A    between atoms: C_3  and  C_6
REMARK    6  A    between atoms: C_6  and  C_8
REMARK    7  A    between atoms: C_14  and  C_15
REMARK    8  A    between atoms: C_15  and  S_17
REMARK    9  A    between atoms: S_17  and  C_18
REMARK   10  A    between atoms: C_18  and  C_19
REMARK   11  A    between atoms: C_19  and  C_20
REMARK   12  A    between atoms: C_20  and  C_21
REMARK                            x       y       z     vdW  Elec       q    Type
REMARK                         _______ _______ _______ _____ _____    ______ ____
ROOT
ATOM      1  C   UNL     1       4.838   3.581  18.682  0.00  0.00    +0.000 C 
ATOM      2  O   UNL     1       5.416   3.381  19.744  0.00  0.00    +0.000 OA
ATOM      3  N   UNL     1       5.419   4.233  17.605  0.00  0.00    +0.000 N 
ATOM      4  C   UNL     1       4.847   4.455  16.290  0.00  0.00    +0.000 C 
ATOM      5  C   UNL     1       5.983   4.081  15.359  0.00  0.00    +0.000 C 
ATOM      6  C   UNL     1       7.217   4.586  16.096  0.00  0.00    +0.000 C 
ATOM      7  C   UNL     1       6.866   4.484  17.594  0.00  0.00    +0.000 C 
ENDROOT
BRANCH   1   8
ATOM      8  C   UNL     1       3.422   3.018  18.500  0.00  0.00    +0.000 C 
ATOM      9  O   UNL     1       3.308   1.879  18.054  0.00  0.00    +0.000 OA
BRANCH   8  10
ATOM     10  C   UNL     1       2.227   3.850  18.994  0.00  0.00    +0.000 C 
ATOM     11  C   UNL     1       2.597   4.474  20.357  0.00  0.00    +0.000 C 
ATOM     12  C   UNL     1       0.993   2.957  19.217  0.00  0.00    +0.000 C 
BRANCH  10  14
ATOM     13  C   UNL     1       2.365   6.359  18.313  0.00  0.00    +0.000 C 
ATOM     14  C   UNL     1       1.871   4.956  17.970  0.00  0.00    +0.000 C 
ENDBRANCH  10  14
ENDBRANCH   8  10
ENDBRANCH   1   8
BRANCH   7  15
ATOM     15  C   UNL     1       7.279   5.759  18.361  0.00  0.00    +0.000 C 
ATOM     16  O   UNL     1       7.917   5.781  19.405  0.00  0.00    +0.000 OA
BRANCH  15  17
ATOM     17  S   UNL     1       6.716   7.254  17.590  0.00  0.00    +0.000 S 
BRANCH  17  18
ATOM     18  C   UNL     1       8.279   8.150  17.389  0.00  0.00    +0.000 C 
BRANCH  18  19
ATOM     19  C   UNL     1       8.312   9.291  18.411  0.00  0.00    +0.000 C 
BRANCH  19  20
ATOM     20  C   UNL     1       8.730  10.615  17.769  0.00  0.00    +0.000 C 
BRANCH  20  21
ATOM     21  C   UNL     1       9.311  11.569  18.785  0.00  0.00    +0.000 A 
ATOM     22  C   UNL     1       9.042  12.943  18.711  0.00  0.00    +0.000 A 
ATOM     23  C   UNL     1       9.593  13.824  19.646  0.00  0.00    +0.000 A 
ATOM     24  C   UNL     1      10.421  13.343  20.658  0.00  0.00    +0.000 A 
ATOM     25  C   UNL     1      10.699  11.980  20.737  0.00  0.00    +0.000 A 
ATOM     26  C   UNL     1      10.151  11.098  19.804  0.00  0.00    +0.000 A 
ENDBRANCH  20  21
ENDBRANCH  19  20
ENDBRANCH  18  19
ENDBRANCH  17  18
ENDBRANCH  15  17
ENDBRANCH   7  15
TORSDOF 9
ENDMDL
MODEL 7
REMARK VINA RESULT:      -7.2      1.283      2.037
REMARK  Name = 
REMARK  12 active torsions:
REMARK  status: ('A' for Active; 'I' for Inactive)
REMARK    1  A    between atoms: C_1  and  C_2
REMARK    2  A    between atoms: C_2  and  C_3
REMARK    3  A    between atoms: C_3  and  C_4
REMARK    4  A    between atoms: C_3  and  C_5
REMARK    5  A    between atoms: C_3  and  C_6
REMARK    6  A    between atoms: C_6  and  C_8
REMARK    7  A    between atoms: C_14  and  C_15
REMARK    8  A    between atoms: C_15  and  S_17
REMARK    9  A    between atoms: S_17  and  C_18
REMARK   10  A    between atoms: C_18  and  C_19
REMARK   11  A    between atoms: C_19  and  C_20
REMARK   12  A    between atoms: C_20  and  C_21
REMARK                            x       y       z     vdW  Elec       q    Type
REMARK                         _______ _______ _______ _____ _____    ______ ____
ROOT
ATOM      1  C   UNL     1       5.549   4.295  19.029  0.00  0.00    +0.000 C 
ATOM      2  O   UNL     1       6.285   4.801  19.869  0.00  0.00    +0.000 OA
ATOM      3  N   UNL     1       5.682   4.511  17.665  0.00  0.00    +0.000 N 
ATOM      4  C   UNL     1       4.912   3.907  16.594  0.00  0.00    +0.000 C 
ATOM      5  C   UNL     1       5.978   3.507  15.594  0.00  0.00    +0.000 C 
ATOM      6  C   UNL     1       6.986   4.646  15.687  0.00  0.00    +0.000 C 
ATOM      7  C   UNL     1       6.893   5.154  17.140  0.00  0.00    +0.000 C 
ENDROOT
BRANCH   1   8
ATOM      8  C   UNL     1       4.468   3.312  19.497  0.00  0.00    +0.000 C 
ATOM      9  O   UNL     1       4.818   2.177  19.808  0.00  0.00    +0.000 OA
BRANCH   8  10
ATOM     10  C   UNL     1       3.029   3.825  19.670  0.00  0.00    +0.000 C 
ATOM     11  C   UNL     1       3.066   5.366  19.754  0.00  0.00    +0.000 C 
ATOM     12  C   UNL     1       2.418   3.308  20.985  0.00  0.00    +0.000 C 
BRANCH  10  14
ATOM     13  C   UNL     1       1.470   4.485  17.692  0.00  0.00    +0.000 C 
ATOM     14  C   UNL     1       2.140   3.367  18.487  0.00  0.00    +0.000 C 
ENDBRANCH  10  14
ENDBRANCH   8  10
ENDBRANCH   1   8
BRANCH   7  15
ATOM     15  C   UNL     1       6.851   6.697  17.199  0.00  0.00    +0.000 C 
ATOM     16  O   UNL     1       6.116   7.410  16.529  0.00  0.00    +0.000 OA
BRANCH  15  17
ATOM     17  S   UNL     1       8.015   7.387  18.344  0.00  0.00    +0.000 S 
BRANCH  17  18
ATOM     18  C   UNL     1       8.420   8.953  17.525  0.00  0.00    +0.000 C 
BRANCH  18  19
ATOM     19  C   UNL     1       8.236  10.086  18.539  0.00  0.00    +0.000 C 
BRANCH  19  20
ATOM     20  C   UNL     1       9.573  10.546  19.124  0.00  0.00    +0.000 C 
BRANCH  20  21
ATOM     21  C   UNL     1      10.062  11.816  18.468  0.00  0.00    +0.000 A 
ATOM     22  C   UNL     1      11.207  11.809  17.661  0.00  0.00    +0.000 A 
ATOM     23  C   UNL     1      11.663  12.989  17.068  0.00  0.00    +0.000 A 
ATOM     24  C   UNL     1      10.985  14.188  17.281  0.00  0.00    +0.000 A 
ATOM     25  C   UNL     1       9.848  14.207  18.087  0.00  0.00    +0.000 A 
ATOM     26  C   UNL     1       9.391  13.029  18.681  0.00  0.00    +0.000 A 
ENDBRANCH  20  21
ENDBRANCH  19  20
ENDBRANCH  18  19
ENDBRANCH  17  18
ENDBRANCH  15  17
ENDBRANCH   7  15
TORSDOF 9
ENDMDL
MODEL 8
REMARK VINA RESULT:      -7.1      3.687      5.200
REMARK  Name = 
REMARK  12 active torsions:
REMARK  status: ('A' for Active; 'I' for Inactive)
REMARK    1  A    between atoms: C_1  and  C_2
REMARK    2  A    between atoms: C_2  and  C_3
REMARK    3  A    between atoms: C_3  and  C_4
REMARK    4  A    between atoms: C_3  and  C_5
REMARK    5  A    between atoms: C_3  and  C_6
REMARK    6  A    between atoms: C_6  and  C_8
REMARK    7  A    between atoms: C_14  and  C_15
REMARK    8  A    between atoms: C_15  and  S_17
REMARK    9  A    between atoms: S_17  and  C_18
REMARK   10  A    between atoms: C_18  and  C_19
REMARK   11  A    between atoms: C_19  and  C_20
REMARK   12  A    between atoms: C_20  and  C_21
REMARK                            x       y       z     vdW  Elec       q    Type
REMARK                         _______ _______ _______ _____ _____    ______ ____
ROOT
ATOM      1  C   UNL     1       4.973   3.686  18.524  0.00  0.00    +0.000 C 
ATOM      2  O   UNL     1       5.626   3.808  19.555  0.00  0.00    +0.000 OA
ATOM      3  N   UNL     1       5.368   4.209  17.302  0.00  0.00    +0.000 N 
ATOM      4  C   UNL     1       4.706   4.058  16.019  0.00  0.00    +0.000 C 
ATOM      5  C   UNL     1       5.852   3.724  15.084  0.00  0.00    +0.000 C 
ATOM      6  C   UNL     1       6.994   4.583  15.613  0.00  0.00    +0.000 C 
ATOM      7  C   UNL     1       6.735   4.715  17.128  0.00  0.00    +0.000 C 
ENDROOT
BRANCH   1   8
ATOM      8  C   UNL     1       3.690   2.846  18.564  0.00  0.00    +0.000 C 
ATOM      9  O   UNL     1       3.756   1.674  18.205  0.00  0.00    +0.000 OA
BRANCH   8  10
ATOM     10  C   UNL     1       2.418   3.471  19.162  0.00  0.00    +0.000 C 
ATOM     11  C   UNL     1       1.590   4.088  18.014  0.00  0.00    +0.000 C 
ATOM     12  C   UNL     1       2.773   4.609  20.136  0.00  0.00    +0.000 C 
BRANCH  10  14
ATOM     13  C   UNL     1       1.307   2.701  21.387  0.00  0.00    +0.000 C 
ATOM     14  C   UNL     1       1.588   2.402  19.917  0.00  0.00    +0.000 C 
ENDBRANCH  10  14
ENDBRANCH   8  10
ENDBRANCH   1   8
BRANCH   7  15
ATOM     15  C   UNL     1       6.923   6.170  17.610  0.00  0.00    +0.000 C 
ATOM     16  O   UNL     1       7.787   6.552  18.388  0.00  0.00    +0.000 OA
BRANCH  15  17
ATOM     17  S   UNL     1       5.725   7.291  16.938  0.00  0.00    +0.000 S 
BRANCH  17  18
ATOM     18  C   UNL     1       4.476   7.291  18.252  0.00  0.00    +0.000 C 
BRANCH  18  19
ATOM     19  C   UNL     1       3.092   7.312  17.599  0.00  0.00    +0.000 C 
BRANCH  19  20
ATOM     20  C   UNL     1       2.447   8.697  17.676  0.00  0.00    +0.000 C 
BRANCH  20  21
ATOM     21  C   UNL     1       1.613   8.856  18.925  0.00  0.00    +0.000 A 
ATOM     22  C   UNL     1       1.811   8.015  20.029  0.00  0.00    +0.000 A 
ATOM     23  C   UNL     1       1.027   8.157  21.177  0.00  0.00    +0.000 A 
ATOM     24  C   UNL     1       0.034   9.133  21.231  0.00  0.00    +0.000 A 
ATOM     25  C   UNL     1      -0.175   9.970  20.137  0.00  0.00    +0.000 A 
ATOM     26  C   UNL     1       0.606   9.830  18.988  0.00  0.00    +0.000 A 
ENDBRANCH  20  21
ENDBRANCH  19  20
ENDBRANCH  18  19
ENDBRANCH  17  18
ENDBRANCH  15  17
ENDBRANCH   7  15
TORSDOF 9
ENDMDL
MODEL 9
REMARK VINA RESULT:      -7.1      1.303      2.040
REMARK  Name = 
REMARK  12 active torsions:
REMARK  status: ('A' for Active; 'I' for Inactive)
REMARK    1  A    between atoms: C_1  and  C_2
REMARK    2  A    between atoms: C_2  and  C_3
REMARK    3  A    between atoms: C_3  and  C_4
REMARK    4  A    between atoms: C_3  and  C_5
REMARK    5  A    between atoms: C_3  and  C_6
REMARK    6  A    between atoms: C_6  and  C_8
REMARK    7  A    between atoms: C_14  and  C_15
REMARK    8  A    between atoms: C_15  and  S_17
REMARK    9  A    between atoms: S_17  and  C_18
REMARK   10  A    between atoms: C_18  and  C_19
REMARK   11  A    between atoms: C_19  and  C_20
REMARK   12  A    between atoms: C_20  and  C_21
REMARK                            x       y       z     vdW  Elec       q    Type
REMARK                         _______ _______ _______ _____ _____    ______ ____
ROOT
ATOM      1  C   UNL     1       5.116   4.375  18.795  0.00  0.00    +0.000 C 
ATOM      2  O   UNL     1       5.731   4.863  19.737  0.00  0.00    +0.000 OA
ATOM      3  N   UNL     1       5.460   4.582  17.467  0.00  0.00    +0.000 N 
ATOM      4  C   UNL     1       4.844   3.995  16.292  0.00  0.00    +0.000 C 
ATOM      5  C   UNL     1       6.038   3.563  15.464  0.00  0.00    +0.000 C 
ATOM      6  C   UNL     1       7.051   4.675  15.709  0.00  0.00    +0.000 C 
ATOM      7  C   UNL     1       6.753   5.191  17.132  0.00  0.00    +0.000 C 
ENDROOT
BRANCH   1   8
ATOM      8  C   UNL     1       3.951   3.423  19.095  0.00  0.00    +0.000 C 
ATOM      9  O   UNL     1       4.205   2.231  19.246  0.00  0.00    +0.000 OA
BRANCH   8  10
ATOM     10  C   UNL     1       2.550   4.017  19.311  0.00  0.00    +0.000 C 
ATOM     11  C   UNL     1       2.490   4.626  20.728  0.00  0.00    +0.000 C 
ATOM     12  C   UNL     1       1.473   2.919  19.236  0.00  0.00    +0.000 C 
BRANCH  10  14
ATOM     13  C   UNL     1       2.379   6.543  18.708  0.00  0.00    +0.000 C 
ATOM     14  C   UNL     1       2.243   5.096  18.243  0.00  0.00    +0.000 C 
ENDBRANCH  10  14
ENDBRANCH   8  10
ENDBRANCH   1   8
BRANCH   7  15
ATOM     15  C   UNL     1       6.744   6.734  17.184  0.00  0.00    +0.000 C 
ATOM     16  O   UNL     1       5.993   7.459  16.545  0.00  0.00    +0.000 OA
BRANCH  15  17
ATOM     17  S   UNL     1       7.973   7.406  18.271  0.00  0.00    +0.000 S 
BRANCH  17  18
ATOM     18  C   UNL     1       8.338   8.980  17.449  0.00  0.00    +0.000 C 
BRANCH  18  19
ATOM     19  C   UNL     1       8.343  10.085  18.509  0.00  0.00    +0.000 C 
BRANCH  19  20
ATOM     20  C   UNL     1       9.639  10.086  19.322  0.00  0.00    +0.000 C 
BRANCH  20  21
ATOM     21  C   UNL     1      10.458  11.330  19.067  0.00  0.00    +0.000 A 
ATOM     22  C   UNL     1      10.843  11.677  17.766  0.00  0.00    +0.000 A 
ATOM     23  C   UNL     1      11.612  12.822  17.537  0.00  0.00    +0.000 A 
ATOM     24  C   UNL     1      12.009  13.625  18.604  0.00  0.00    +0.000 A 
ATOM     25  C   UNL     1      11.635  13.285  19.903  0.00  0.00    +0.000 A 
ATOM     26  C   UNL     1      10.868  12.141  20.135  0.00  0.00    +0.000 A 
ENDBRANCH  20  21
ENDBRANCH  19  20
ENDBRANCH  18  19
ENDBRANCH  17  18
ENDBRANCH  15  17
ENDBRANCH   7  15
TORSDOF 9
ENDMDL
