MODEL 1
REMARK VINA RESULT:      -8.9      0.000      0.000
REMARK  Name = 
REMARK  5 active torsions:
REMARK  status: ('A' for Active; 'I' for Inactive)
REMARK    1  A    between atoms: C_1  and  N_2
REMARK    2  A    between atoms: N_2  and  C_3
REMARK    3  A    between atoms: C_8  and  C_9
REMARK    4  A    between atoms: C_9  and  O_11
REMARK    5  A    between atoms: O_11  and  C_12
REMARK                            x       y       z     vdW  Elec       q    Type
REMARK                         _______ _______ _______ _____ _____    ______ ____
ROOT
ATOM      1  C   UNL     1       3.134   5.874  18.888  0.00  0.00    +0.000 C 
ATOM      2  C   UNL     1       3.222   4.836  20.040  0.00  0.00    +0.000 C 
ATOM      3  C   UNL     1       1.834   4.166  20.233  0.00  0.00    +0.000 C 
ATOM      4  C   UNL     1       2.153   2.697  20.499  0.00  0.00    +0.000 C 
ATOM      5  C   UNL     1       3.051   2.537  19.278  0.00  0.00    +0.000 C 
ATOM      6  C   UNL     1       2.141   3.012  18.124  0.00  0.00    +0.000 C 
ATOM      7  C   UNL     1       1.276   4.115  18.800  0.00  0.00    +0.000 C 
ATOM      8  C   UNL     1       2.026   5.228  18.020  0.00  0.00    +0.000 C 
ATOM      9  C   UNL     1       2.824   4.105  17.312  0.00  0.00    +0.000 C 
ATOM     10  C   UNL     1       4.209   4.207  17.937  0.00  0.00    +0.000 C 
ATOM     11  O   UNL     1       5.149   3.472  17.197  0.00  0.00    +0.000 OA
ATOM     12  C   UNL     1       6.014   4.284  16.418  0.00  0.00    +0.000 C 
ATOM     13  C   UNL     1       5.279   5.470  15.818  0.00  0.00    +0.000 C 
ATOM     14  C   UNL     1       4.655   6.337  16.924  0.00  0.00    +0.000 C 
ATOM     15  N   UNL     1       4.432   5.619  18.178  0.00  0.00    +0.000 NA
ATOM     16  C   UNL     1       4.037   3.696  19.369  0.00  0.00    +0.000 C 
ENDROOT
BRANCH   1  17
ATOM     17  O   UNL     1       3.009   7.244  19.325  0.00  0.00    +0.000 OA
BRANCH  17  18
ATOM     18  C   UNL     1       2.149   8.104  18.738  0.00  0.00    +0.000 C 
ATOM     19  O   UNL     1       2.022   8.220  17.526  0.00  0.00    +0.000 OA
BRANCH  18  25
ATOM     20  C   UNL     1       0.234   9.816  19.416  0.00  0.00    +0.000 A 
ATOM     21  C   UNL     1      -0.494  10.346  20.529  0.00  0.00    +0.000 A 
ATOM     22  C   UNL     1      -0.301   9.924  21.838  0.00  0.00    +0.000 A 
ATOM     23  C   UNL     1       0.656   8.972  22.101  0.00  0.00    +0.000 A 
ATOM     24  C   UNL     1       1.412   8.450  21.042  0.00  0.00    +0.000 A 
ATOM     25  C   UNL     1       1.235   8.861  19.693  0.00  0.00    +0.000 A 
BRANCH  20  27
ATOM     26  C   UNL     1      -1.432  10.196  17.582  0.00  0.00    +0.000 C 
ATOM     27  N   UNL     1      -0.152  10.374  18.205  0.00  0.00    +0.000 N 
ATOM     28  H   UNL     1       0.274  11.271  17.994  0.00  0.00    +0.000 HD
ENDBRANCH  20  27
ENDBRANCH  18  25
ENDBRANCH  17  18
ENDBRANCH   1  17
TORSDOF 4
ENDMDL
MODEL 2
REMARK VINA RESULT:      -8.9      1.289      2.094
REMARK  Name = 
REMARK  5 active torsions:
REMARK  status: ('A' for Active; 'I' for Inactive)
REMARK    1  A    between atoms: C_1  and  N_2
REMARK    2  A    between atoms: N_2  and  C_3
REMARK    3  A    between atoms: C_8  and  C_9
REMARK    4  A    between atoms: C_9  and  O_11
REMARK    5  A    between atoms: O_11  and  C_12
REMARK                            x       y       z     vdW  Elec       q    Type
REMARK                         _______ _______ _______ _____ _____    ______ ____
ROOT
ATOM      1  C   UNL     1       3.302   5.291  18.898  0.00  0.00    +0.000 C 
ATOM      2  C   UNL     1       3.455   3.977  19.711  0.00  0.00    +0.000 C 
ATOM      3  C   UNL     1       2.088   3.240  19.757  0.00  0.00    +0.000 C 
ATOM      4  C   UNL     1       2.444   1.765  19.591  0.00  0.00    +0.000 C 
ATOM      5  C   UNL     1       3.293   1.976  18.344  0.00  0.00    +0.000 C 
ATOM      6  C   UNL     1       2.328   2.728  17.400  0.00  0.00    +0.000 C 
ATOM      7  C   UNL     1       1.472   3.574  18.388  0.00  0.00    +0.000 C 
ATOM      8  C   UNL     1       2.169   4.881  17.923  0.00  0.00    +0.000 C 
ATOM      9  C   UNL     1       2.957   4.022  16.902  0.00  0.00    +0.000 C 
ATOM     10  C   UNL     1       4.365   3.986  17.483  0.00  0.00    +0.000 C 
ATOM     11  O   UNL     1       5.286   3.513  16.534  0.00  0.00    +0.000 OA
ATOM     12  C   UNL     1       6.105   4.534  15.984  0.00  0.00    +0.000 C 
ATOM     13  C   UNL     1       5.324   5.819  15.764  0.00  0.00    +0.000 C 
ATOM     14  C   UNL     1       4.731   6.325  17.089  0.00  0.00    +0.000 C 
ATOM     15  N   UNL     1       4.573   5.281  18.100  0.00  0.00    +0.000 NA
ATOM     16  C   UNL     1       4.262   3.092  18.720  0.00  0.00    +0.000 C 
ENDROOT
BRANCH   1  17
ATOM     17  O   UNL     1       3.170   6.481  19.703  0.00  0.00    +0.000 OA
BRANCH  17  18
ATOM     18  C   UNL     1       1.982   6.872  20.213  0.00  0.00    +0.000 C 
ATOM     19  O   UNL     1       1.357   6.233  21.049  0.00  0.00    +0.000 OA
BRANCH  18  25
ATOM     20  C   UNL     1       0.638   9.154  20.410  0.00  0.00    +0.000 A 
ATOM     21  C   UNL     1       0.385  10.401  19.753  0.00  0.00    +0.000 A 
ATOM     22  C   UNL     1       0.990  10.770  18.559  0.00  0.00    +0.000 A 
ATOM     23  C   UNL     1       1.855   9.894  17.946  0.00  0.00    +0.000 A 
ATOM     24  C   UNL     1       2.105   8.650  18.542  0.00  0.00    +0.000 A 
ATOM     25  C   UNL     1       1.503   8.246  19.764  0.00  0.00    +0.000 A 
BRANCH  20  27
ATOM     26  C   UNL     1       0.384   9.496  22.881  0.00  0.00    +0.000 C 
ATOM     27  N   UNL     1      -0.062   9.022  21.601  0.00  0.00    +0.000 N 
ATOM     28  H   UNL     1      -1.072   9.022  21.505  0.00  0.00    +0.000 HD
ENDBRANCH  20  27
ENDBRANCH  18  25
ENDBRANCH  17  18
ENDBRANCH   1  17
TORSDOF 4
ENDMDL
MODEL 3
REMARK VINA RESULT:      -8.7      0.887      1.027
REMARK  Name = 
REMARK  5 active torsions:
REMARK  status: ('A' for Active; 'I' for Inactive)
REMARK    1  A    between atoms: C_1  and  N_2
REMARK    2  A    between atoms: N_2  and  C_3
REMARK    3  A    between atoms: C_8  and  C_9
REMARK    4  A    between atoms: C_9  and  O_11
REMARK    5  A    between atoms: O_11  and  C_12
REMARK                            x       y       z     vdW  Elec       q    Type
REMARK                         _______ _______ _______ _____ _____    ______ ____
ROOT
ATOM      1  C   UNL     1       2.390   5.511  18.390  0.00  0.00    +0.000 C 
ATOM      2  C   UNL     1       2.169   5.206  19.896  0.00  0.00    +0.000 C 
ATOM      3  C   UNL     1       1.029   4.163  20.047  0.00  0.00    +0.000 C 
ATOM      4  C   UNL     1       1.504   3.236  21.162  0.00  0.00    +0.000 C 
ATOM      5  C   UNL     1       2.868   2.971  20.537  0.00  0.00    +0.000 C 
ATOM      6  C   UNL     1       2.502   2.476  19.120  0.00  0.00    +0.000 C 
ATOM      7  C   UNL     1       1.207   3.278  18.801  0.00  0.00    +0.000 C 
ATOM      8  C   UNL     1       1.966   4.156  17.770  0.00  0.00    +0.000 C 
ATOM      9  C   UNL     1       3.222   3.296  18.058  0.00  0.00    +0.000 C 
ATOM     10  C   UNL     1       4.113   4.231  18.866  0.00  0.00    +0.000 C 
ATOM     11  O   UNL     1       5.421   3.727  18.950  0.00  0.00    +0.000 OA
ATOM     12  C   UNL     1       6.345   4.414  18.120  0.00  0.00    +0.000 C 
ATOM     13  C   UNL     1       5.723   4.797  16.788  0.00  0.00    +0.000 C 
ATOM     14  C   UNL     1       4.493   5.695  17.002  0.00  0.00    +0.000 C 
ATOM     15  N   UNL     1       3.889   5.557  18.326  0.00  0.00    +0.000 NA
ATOM     16  C   UNL     1       3.427   4.356  20.228  0.00  0.00    +0.000 C 
ENDROOT
BRANCH   1  17
ATOM     17  O   UNL     1       1.785   6.739  17.933  0.00  0.00    +0.000 OA
BRANCH  17  18
ATOM     18  C   UNL     1       2.236   7.949  18.330  0.00  0.00    +0.000 C 
ATOM     19  O   UNL     1       3.244   8.480  17.882  0.00  0.00    +0.000 OA
BRANCH  18  25
ATOM     20  C   UNL     1       0.286   9.600  19.054  0.00  0.00    +0.000 A 
ATOM     21  C   UNL     1      -0.416  10.125  20.186  0.00  0.00    +0.000 A 
ATOM     22  C   UNL     1      -0.152   9.739  21.494  0.00  0.00    +0.000 A 
ATOM     23  C   UNL     1       0.852   8.830  21.735  0.00  0.00    +0.000 A 
ATOM     24  C   UNL     1       1.583   8.315  20.655  0.00  0.00    +0.000 A 
ATOM     25  C   UNL     1       1.333   8.690  19.307  0.00  0.00    +0.000 A 
BRANCH  20  27
ATOM     26  C   UNL     1      -1.550  10.207  17.457  0.00  0.00    +0.000 C 
ATOM     27  N   UNL     1      -0.172  10.117  17.850  0.00  0.00    +0.000 N 
ATOM     28  H   UNL     1       0.404  10.852  17.455  0.00  0.00    +0.000 HD
ENDBRANCH  20  27
ENDBRANCH  18  25
ENDBRANCH  17  18
ENDBRANCH   1  17
TORSDOF 4
ENDMDL
MODEL 4
REMARK VINA RESULT:      -8.6      1.159      3.044
REMARK  Name = 
REMARK  5 active torsions:
REMARK  status: ('A' for Active; 'I' for Inactive)
REMARK    1  A    between atoms: C_1  and  N_2
REMARK    2  A    between atoms: N_2  and  C_3
REMARK    3  A    between atoms: C_8  and  C_9
REMARK    4  A    between atoms: C_9  and  O_11
REMARK    5  A    between atoms: O_11  and  C_12
REMARK                            x       y       z     vdW  Elec       q    Type
REMARK                         _______ _______ _______ _____ _____    ______ ____
ROOT
ATOM      1  C   UNL     1       3.086   5.913  19.144  0.00  0.00    +0.000 C 
ATOM      2  C   UNL     1       3.442   5.942  17.633  0.00  0.00    +0.000 C 
ATOM      3  C   UNL     1       4.986   5.932  17.469  0.00  0.00    +0.000 C 
ATOM      4  C   UNL     1       5.238   5.008  16.281  0.00  0.00    +0.000 C 
ATOM      5  C   UNL     1       4.400   3.860  16.830  0.00  0.00    +0.000 C 
ATOM      6  C   UNL     1       5.014   3.631  18.229  0.00  0.00    +0.000 C 
ATOM      7  C   UNL     1       5.451   5.064  18.651  0.00  0.00    +0.000 C 
ATOM      8  C   UNL     1       4.309   5.139  19.700  0.00  0.00    +0.000 C 
ATOM      9  C   UNL     1       3.940   3.687  19.307  0.00  0.00    +0.000 C 
ATOM     10  C   UNL     1       2.646   3.850  18.520  0.00  0.00    +0.000 C 
ATOM     11  O   UNL     1       2.003   2.614  18.349  0.00  0.00    +0.000 OA
ATOM     12  C   UNL     1       0.862   2.452  19.179  0.00  0.00    +0.000 C 
ATOM     13  C   UNL     1       1.084   3.052  20.557  0.00  0.00    +0.000 C 
ATOM     14  C   UNL     1       1.404   4.552  20.450  0.00  0.00    +0.000 C 
ATOM     15  N   UNL     1       1.936   4.947  19.147  0.00  0.00    +0.000 NA
ATOM     16  C   UNL     1       3.065   4.499  17.198  0.00  0.00    +0.000 C 
ENDROOT
BRANCH   1  17
ATOM     17  O   UNL     1       2.726   7.195  19.699  0.00  0.00    +0.000 OA
BRANCH  17  18
ATOM     18  C   UNL     1       1.947   8.071  19.028  0.00  0.00    +0.000 C 
ATOM     19  O   UNL     1       1.855   8.103  17.808  0.00  0.00    +0.000 OA
BRANCH  18  25
ATOM     20  C   UNL     1       0.147   9.960  19.525  0.00  0.00    +0.000 A 
ATOM     21  C   UNL     1      -0.559  10.628  20.576  0.00  0.00    +0.000 A 
ATOM     22  C   UNL     1      -0.416  10.302  21.919  0.00  0.00    +0.000 A 
ATOM     23  C   UNL     1       0.467   9.311  22.278  0.00  0.00    +0.000 A 
ATOM     24  C   UNL     1       1.201   8.653  21.280  0.00  0.00    +0.000 A 
ATOM     25  C   UNL     1       1.073   8.964  19.899  0.00  0.00    +0.000 A 
BRANCH  20  27
ATOM     26  C   UNL     1      -1.307  10.019  17.483  0.00  0.00    +0.000 C 
ATOM     27  N   UNL     1      -0.180  10.442  18.266  0.00  0.00    +0.000 N 
ATOM     28  H   UNL     1       0.083  11.408  18.097  0.00  0.00    +0.000 HD
ENDBRANCH  20  27
ENDBRANCH  18  25
ENDBRANCH  17  18
ENDBRANCH   1  17
TORSDOF 4
ENDMDL
MODEL 5
REMARK VINA RESULT:      -8.5      2.390      4.826
REMARK  Name = 
REMARK  5 active torsions:
REMARK  status: ('A' for Active; 'I' for Inactive)
REMARK    1  A    between atoms: C_1  and  N_2
REMARK    2  A    between atoms: N_2  and  C_3
REMARK    3  A    between atoms: C_8  and  C_9
REMARK    4  A    between atoms: C_9  and  O_11
REMARK    5  A    between atoms: O_11  and  C_12
REMARK                            x       y       z     vdW  Elec       q    Type
REMARK                         _______ _______ _______ _____ _____    ______ ____
ROOT
ATOM      1  C   UNL     1       4.834   5.185  16.966  0.00  0.00    +0.000 C 
ATOM      2  C   UNL     1       5.548   6.347  17.706  0.00  0.00    +0.000 C 
ATOM      3  C   UNL     1       6.069   5.838  19.078  0.00  0.00    +0.000 C 
ATOM      4  C   UNL     1       7.438   6.494  19.235  0.00  0.00    +0.000 C 
ATOM      5  C   UNL     1       7.953   6.047  17.873  0.00  0.00    +0.000 C 
ATOM      6  C   UNL     1       7.734   4.518  17.913  0.00  0.00    +0.000 C 
ATOM      7  C   UNL     1       6.449   4.378  18.780  0.00  0.00    +0.000 C 
ATOM      8  C   UNL     1       5.614   3.974  17.535  0.00  0.00    +0.000 C 
ATOM      9  C   UNL     1       6.923   4.055  16.710  0.00  0.00    +0.000 C 
ATOM     10  C   UNL     1       6.745   5.324  15.886  0.00  0.00    +0.000 C 
ATOM     11  O   UNL     1       7.695   5.390  14.854  0.00  0.00    +0.000 OA
ATOM     12  C   UNL     1       7.157   5.107  13.572  0.00  0.00    +0.000 C 
ATOM     13  C   UNL     1       6.122   3.996  13.632  0.00  0.00    +0.000 C 
ATOM     14  C   UNL     1       4.970   4.380  14.575  0.00  0.00    +0.000 C 
ATOM     15  N   UNL     1       5.333   5.392  15.565  0.00  0.00    +0.000 NA
ATOM     16  C   UNL     1       6.866   6.471  16.891  0.00  0.00    +0.000 C 
ENDROOT
BRANCH   1  17
ATOM     17  O   UNL     1       3.393   5.222  17.044  0.00  0.00    +0.000 OA
BRANCH  17  18
ATOM     18  C   UNL     1       2.672   4.152  17.446  0.00  0.00    +0.000 C 
ATOM     19  O   UNL     1       2.296   3.263  16.692  0.00  0.00    +0.000 OA
BRANCH  18  25
ATOM     20  C   UNL     1       2.448   5.061  19.932  0.00  0.00    +0.000 A 
ATOM     21  C   UNL     1       2.174   4.666  21.280  0.00  0.00    +0.000 A 
ATOM     22  C   UNL     1       1.854   3.365  21.644  0.00  0.00    +0.000 A 
ATOM     23  C   UNL     1       1.825   2.386  20.678  0.00  0.00    +0.000 A 
ATOM     24  C   UNL     1       2.118   2.726  19.350  0.00  0.00    +0.000 A 
ATOM     25  C   UNL     1       2.446   4.049  18.948  0.00  0.00    +0.000 A 
BRANCH  20  27
ATOM     26  C   UNL     1       1.863   7.474  20.276  0.00  0.00    +0.000 C 
ATOM     27  N   UNL     1       2.715   6.417  19.811  0.00  0.00    +0.000 N 
ATOM     28  H   UNL     1       3.700   6.661  19.831  0.00  0.00    +0.000 HD
ENDBRANCH  20  27
ENDBRANCH  18  25
ENDBRANCH  17  18
ENDBRANCH   1  17
TORSDOF 4
ENDMDL
MODEL 6
REMARK VINA RESULT:      -8.4      1.055      1.898
REMARK  Name = 
REMARK  5 active torsions:
REMARK  status: ('A' for Active; 'I' for Inactive)
REMARK    1  A    between atoms: C_1  and  N_2
REMARK    2  A    between atoms: N_2  and  C_3
REMARK    3  A    between atoms: C_8  and  C_9
REMARK    4  A    between atoms: C_9  and  O_11
REMARK    5  A    between atoms: O_11  and  C_12
REMARK                            x       y       z     vdW  Elec       q    Type
REMARK                         _______ _______ _______ _____ _____    ______ ____
ROOT
ATOM      1  C   UNL     1       2.977   6.010  18.987  0.00  0.00    +0.000 C 
ATOM      2  C   UNL     1       2.731   4.956  20.101  0.00  0.00    +0.000 C 
ATOM      3  C   UNL     1       1.380   4.237  19.838  0.00  0.00    +0.000 C 
ATOM      4  C   UNL     1       1.652   2.775  20.183  0.00  0.00    +0.000 C 
ATOM      5  C   UNL     1       2.897   2.666  19.311  0.00  0.00    +0.000 C 
ATOM      6  C   UNL     1       2.385   3.131  17.929  0.00  0.00    +0.000 C 
ATOM      7  C   UNL     1       1.309   4.192  18.301  0.00  0.00    +0.000 C 
ATOM      8  C   UNL     1       2.226   5.343  17.807  0.00  0.00    +0.000 C 
ATOM      9  C   UNL     1       3.250   4.259  17.384  0.00  0.00    +0.000 C 
ATOM     10  C   UNL     1       4.359   4.397  18.419  0.00  0.00    +0.000 C 
ATOM     11  O   UNL     1       5.512   3.706  18.012  0.00  0.00    +0.000 OA
ATOM     12  C   UNL     1       6.550   4.560  17.555  0.00  0.00    +0.000 C 
ATOM     13  C   UNL     1       6.000   5.731  16.758  0.00  0.00    +0.000 C 
ATOM     14  C   UNL     1       5.025   6.557  17.612  0.00  0.00    +0.000 C 
ATOM     15  N   UNL     1       4.442   5.811  18.726  0.00  0.00    +0.000 NA
ATOM     16  C   UNL     1       3.759   3.856  19.718  0.00  0.00    +0.000 C 
ENDROOT
BRANCH   1  17
ATOM     17  O   UNL     1       2.668   7.367  19.369  0.00  0.00    +0.000 OA
BRANCH  17  18
ATOM     18  C   UNL     1       2.160   8.258  18.490  0.00  0.00    +0.000 C 
ATOM     19  O   UNL     1       2.507   8.331  17.318  0.00  0.00    +0.000 OA
BRANCH  18  25
ATOM     20  C   UNL     1       0.651   9.403  20.351  0.00  0.00    +0.000 A 
ATOM     21  C   UNL     1      -0.468  10.274  20.550  0.00  0.00    +0.000 A 
ATOM     22  C   UNL     1      -1.156  10.882  19.508  0.00  0.00    +0.000 A 
ATOM     23  C   UNL     1      -0.777  10.620  18.212  0.00  0.00    +0.000 A 
ATOM     24  C   UNL     1       0.295   9.748  17.974  0.00  0.00    +0.000 A 
ATOM     25  C   UNL     1       1.018   9.115  19.020  0.00  0.00    +0.000 A 
BRANCH  20  27
ATOM     26  C   UNL     1       0.797   9.370  22.854  0.00  0.00    +0.000 C 
ATOM     27  N   UNL     1       1.190   8.939  21.543  0.00  0.00    +0.000 N 
ATOM     28  H   UNL     1       1.513   7.977  21.519  0.00  0.00    +0.000 HD
ENDBRANCH  20  27
ENDBRANCH  18  25
ENDBRANCH  17  18
ENDBRANCH   1  17
TORSDOF 4
ENDMDL
MODEL 7
REMARK VINA RESULT:      -8.3      1.479      3.549
REMARK  Name = 
REMARK  5 active torsions:
REMARK  status: ('A' for Active; 'I' for Inactive)
REMARK    1  A    between atoms: C_1  and  N_2
REMARK    2  A    between atoms: N_2  and  C_3
REMARK    3  A    between atoms: C_8  and  C_9
REMARK    4  A    between atoms: C_9  and  O_11
REMARK    5  A    between atoms: O_11  and  C_12
REMARK                            x       y       z     vdW  Elec       q    Type
REMARK                         _______ _______ _______ _____ _____    ______ ____
ROOT
ATOM      1  C   UNL     1       3.102   6.090  19.016  0.00  0.00    +0.000 C 
ATOM      2  C   UNL     1       3.423   5.919  17.507  0.00  0.00    +0.000 C 
ATOM      3  C   UNL     1       4.964   5.901  17.309  0.00  0.00    +0.000 C 
ATOM      4  C   UNL     1       5.201   4.828  16.251  0.00  0.00    +0.000 C 
ATOM      5  C   UNL     1       4.389   3.757  16.968  0.00  0.00    +0.000 C 
ATOM      6  C   UNL     1       5.036   3.723  18.371  0.00  0.00    +0.000 C 
ATOM      7  C   UNL     1       5.465   5.204  18.586  0.00  0.00    +0.000 C 
ATOM      8  C   UNL     1       4.345   5.409  19.642  0.00  0.00    +0.000 C 
ATOM      9  C   UNL     1       3.986   3.914  19.456  0.00  0.00    +0.000 C 
ATOM     10  C   UNL     1       2.673   3.958  18.685  0.00  0.00    +0.000 C 
ATOM     11  O   UNL     1       2.041   2.704  18.697  0.00  0.00    +0.000 OA
ATOM     12  C   UNL     1       0.921   2.645  19.568  0.00  0.00    +0.000 C 
ATOM     13  C   UNL     1       1.166   3.427  20.847  0.00  0.00    +0.000 C 
ATOM     14  C   UNL     1       1.466   4.902  20.532  0.00  0.00    +0.000 C 
ATOM     15  N   UNL     1       1.964   5.123  19.175  0.00  0.00    +0.000 NA
ATOM     16  C   UNL     1       3.054   4.427  17.278  0.00  0.00    +0.000 C 
ENDROOT
BRANCH   1  17
ATOM     17  O   UNL     1       2.738   7.432  19.403  0.00  0.00    +0.000 OA
BRANCH  17  18
ATOM     18  C   UNL     1       2.225   8.315  18.519  0.00  0.00    +0.000 C 
ATOM     19  O   UNL     1       2.588   8.401  17.353  0.00  0.00    +0.000 OA
BRANCH  18  25
ATOM     20  C   UNL     1       0.661   9.420  20.360  0.00  0.00    +0.000 A 
ATOM     21  C   UNL     1      -0.480  10.264  20.544  0.00  0.00    +0.000 A 
ATOM     22  C   UNL     1      -1.167  10.858  19.492  0.00  0.00    +0.000 A 
ATOM     23  C   UNL     1      -0.763  10.609  18.202  0.00  0.00    +0.000 A 
ATOM     24  C   UNL     1       0.333   9.763  17.979  0.00  0.00    +0.000 A 
ATOM     25  C   UNL     1       1.055   9.144  19.034  0.00  0.00    +0.000 A 
BRANCH  20  27
ATOM     26  C   UNL     1       0.723   9.331  22.865  0.00  0.00    +0.000 C 
ATOM     27  N   UNL     1       1.193   8.965  21.559  0.00  0.00    +0.000 N 
ATOM     28  H   UNL     1       1.587   8.031  21.523  0.00  0.00    +0.000 HD
ENDBRANCH  20  27
ENDBRANCH  18  25
ENDBRANCH  17  18
ENDBRANCH   1  17
TORSDOF 4
ENDMDL
MODEL 8
REMARK VINA RESULT:      -8.2      1.447      3.218
REMARK  Name = 
REMARK  5 active torsions:
REMARK  status: ('A' for Active; 'I' for Inactive)
REMARK    1  A    between atoms: C_1  and  N_2
REMARK    2  A    between atoms: N_2  and  C_3
REMARK    3  A    between atoms: C_8  and  C_9
REMARK    4  A    between atoms: C_9  and  O_11
REMARK    5  A    between atoms: O_11  and  C_12
REMARK                            x       y       z     vdW  Elec       q    Type
REMARK                         _______ _______ _______ _____ _____    ______ ____
ROOT
ATOM      1  C   UNL     1       2.608   5.713  18.426  0.00  0.00    +0.000 C 
ATOM      2  C   UNL     1       3.149   5.089  17.111  0.00  0.00    +0.000 C 
ATOM      3  C   UNL     1       4.585   5.618  16.844  0.00  0.00    +0.000 C 
ATOM      4  C   UNL     1       5.348   4.405  16.322  0.00  0.00    +0.000 C 
ATOM      5  C   UNL     1       4.942   3.491  17.472  0.00  0.00    +0.000 C 
ATOM      6  C   UNL     1       5.378   4.298  18.716  0.00  0.00    +0.000 C 
ATOM      7  C   UNL     1       5.162   5.771  18.262  0.00  0.00    +0.000 C 
ATOM      8  C   UNL     1       3.934   5.915  19.201  0.00  0.00    +0.000 C 
ATOM      9  C   UNL     1       4.215   4.470  19.683  0.00  0.00    +0.000 C 
ATOM     10  C   UNL     1       3.092   3.660  19.047  0.00  0.00    +0.000 C 
ATOM     11  O   UNL     1       3.006   2.383  19.624  0.00  0.00    +0.000 OA
ATOM     12  C   UNL     1       1.904   2.236  20.506  0.00  0.00    +0.000 C 
ATOM     13  C   UNL     1       1.667   3.496  21.321  0.00  0.00    +0.000 C 
ATOM     14  C   UNL     1       1.400   4.696  20.398  0.00  0.00    +0.000 C 
ATOM     15  N   UNL     1       1.930   4.526  19.046  0.00  0.00    +0.000 NA
ATOM     16  C   UNL     1       3.425   3.625  17.554  0.00  0.00    +0.000 C 
ENDROOT
BRANCH   1  17
ATOM     17  O   UNL     1       1.704   6.822  18.234  0.00  0.00    +0.000 OA
BRANCH  17  18
ATOM     18  C   UNL     1       2.135   8.102  18.226  0.00  0.00    +0.000 C 
ATOM     19  O   UNL     1       2.840   8.577  17.345  0.00  0.00    +0.000 OA
BRANCH  18  25
ATOM     20  C   UNL     1       1.215  10.341  19.320  0.00  0.00    +0.000 A 
ATOM     21  C   UNL     1       0.698  10.901  20.531  0.00  0.00    +0.000 A 
ATOM     22  C   UNL     1       0.493  10.160  21.688  0.00  0.00    +0.000 A 
ATOM     23  C   UNL     1       0.828   8.826  21.698  0.00  0.00    +0.000 A 
ATOM     24  C   UNL     1       1.368   8.247  20.540  0.00  0.00    +0.000 A 
ATOM     25  C   UNL     1       1.585   8.980  19.343  0.00  0.00    +0.000 A 
BRANCH  20  27
ATOM     26  C   UNL     1       2.343  12.252  18.152  0.00  0.00    +0.000 C 
ATOM     27  N   UNL     1       1.306  11.270  18.293  0.00  0.00    +0.000 N 
ATOM     28  H   UNL     1       0.926  10.961  17.404  0.00  0.00    +0.000 HD
ENDBRANCH  20  27
ENDBRANCH  18  25
ENDBRANCH  17  18
ENDBRANCH   1  17
TORSDOF 4
ENDMDL
MODEL 9
REMARK VINA RESULT:      -8.1      2.341      4.741
REMARK  Name = 
REMARK  5 active torsions:
REMARK  status: ('A' for Active; 'I' for Inactive)
REMARK    1  A    between atoms: C_1  and  N_2
REMARK    2  A    between atoms: N_2  and  C_3
REMARK    3  A    between atoms: C_8  and  C_9
REMARK    4  A    between atoms: C_9  and  O_11
REMARK    5  A    between atoms: O_11  and  C_12
REMARK                            x       y       z     vdW  Elec       q    Type
REMARK                         _______ _______ _______ _____ _____    ______ ____
ROOT
ATOM      1  C   UNL     1       4.843   5.199  16.772  0.00  0.00    +0.000 C 
ATOM      2  C   UNL     1       5.521   6.358  17.550  0.00  0.00    +0.000 C 
ATOM      3  C   UNL     1       5.965   5.848  18.948  0.00  0.00    +0.000 C 
ATOM      4  C   UNL     1       7.326   6.499  19.179  0.00  0.00    +0.000 C 
ATOM      5  C   UNL     1       7.912   6.048  17.847  0.00  0.00    +0.000 C 
ATOM      6  C   UNL     1       7.685   4.520  17.876  0.00  0.00    +0.000 C 
ATOM      7  C   UNL     1       6.354   4.386  18.672  0.00  0.00    +0.000 C 
ATOM      8  C   UNL     1       5.586   3.985  17.383  0.00  0.00    +0.000 C 
ATOM      9  C   UNL     1       6.939   4.060  16.631  0.00  0.00    +0.000 C 
ATOM     10  C   UNL     1       6.810   5.328  15.797  0.00  0.00    +0.000 C 
ATOM     11  O   UNL     1       7.816   5.389  14.819  0.00  0.00    +0.000 OA
ATOM     12  C   UNL     1       7.347   5.107  13.509  0.00  0.00    +0.000 C 
ATOM     13  C   UNL     1       6.305   4.001  13.514  0.00  0.00    +0.000 C 
ATOM     14  C   UNL     1       5.105   4.391  14.392  0.00  0.00    +0.000 C 
ATOM     15  N   UNL     1       5.419   5.402  15.400  0.00  0.00    +0.000 NA
ATOM     16  C   UNL     1       6.881   6.476  16.807  0.00  0.00    +0.000 C 
ENDROOT
BRANCH   1  17
ATOM     17  O   UNL     1       3.400   5.242  16.772  0.00  0.00    +0.000 OA
BRANCH  17  18
ATOM     18  C   UNL     1       2.703   5.818  17.775  0.00  0.00    +0.000 C 
ATOM     19  O   UNL     1       2.430   7.011  17.815  0.00  0.00    +0.000 OA
BRANCH  18  25
ATOM     20  C   UNL     1       1.905   5.069  20.195  0.00  0.00    +0.000 A 
ATOM     21  C   UNL     1       1.359   3.975  20.938  0.00  0.00    +0.000 A 
ATOM     22  C   UNL     1       1.018   2.756  20.364  0.00  0.00    +0.000 A 
ATOM     23  C   UNL     1       1.240   2.563  19.021  0.00  0.00    +0.000 A 
ATOM     24  C   UNL     1       1.802   3.601  18.263  0.00  0.00    +0.000 A 
ATOM     25  C   UNL     1       2.158   4.857  18.823  0.00  0.00    +0.000 A 
BRANCH  20  27
ATOM     26  C   UNL     1       1.343   7.383  20.978  0.00  0.00    +0.000 C 
ATOM     27  N   UNL     1       2.140   6.189  20.980  0.00  0.00    +0.000 N 
ATOM     28  H   UNL     1       2.570   5.998  21.879  0.00  0.00    +0.000 HD
ENDBRANCH  20  27
ENDBRANCH  18  25
ENDBRANCH  17  18
ENDBRANCH   1  17
TORSDOF 4
ENDMDL
