MODEL 1
REMARK VINA RESULT:      -7.6      0.000      0.000
REMARK  Name = 
REMARK  4 active torsions:
REMARK  status: ('A' for Active; 'I' for Inactive)
REMARK    1  A    between atoms: C_1  and  C_2
REMARK    2  A    between atoms: C_3  and  C_4
REMARK    3  A    between atoms: N_16  and  C_17
REMARK    4  A    between atoms: C_22  and  N_23
REMARK                            x       y       z     vdW  Elec       q    Type
REMARK                         _______ _______ _______ _____ _____    ______ ____
ROOT
ATOM      1  C   UNL     1       5.365   5.735  19.480  0.00  0.00    +0.000 C 
ATOM      2  C   UNL     1       4.522   4.474  19.369  0.00  0.00    +0.000 C 
ATOM      3  C   UNL     1       4.909   3.555  18.206  0.00  0.00    +0.000 C 
ATOM      4  O   UNL     1       3.793   2.661  18.118  0.00  0.00    +0.000 OA
ATOM      5  C   UNL     1       2.719   3.253  18.721  0.00  0.00    +0.000 C 
ATOM      6  S   UNL     1       1.297   2.409  18.662  0.00  0.00    +0.000 S 
ATOM      7  N   UNL     1       3.068   4.505  19.261  0.00  0.00    +0.000 N 
ATOM      8  C   UNL     1       2.165   5.432  19.759  0.00  0.00    +0.000 C 
ATOM      9  O   UNL     1       1.000   5.162  20.047  0.00  0.00    +0.000 OA
ATOM     10  N   UNL     1       2.643   6.730  19.828  0.00  0.00    +0.000 N 
ATOM     11  H   UNL     1       3.237   6.953  19.033  0.00  0.00    +0.000 HD
ENDROOT
BRANCH   3  12
ATOM     12  C   UNL     1       5.177   4.249  16.880  0.00  0.00    +0.000 A 
ATOM     13  C   UNL     1       5.911   3.583  15.892  0.00  0.00    +0.000 A 
ATOM     14  C   UNL     1       6.261   4.270  14.737  0.00  0.00    +0.000 A 
ATOM     15  N   UNL     1       5.933   5.553  14.498  0.00  0.00    +0.000 NA
ATOM     16  C   UNL     1       5.197   6.176  15.442  0.00  0.00    +0.000 A 
ATOM     17  C   UNL     1       4.789   5.572  16.624  0.00  0.00    +0.000 A 
ENDBRANCH   3  12
BRANCH  10  18
ATOM     18  C   UNL     1       1.824   7.816  20.253  0.00  0.00    +0.000 A 
ATOM     19  C   UNL     1       1.320   7.824  21.563  0.00  0.00    +0.000 A 
ATOM     20  C   UNL     1       0.517   8.875  22.020  0.00  0.00    +0.000 A 
ATOM     21  C   UNL     1       0.207   9.940  21.179  0.00  0.00    +0.000 A 
ATOM     22  C   UNL     1       0.700   9.959  19.875  0.00  0.00    +0.000 A 
ATOM     23  C   UNL     1       1.509   8.905  19.411  0.00  0.00    +0.000 A 
BRANCH  23  24
ATOM     24  N   UNL     1       1.943   8.941  18.007  0.00  0.00    +0.000 N 
ATOM     25  O   UNL     1       2.270  10.038  17.522  0.00  0.00    +0.000 OA
ATOM     26  O   UNL     1       1.956   7.876  17.374  0.00  0.00    +0.000 OA
ENDBRANCH  23  24
ENDBRANCH  10  18
TORSDOF 3
ENDMDL
MODEL 2
REMARK VINA RESULT:      -7.2      6.660      8.977
REMARK  Name = 
REMARK  4 active torsions:
REMARK  status: ('A' for Active; 'I' for Inactive)
REMARK    1  A    between atoms: C_1  and  C_2
REMARK    2  A    between atoms: C_3  and  C_4
REMARK    3  A    between atoms: N_16  and  C_17
REMARK    4  A    between atoms: C_22  and  N_23
REMARK                            x       y       z     vdW  Elec       q    Type
REMARK                         _______ _______ _______ _____ _____    ______ ____
ROOT
ATOM      1  C   UNL     1      -0.667  13.453  19.110  0.00  0.00    +0.000 C 
ATOM      2  C   UNL     1      -0.185  12.060  19.485  0.00  0.00    +0.000 C 
ATOM      3  C   UNL     1      -0.584  10.963  18.494  0.00  0.00    +0.000 C 
ATOM      4  O   UNL     1      -0.322   9.759  19.225  0.00  0.00    +0.000 OA
ATOM      5  C   UNL     1      -0.302  10.060  20.557  0.00  0.00    +0.000 C 
ATOM      6  S   UNL     1      -0.088   8.783  21.587  0.00  0.00    +0.000 S 
ATOM      7  N   UNL     1      -0.496  11.438  20.767  0.00  0.00    +0.000 N 
ATOM      8  C   UNL     1      -0.722  12.026  22.003  0.00  0.00    +0.000 C 
ATOM      9  O   UNL     1      -0.501  11.466  23.076  0.00  0.00    +0.000 OA
ATOM     10  N   UNL     1      -1.311  13.279  21.951  0.00  0.00    +0.000 N 
ATOM     11  H   UNL     1      -2.004  13.337  21.209  0.00  0.00    +0.000 HD
ENDROOT
BRANCH   3  12
ATOM     12  C   UNL     1      -2.019  11.016  17.996  0.00  0.00    +0.000 A 
ATOM     13  C   UNL     1      -2.312  10.586  16.697  0.00  0.00    +0.000 A 
ATOM     14  C   UNL     1      -3.600  10.758  16.207  0.00  0.00    +0.000 A 
ATOM     15  N   UNL     1      -4.602  11.316  16.909  0.00  0.00    +0.000 NA
ATOM     16  C   UNL     1      -4.318  11.698  18.172  0.00  0.00    +0.000 A 
ATOM     17  C   UNL     1      -3.066  11.558  18.755  0.00  0.00    +0.000 A 
ENDBRANCH   3  12
BRANCH  10  18
ATOM     18  C   UNL     1      -1.672  13.993  23.130  0.00  0.00    +0.000 A 
ATOM     19  C   UNL     1      -0.806  14.977  23.630  0.00  0.00    +0.000 A 
ATOM     20  C   UNL     1      -1.128  15.704  24.781  0.00  0.00    +0.000 A 
ATOM     21  C   UNL     1      -2.324  15.467  25.451  0.00  0.00    +0.000 A 
ATOM     22  C   UNL     1      -3.206  14.499  24.971  0.00  0.00    +0.000 A 
ATOM     23  C   UNL     1      -2.887  13.765  23.813  0.00  0.00    +0.000 A 
BRANCH  23  24
ATOM     24  N   UNL     1      -3.819  12.709  23.393  0.00  0.00    +0.000 N 
ATOM     25  O   UNL     1      -4.193  12.695  22.208  0.00  0.00    +0.000 OA
ATOM     26  O   UNL     1      -4.191  11.889  24.244  0.00  0.00    +0.000 OA
ENDBRANCH  23  24
ENDBRANCH  10  18
TORSDOF 3
ENDMDL
MODEL 3
REMARK VINA RESULT:      -7.1      0.148      1.130
REMARK  Name = 
REMARK  4 active torsions:
REMARK  status: ('A' for Active; 'I' for Inactive)
REMARK    1  A    between atoms: C_1  and  C_2
REMARK    2  A    between atoms: C_3  and  C_4
REMARK    3  A    between atoms: N_16  and  C_17
REMARK    4  A    between atoms: C_22  and  N_23
REMARK                            x       y       z     vdW  Elec       q    Type
REMARK                         _______ _______ _______ _____ _____    ______ ____
ROOT
ATOM      1  C   UNL     1       5.438   5.750  19.524  0.00  0.00    +0.000 C 
ATOM      2  C   UNL     1       4.614   4.481  19.370  0.00  0.00    +0.000 C 
ATOM      3  C   UNL     1       5.048   3.581  18.209  0.00  0.00    +0.000 C 
ATOM      4  O   UNL     1       3.945   2.677  18.074  0.00  0.00    +0.000 OA
ATOM      5  C   UNL     1       2.846   3.250  18.648  0.00  0.00    +0.000 C 
ATOM      6  S   UNL     1       1.436   2.392  18.531  0.00  0.00    +0.000 S 
ATOM      7  N   UNL     1       3.163   4.498  19.214  0.00  0.00    +0.000 N 
ATOM      8  C   UNL     1       2.235   5.410  19.693  0.00  0.00    +0.000 C 
ATOM      9  O   UNL     1       1.063   5.124  19.939  0.00  0.00    +0.000 OA
ATOM     10  N   UNL     1       2.696   6.712  19.793  0.00  0.00    +0.000 N 
ATOM     11  H   UNL     1       3.314   6.951  19.021  0.00  0.00    +0.000 HD
ENDROOT
BRANCH   3  12
ATOM     12  C   UNL     1       5.352   4.294  16.901  0.00  0.00    +0.000 A 
ATOM     13  C   UNL     1       4.996   5.639  16.753  0.00  0.00    +0.000 A 
ATOM     14  C   UNL     1       5.159   6.244  15.514  0.00  0.00    +0.000 A 
ATOM     15  N   UNL     1       5.649   5.616  14.430  0.00  0.00    +0.000 NA
ATOM     16  C   UNL     1       6.021   4.329  14.592  0.00  0.00    +0.000 A 
ATOM     17  C   UNL     1       5.906   3.640  15.792  0.00  0.00    +0.000 A 
ENDBRANCH   3  12
BRANCH  10  18
ATOM     18  C   UNL     1       1.851   7.783  20.204  0.00  0.00    +0.000 A 
ATOM     19  C   UNL     1       1.306   7.772  21.497  0.00  0.00    +0.000 A 
ATOM     20  C   UNL     1       0.478   8.808  21.940  0.00  0.00    +0.000 A 
ATOM     21  C   UNL     1       0.182   9.879  21.101  0.00  0.00    +0.000 A 
ATOM     22  C   UNL     1       0.715   9.917  19.814  0.00  0.00    +0.000 A 
ATOM     23  C   UNL     1       1.550   8.878  19.364  0.00  0.00    +0.000 A 
BRANCH  23  24
ATOM     24  N   UNL     1       2.028   8.935  17.974  0.00  0.00    +0.000 N 
ATOM     25  O   UNL     1       2.142   7.867  17.350  0.00  0.00    +0.000 OA
ATOM     26  O   UNL     1       2.299  10.046  17.498  0.00  0.00    +0.000 OA
ENDBRANCH  23  24
ENDBRANCH  10  18
TORSDOF 3
ENDMDL
MODEL 4
REMARK VINA RESULT:      -7.0      6.774      9.130
REMARK  Name = 
REMARK  4 active torsions:
REMARK  status: ('A' for Active; 'I' for Inactive)
REMARK    1  A    between atoms: C_1  and  C_2
REMARK    2  A    between atoms: C_3  and  C_4
REMARK    3  A    between atoms: N_16  and  C_17
REMARK    4  A    between atoms: C_22  and  N_23
REMARK                            x       y       z     vdW  Elec       q    Type
REMARK                         _______ _______ _______ _____ _____    ______ ____
ROOT
ATOM      1  C   UNL     1      -0.589  13.663  19.269  0.00  0.00    +0.000 C 
ATOM      2  C   UNL     1      -0.150  12.243  19.589  0.00  0.00    +0.000 C 
ATOM      3  C   UNL     1      -0.552  11.204  18.537  0.00  0.00    +0.000 C 
ATOM      4  O   UNL     1      -0.337   9.961  19.216  0.00  0.00    +0.000 OA
ATOM      5  C   UNL     1      -0.343  10.199  20.561  0.00  0.00    +0.000 C 
ATOM      6  S   UNL     1      -0.185   8.869  21.533  0.00  0.00    +0.000 S 
ATOM      7  N   UNL     1      -0.508  11.569  20.832  0.00  0.00    +0.000 N 
ATOM      8  C   UNL     1      -0.750  12.104  22.089  0.00  0.00    +0.000 C 
ATOM      9  O   UNL     1      -0.569  11.489  23.139  0.00  0.00    +0.000 OA
ATOM     10  N   UNL     1      -1.306  13.373  22.083  0.00  0.00    +0.000 N 
ATOM     11  H   UNL     1      -1.980  13.483  21.329  0.00  0.00    +0.000 HD
ENDROOT
BRANCH   3  12
ATOM     12  C   UNL     1      -1.973  11.317  18.009  0.00  0.00    +0.000 A 
ATOM     13  C   UNL     1      -3.002  11.694  18.880  0.00  0.00    +0.000 A 
ATOM     14  C   UNL     1      -4.312  11.669  18.422  0.00  0.00    +0.000 A 
ATOM     15  N   UNL     1      -4.665  11.305  17.176  0.00  0.00    +0.000 NA
ATOM     16  C   UNL     1      -3.663  10.975  16.334  0.00  0.00    +0.000 A 
ATOM     17  C   UNL     1      -2.322  10.979  16.694  0.00  0.00    +0.000 A 
ENDBRANCH   3  12
BRANCH  10  18
ATOM     18  C   UNL     1      -1.679  14.039  23.286  0.00  0.00    +0.000 A 
ATOM     19  C   UNL     1      -0.811  14.992  23.841  0.00  0.00    +0.000 A 
ATOM     20  C   UNL     1      -1.144  15.673  25.017  0.00  0.00    +0.000 A 
ATOM     21  C   UNL     1      -2.353  15.419  25.658  0.00  0.00    +0.000 A 
ATOM     22  C   UNL     1      -3.236  14.481  25.124  0.00  0.00    +0.000 A 
ATOM     23  C   UNL     1      -2.906  13.795  23.941  0.00  0.00    +0.000 A 
BRANCH  23  24
ATOM     24  N   UNL     1      -3.842  12.767  23.461  0.00  0.00    +0.000 N 
ATOM     25  O   UNL     1      -4.230  11.906  24.268  0.00  0.00    +0.000 OA
ATOM     26  O   UNL     1      -4.192  12.808  22.273  0.00  0.00    +0.000 OA
ENDBRANCH  23  24
ENDBRANCH  10  18
TORSDOF 3
ENDMDL
MODEL 5
REMARK VINA RESULT:      -6.8      2.860      6.823
REMARK  Name = 
REMARK  4 active torsions:
REMARK  status: ('A' for Active; 'I' for Inactive)
REMARK    1  A    between atoms: C_1  and  C_2
REMARK    2  A    between atoms: C_3  and  C_4
REMARK    3  A    between atoms: N_16  and  C_17
REMARK    4  A    between atoms: C_22  and  N_23
REMARK                            x       y       z     vdW  Elec       q    Type
REMARK                         _______ _______ _______ _____ _____    ______ ____
ROOT
ATOM      1  C   UNL     1       4.787   4.043  19.405  0.00  0.00    +0.000 C 
ATOM      2  C   UNL     1       4.153   5.426  19.411  0.00  0.00    +0.000 C 
ATOM      3  C   UNL     1       2.854   5.523  20.215  0.00  0.00    +0.000 C 
ATOM      4  O   UNL     1       2.305   6.776  19.789  0.00  0.00    +0.000 OA
ATOM      5  C   UNL     1       2.860   7.101  18.584  0.00  0.00    +0.000 C 
ATOM      6  S   UNL     1       2.299   8.488  17.878  0.00  0.00    +0.000 S 
ATOM      7  N   UNL     1       3.805   6.138  18.186  0.00  0.00    +0.000 N 
ATOM      8  C   UNL     1       4.394   6.077  16.932  0.00  0.00    +0.000 C 
ATOM      9  O   UNL     1       4.378   7.006  16.125  0.00  0.00    +0.000 OA
ATOM     10  N   UNL     1       4.935   4.846  16.602  0.00  0.00    +0.000 N 
ATOM     11  H   UNL     1       4.363   4.080  16.950  0.00  0.00    +0.000 HD
ENDROOT
BRANCH   3  12
ATOM     12  C   UNL     1       1.868   4.383  20.015  0.00  0.00    +0.000 A 
ATOM     13  C   UNL     1       1.557   3.546  21.093  0.00  0.00    +0.000 A 
ATOM     14  C   UNL     1       0.759   2.432  20.870  0.00  0.00    +0.000 A 
ATOM     15  N   UNL     1       0.253   2.099  19.670  0.00  0.00    +0.000 NA
ATOM     16  C   UNL     1       0.531   2.930  18.643  0.00  0.00    +0.000 A 
ATOM     17  C   UNL     1       1.310   4.073  18.767  0.00  0.00    +0.000 A 
ENDBRANCH   3  12
BRANCH  10  18
ATOM     18  C   UNL     1       5.518   4.593  15.327  0.00  0.00    +0.000 A 
ATOM     19  C   UNL     1       4.718   4.073  14.298  0.00  0.00    +0.000 A 
ATOM     20  C   UNL     1       5.251   3.817  13.030  0.00  0.00    +0.000 A 
ATOM     21  C   UNL     1       6.591   4.081  12.764  0.00  0.00    +0.000 A 
ATOM     22  C   UNL     1       7.406   4.604  13.768  0.00  0.00    +0.000 A 
ATOM     23  C   UNL     1       6.874   4.864  15.044  0.00  0.00    +0.000 A 
BRANCH  23  24
ATOM     24  N   UNL     1       7.794   5.349  16.084  0.00  0.00    +0.000 N 
ATOM     25  O   UNL     1       8.257   4.523  16.888  0.00  0.00    +0.000 OA
ATOM     26  O   UNL     1       8.057   6.560  16.110  0.00  0.00    +0.000 OA
ENDBRANCH  23  24
ENDBRANCH  10  18
TORSDOF 3
ENDMDL
MODEL 6
REMARK VINA RESULT:      -6.6      3.167      7.057
REMARK  Name = 
REMARK  4 active torsions:
REMARK  status: ('A' for Active; 'I' for Inactive)
REMARK    1  A    between atoms: C_1  and  C_2
REMARK    2  A    between atoms: C_3  and  C_4
REMARK    3  A    between atoms: N_16  and  C_17
REMARK    4  A    between atoms: C_22  and  N_23
REMARK                            x       y       z     vdW  Elec       q    Type
REMARK                         _______ _______ _______ _____ _____    ______ ____
ROOT
ATOM      1  C   UNL     1       5.453   3.716  18.584  0.00  0.00    +0.000 C 
ATOM      2  C   UNL     1       4.919   5.137  18.680  0.00  0.00    +0.000 C 
ATOM      3  C   UNL     1       3.782   5.319  19.691  0.00  0.00    +0.000 C 
ATOM      4  O   UNL     1       3.252   6.605  19.349  0.00  0.00    +0.000 OA
ATOM      5  C   UNL     1       3.616   6.893  18.064  0.00  0.00    +0.000 C 
ATOM      6  S   UNL     1       3.034   8.313  17.446  0.00  0.00    +0.000 S 
ATOM      7  N   UNL     1       4.417   5.870  17.524  0.00  0.00    +0.000 N 
ATOM      8  C   UNL     1       4.781   5.770  16.189  0.00  0.00    +0.000 C 
ATOM      9  O   UNL     1       4.689   6.698  15.386  0.00  0.00    +0.000 OA
ATOM     10  N   UNL     1       5.179   4.506  15.787  0.00  0.00    +0.000 N 
ATOM     11  H   UNL     1       4.625   3.779  16.234  0.00  0.00    +0.000 HD
ENDROOT
BRANCH   3  12
ATOM     12  C   UNL     1       2.706   4.245  19.672  0.00  0.00    +0.000 A 
ATOM     13  C   UNL     1       2.151   3.850  18.449  0.00  0.00    +0.000 A 
ATOM     14  C   UNL     1       1.081   2.965  18.452  0.00  0.00    +0.000 A 
ATOM     15  N   UNL     1       0.536   2.450  19.569  0.00  0.00    +0.000 NA
ATOM     16  C   UNL     1       1.100   2.811  20.741  0.00  0.00    +0.000 A 
ATOM     17  C   UNL     1       2.177   3.680  20.841  0.00  0.00    +0.000 A 
ENDBRANCH   3  12
BRANCH  10  18
ATOM     18  C   UNL     1       5.521   4.215  14.435  0.00  0.00    +0.000 A 
ATOM     19  C   UNL     1       4.564   3.622  13.597  0.00  0.00    +0.000 A 
ATOM     20  C   UNL     1       4.859   3.327  12.262  0.00  0.00    +0.000 A 
ATOM     21  C   UNL     1       6.113   3.625  11.737  0.00  0.00    +0.000 A 
ATOM     22  C   UNL     1       7.079   4.220  12.547  0.00  0.00    +0.000 A 
ATOM     23  C   UNL     1       6.787   4.520  13.890  0.00  0.00    +0.000 A 
BRANCH  23  24
ATOM     24  N   UNL     1       7.865   5.082  14.717  0.00  0.00    +0.000 N 
ATOM     25  O   UNL     1       8.651   5.886  14.188  0.00  0.00    +0.000 OA
ATOM     26  O   UNL     1       7.940   4.720  15.900  0.00  0.00    +0.000 OA
ENDBRANCH  23  24
ENDBRANCH  10  18
TORSDOF 3
ENDMDL
MODEL 7
REMARK VINA RESULT:      -6.6      6.620     11.343
REMARK  Name = 
REMARK  4 active torsions:
REMARK  status: ('A' for Active; 'I' for Inactive)
REMARK    1  A    between atoms: C_1  and  C_2
REMARK    2  A    between atoms: C_3  and  C_4
REMARK    3  A    between atoms: N_16  and  C_17
REMARK    4  A    between atoms: C_22  and  N_23
REMARK                            x       y       z     vdW  Elec       q    Type
REMARK                         _______ _______ _______ _____ _____    ______ ____
ROOT
ATOM      1  C   UNL     1      -2.901  12.025  23.467  0.00  0.00    +0.000 C 
ATOM      2  C   UNL     1      -2.917  13.487  23.046  0.00  0.00    +0.000 C 
ATOM      3  C   UNL     1      -4.228  14.218  23.348  0.00  0.00    +0.000 C 
ATOM      4  O   UNL     1      -4.112  15.418  22.574  0.00  0.00    +0.000 OA
ATOM      5  C   UNL     1      -3.193  15.205  21.586  0.00  0.00    +0.000 C 
ATOM      6  S   UNL     1      -2.965  16.455  20.526  0.00  0.00    +0.000 S 
ATOM      7  N   UNL     1      -2.638  13.916  21.680  0.00  0.00    +0.000 N 
ATOM      8  C   UNL     1      -1.829  13.329  20.718  0.00  0.00    +0.000 C 
ATOM      9  O   UNL     1      -1.275  13.959  19.817  0.00  0.00    +0.000 OA
ATOM     10  N   UNL     1      -1.755  11.948  20.784  0.00  0.00    +0.000 N 
ATOM     11  H   UNL     1      -2.650  11.536  21.037  0.00  0.00    +0.000 HD
ENDROOT
BRANCH   3  12
ATOM     12  C   UNL     1      -5.500  13.455  23.013  0.00  0.00    +0.000 A 
ATOM     13  C   UNL     1      -6.362  13.070  24.046  0.00  0.00    +0.000 A 
ATOM     14  C   UNL     1      -7.452  12.264  23.745  0.00  0.00    +0.000 A 
ATOM     15  N   UNL     1      -7.742  11.825  22.508  0.00  0.00    +0.000 NA
ATOM     16  C   UNL     1      -6.923  12.229  21.514  0.00  0.00    +0.000 A 
ATOM     17  C   UNL     1      -5.816  13.042  21.711  0.00  0.00    +0.000 A 
ENDBRANCH   3  12
BRANCH  10  18
ATOM     18  C   UNL     1      -1.022  11.184  19.830  0.00  0.00    +0.000 A 
ATOM     19  C   UNL     1      -1.658  10.763  18.653  0.00  0.00    +0.000 A 
ATOM     20  C   UNL     1      -0.971  10.017  17.689  0.00  0.00    +0.000 A 
ATOM     21  C   UNL     1       0.366   9.683  17.880  0.00  0.00    +0.000 A 
ATOM     22  C   UNL     1       1.024  10.095  19.039  0.00  0.00    +0.000 A 
ATOM     23  C   UNL     1       0.337  10.847  20.011  0.00  0.00    +0.000 A 
BRANCH  23  24
ATOM     24  N   UNL     1       1.059  11.194  21.244  0.00  0.00    +0.000 N 
ATOM     25  O   UNL     1       1.414  12.374  21.403  0.00  0.00    +0.000 OA
ATOM     26  O   UNL     1       1.283  10.290  22.062  0.00  0.00    +0.000 OA
ENDBRANCH  23  24
ENDBRANCH  10  18
TORSDOF 3
ENDMDL
MODEL 8
REMARK VINA RESULT:      -6.5      5.192     10.054
REMARK  Name = 
REMARK  4 active torsions:
REMARK  status: ('A' for Active; 'I' for Inactive)
REMARK    1  A    between atoms: C_1  and  C_2
REMARK    2  A    between atoms: C_3  and  C_4
REMARK    3  A    between atoms: N_16  and  C_17
REMARK    4  A    between atoms: C_22  and  N_23
REMARK                            x       y       z     vdW  Elec       q    Type
REMARK                         _______ _______ _______ _____ _____    ______ ____
ROOT
ATOM      1  C   UNL     1      -0.582  13.826  20.817  0.00  0.00    +0.000 C 
ATOM      2  C   UNL     1      -1.894  13.611  20.079  0.00  0.00    +0.000 C 
ATOM      3  C   UNL     1      -3.130  14.129  20.820  0.00  0.00    +0.000 C 
ATOM      4  O   UNL     1      -4.212  13.517  20.107  0.00  0.00    +0.000 OA
ATOM      5  C   UNL     1      -3.726  12.429  19.439  0.00  0.00    +0.000 C 
ATOM      6  S   UNL     1      -4.840  11.532  18.607  0.00  0.00    +0.000 S 
ATOM      7  N   UNL     1      -2.339  12.296  19.630  0.00  0.00    +0.000 N 
ATOM      8  C   UNL     1      -1.589  11.193  19.250  0.00  0.00    +0.000 C 
ATOM      9  O   UNL     1      -1.987  10.338  18.458  0.00  0.00    +0.000 OA
ATOM     10  N   UNL     1      -0.373  11.063  19.900  0.00  0.00    +0.000 N 
ATOM     11  H   UNL     1      -0.440  11.339  20.877  0.00  0.00    +0.000 HD
ENDROOT
BRANCH   3  12
ATOM     12  C   UNL     1      -3.188  13.812  22.306  0.00  0.00    +0.000 A 
ATOM     13  C   UNL     1      -3.636  12.554  22.724  0.00  0.00    +0.000 A 
ATOM     14  C   UNL     1      -3.807  12.319  24.081  0.00  0.00    +0.000 A 
ATOM     15  N   UNL     1      -3.565  13.232  25.038  0.00  0.00    +0.000 NA
ATOM     16  C   UNL     1      -3.102  14.432  24.627  0.00  0.00    +0.000 A 
ATOM     17  C   UNL     1      -2.887  14.759  23.295  0.00  0.00    +0.000 A 
ENDBRANCH   3  12
BRANCH  10  18
ATOM     18  C   UNL     1       0.489   9.951  19.676  0.00  0.00    +0.000 A 
ATOM     19  C   UNL     1       1.088   9.789  18.417  0.00  0.00    +0.000 A 
ATOM     20  C   UNL     1       1.946   8.714  18.160  0.00  0.00    +0.000 A 
ATOM     21  C   UNL     1       2.225   7.784  19.157  0.00  0.00    +0.000 A 
ATOM     22  C   UNL     1       1.647   7.926  20.418  0.00  0.00    +0.000 A 
ATOM     23  C   UNL     1       0.785   9.006  20.682  0.00  0.00    +0.000 A 
BRANCH  23  24
ATOM     24  N   UNL     1       0.149   9.067  22.006  0.00  0.00    +0.000 N 
ATOM     25  O   UNL     1      -0.789   8.288  22.243  0.00  0.00    +0.000 OA
ATOM     26  O   UNL     1       0.577   9.899  22.819  0.00  0.00    +0.000 OA
ENDBRANCH  23  24
ENDBRANCH  10  18
TORSDOF 3
ENDMDL
MODEL 9
REMARK VINA RESULT:      -6.5      7.026     11.120
REMARK  Name = 
REMARK  4 active torsions:
REMARK  status: ('A' for Active; 'I' for Inactive)
REMARK    1  A    between atoms: C_1  and  C_2
REMARK    2  A    between atoms: C_3  and  C_4
REMARK    3  A    between atoms: N_16  and  C_17
REMARK    4  A    between atoms: C_22  and  N_23
REMARK                            x       y       z     vdW  Elec       q    Type
REMARK                         _______ _______ _______ _____ _____    ______ ____
ROOT
ATOM      1  C   UNL     1      -4.472  11.679  17.394  0.00  0.00    +0.000 C 
ATOM      2  C   UNL     1      -4.952  11.758  18.835  0.00  0.00    +0.000 C 
ATOM      3  C   UNL     1      -6.328  12.408  19.010  0.00  0.00    +0.000 C 
ATOM      4  O   UNL     1      -6.386  12.664  20.418  0.00  0.00    +0.000 OA
ATOM      5  C   UNL     1      -5.109  12.683  20.904  0.00  0.00    +0.000 C 
ATOM      6  S   UNL     1      -4.951  13.041  22.512  0.00  0.00    +0.000 S 
ATOM      7  N   UNL     1      -4.176  12.403  19.889  0.00  0.00    +0.000 N 
ATOM      8  C   UNL     1      -2.802  12.540  20.016  0.00  0.00    +0.000 C 
ATOM      9  O   UNL     1      -2.225  12.646  21.098  0.00  0.00    +0.000 OA
ATOM     10  N   UNL     1      -2.115  12.644  18.819  0.00  0.00    +0.000 N 
ATOM     11  H   UNL     1      -2.634  13.189  18.135  0.00  0.00    +0.000 HD
ENDROOT
BRANCH   3  12
ATOM     12  C   UNL     1      -6.568  13.671  18.199  0.00  0.00    +0.000 A 
ATOM     13  C   UNL     1      -6.436  14.920  18.818  0.00  0.00    +0.000 A 
ATOM     14  C   UNL     1      -6.782  16.061  18.107  0.00  0.00    +0.000 A 
ATOM     15  N   UNL     1      -7.238  16.048  16.842  0.00  0.00    +0.000 NA
ATOM     16  C   UNL     1      -7.330  14.842  16.243  0.00  0.00    +0.000 A 
ATOM     17  C   UNL     1      -6.998  13.647  16.865  0.00  0.00    +0.000 A 
ENDBRANCH   3  12
BRANCH  10  18
ATOM     18  C   UNL     1      -0.706  12.857  18.772  0.00  0.00    +0.000 A 
ATOM     19  C   UNL     1      -0.211  14.169  18.734  0.00  0.00    +0.000 A 
ATOM     20  C   UNL     1       1.165  14.420  18.694  0.00  0.00    +0.000 A 
ATOM     21  C   UNL     1       2.072  13.364  18.697  0.00  0.00    +0.000 A 
ATOM     22  C   UNL     1       1.606  12.051  18.740  0.00  0.00    +0.000 A 
ATOM     23  C   UNL     1       0.223  11.793  18.781  0.00  0.00    +0.000 A 
BRANCH  23  24
ATOM     24  N   UNL     1      -0.214  10.390  18.755  0.00  0.00    +0.000 N 
ATOM     25  O   UNL     1       0.124   9.653  19.696  0.00  0.00    +0.000 OA
ATOM     26  O   UNL     1      -0.894  10.010  17.791  0.00  0.00    +0.000 OA
ENDBRANCH  23  24
ENDBRANCH  10  18
TORSDOF 3
ENDMDL
