MODEL 1
REMARK VINA RESULT:      -6.8      0.000      0.000
REMARK  Name = 
REMARK  4 active torsions:
REMARK  status: ('A' for Active; 'I' for Inactive)
REMARK    1  A    between atoms: C_1  and  N_2
REMARK    2  A    between atoms: N_4  and  C_5
REMARK    3  A    between atoms: C_5  and  C_6
REMARK    4  A    between atoms: N_13  and  N_14
REMARK                            x       y       z     vdW  Elec       q    Type
REMARK                         _______ _______ _______ _____ _____    ______ ____
ROOT
ATOM      1  C   UNL     1       7.947   4.640  18.287  0.00  0.00    +0.000 C 
ATOM      2  N   UNL     1       7.619   4.824  16.887  0.00  0.00    +0.000 NA
ATOM      3  C   UNL     1       6.522   5.383  16.510  0.00  0.00    +0.000 C 
ATOM      4  N   UNL     1       5.587   5.912  17.374  0.00  0.00    +0.000 N 
ATOM      5  N   UNL     1       6.189   5.575  15.196  0.00  0.00    +0.000 N 
ATOM      6  H   UNL     1       5.780   5.733  18.352  0.00  0.00    +0.000 HD
ATOM      7  H   UNL     1       5.977   6.537  14.986  0.00  0.00    +0.000 HD
ENDROOT
BRANCH   5   8
ATOM      8  N   UNL     1       6.894   4.918  14.258  0.00  0.00    +0.000 N 
ATOM      9  O   UNL     1       6.452   3.850  13.831  0.00  0.00    +0.000 OA
ATOM     10  O   UNL     1       7.838   5.570  13.808  0.00  0.00    +0.000 OA
ENDBRANCH   5   8
BRANCH   4  11
ATOM     11  C   UNL     1       4.158   5.990  17.099  0.00  0.00    +0.000 C 
BRANCH  11  12
ATOM     12  C   UNL     1       3.354   5.156  18.063  0.00  0.00    +0.000 A 
ATOM     13  C   UNL     1       2.088   4.642  17.751  0.00  0.00    +0.000 A 
ATOM     14  C   UNL     1       1.381   3.908  18.701  0.00  0.00    +0.000 A 
ATOM     15  C   UNL     1       1.961   3.727  19.944  0.00  0.00    +0.000 A 
ATOM     16 CL   UNL     1       1.158   2.843  21.173  0.00  0.00    +0.000 Cl
ATOM     17  N   UNL     1       3.165   4.219  20.295  0.00  0.00    +0.000 NA
ATOM     18  C   UNL     1       3.828   4.926  19.352  0.00  0.00    +0.000 A 
ENDBRANCH  11  12
ENDBRANCH   4  11
TORSDOF 3
ENDMDL
MODEL 2
REMARK VINA RESULT:      -6.7      1.069      1.272
REMARK  Name = 
REMARK  4 active torsions:
REMARK  status: ('A' for Active; 'I' for Inactive)
REMARK    1  A    between atoms: C_1  and  N_2
REMARK    2  A    between atoms: N_4  and  C_5
REMARK    3  A    between atoms: C_5  and  C_6
REMARK    4  A    between atoms: N_13  and  N_14
REMARK                            x       y       z     vdW  Elec       q    Type
REMARK                         _______ _______ _______ _____ _____    ______ ____
ROOT
ATOM      1  C   UNL     1       7.842   5.663  18.786  0.00  0.00    +0.000 C 
ATOM      2  N   UNL     1       7.547   5.501  17.375  0.00  0.00    +0.000 NA
ATOM      3  C   UNL     1       6.491   6.002  16.836  0.00  0.00    +0.000 C 
ATOM      4  N   UNL     1       5.576   6.782  17.508  0.00  0.00    +0.000 N 
ATOM      5  N   UNL     1       6.191   5.870  15.507  0.00  0.00    +0.000 N 
ATOM      6  H   UNL     1       5.742   6.849  18.505  0.00  0.00    +0.000 HD
ATOM      7  H   UNL     1       6.040   6.757  15.053  0.00  0.00    +0.000 HD
ENDROOT
BRANCH   5   8
ATOM      8  N   UNL     1       6.870   4.959  14.788  0.00  0.00    +0.000 N 
ATOM      9  O   UNL     1       6.426   3.812  14.721  0.00  0.00    +0.000 OA
ATOM     10  O   UNL     1       7.792   5.444  14.128  0.00  0.00    +0.000 OA
ENDBRANCH   5   8
BRANCH   4  11
ATOM     11  C   UNL     1       4.158   6.864  17.179  0.00  0.00    +0.000 C 
BRANCH  11  12
ATOM     12  C   UNL     1       3.319   6.008  18.094  0.00  0.00    +0.000 A 
ATOM     13  C   UNL     1       2.829   6.463  19.325  0.00  0.00    +0.000 A 
ATOM     14  C   UNL     1       2.090   5.609  20.140  0.00  0.00    +0.000 A 
ATOM     15  C   UNL     1       1.879   4.314  19.700  0.00  0.00    +0.000 A 
ATOM     16 CL   UNL     1       0.986   3.195  20.641  0.00  0.00    +0.000 Cl
ATOM     17  N   UNL     1       2.347   3.826  18.534  0.00  0.00    +0.000 NA
ATOM     18  C   UNL     1       3.061   4.680  17.764  0.00  0.00    +0.000 A 
ENDBRANCH  11  12
ENDBRANCH   4  11
TORSDOF 3
ENDMDL
MODEL 3
REMARK VINA RESULT:      -6.6      0.965      1.227
REMARK  Name = 
REMARK  4 active torsions:
REMARK  status: ('A' for Active; 'I' for Inactive)
REMARK    1  A    between atoms: C_1  and  N_2
REMARK    2  A    between atoms: N_4  and  C_5
REMARK    3  A    between atoms: C_5  and  C_6
REMARK    4  A    between atoms: N_13  and  N_14
REMARK                            x       y       z     vdW  Elec       q    Type
REMARK                         _______ _______ _______ _____ _____    ______ ____
ROOT
ATOM      1  C   UNL     1       7.822   5.898  18.738  0.00  0.00    +0.000 C 
ATOM      2  N   UNL     1       7.489   5.676  17.344  0.00  0.00    +0.000 NA
ATOM      3  C   UNL     1       6.397   6.116  16.825  0.00  0.00    +0.000 C 
ATOM      4  N   UNL     1       5.472   6.882  17.501  0.00  0.00    +0.000 N 
ATOM      5  N   UNL     1       6.059   5.926  15.511  0.00  0.00    +0.000 N 
ATOM      6  H   UNL     1       5.668   6.990  18.488  0.00  0.00    +0.000 HD
ATOM      7  H   UNL     1       5.858   6.789  15.033  0.00  0.00    +0.000 HD
ENDROOT
BRANCH   5   8
ATOM      8  N   UNL     1       6.752   5.018  14.801  0.00  0.00    +0.000 N 
ATOM      9  O   UNL     1       7.771   5.385  14.212  0.00  0.00    +0.000 OA
ATOM     10  O   UNL     1       6.362   3.861  14.971  0.00  0.00    +0.000 OA
ENDBRANCH   5   8
BRANCH   4  11
ATOM     11  C   UNL     1       4.043   6.896  17.217  0.00  0.00    +0.000 C 
BRANCH  11  12
ATOM     12  C   UNL     1       3.291   5.909  18.072  0.00  0.00    +0.000 A 
ATOM     13  C   UNL     1       2.874   4.657  17.600  0.00  0.00    +0.000 A 
ATOM     14  C   UNL     1       2.151   3.804  18.430  0.00  0.00    +0.000 A 
ATOM     15  C   UNL     1       1.852   4.243  19.708  0.00  0.00    +0.000 A 
ATOM     16 CL   UNL     1       0.960   3.262  20.794  0.00  0.00    +0.000 Cl
ATOM     17  N   UNL     1       2.214   5.446  20.198  0.00  0.00    +0.000 NA
ATOM     18  C   UNL     1       2.916   6.251  19.368  0.00  0.00    +0.000 A 
ENDBRANCH  11  12
ENDBRANCH   4  11
TORSDOF 3
ENDMDL
MODEL 4
REMARK VINA RESULT:      -6.6      2.336      2.919
REMARK  Name = 
REMARK  4 active torsions:
REMARK  status: ('A' for Active; 'I' for Inactive)
REMARK    1  A    between atoms: C_1  and  N_2
REMARK    2  A    between atoms: N_4  and  C_5
REMARK    3  A    between atoms: C_5  and  C_6
REMARK    4  A    between atoms: N_13  and  N_14
REMARK                            x       y       z     vdW  Elec       q    Type
REMARK                         _______ _______ _______ _____ _____    ______ ____
ROOT
ATOM      1  C   UNL     1       7.012   4.752  15.014  0.00  0.00    +0.000 C 
ATOM      2  N   UNL     1       7.287   5.103  16.394  0.00  0.00    +0.000 NA
ATOM      3  C   UNL     1       6.346   5.352  17.236  0.00  0.00    +0.000 C 
ATOM      4  N   UNL     1       5.002   5.256  16.945  0.00  0.00    +0.000 N 
ATOM      5  N   UNL     1       6.576   5.679  18.546  0.00  0.00    +0.000 N 
ATOM      6  H   UNL     1       4.803   5.072  15.969  0.00  0.00    +0.000 HD
ATOM      7  H   UNL     1       6.089   5.075  19.188  0.00  0.00    +0.000 HD
ENDROOT
BRANCH   5   8
ATOM      8  N   UNL     1       7.825   6.022  18.906  0.00  0.00    +0.000 N 
ATOM      9  O   UNL     1       8.224   7.158  18.639  0.00  0.00    +0.000 OA
ATOM     10  O   UNL     1       8.374   5.188  19.629  0.00  0.00    +0.000 OA
ENDBRANCH   5   8
BRANCH   4  11
ATOM     11  C   UNL     1       3.959   6.052  17.581  0.00  0.00    +0.000 C 
BRANCH  11  12
ATOM     12  C   UNL     1       3.223   5.270  18.638  0.00  0.00    +0.000 A 
ATOM     13  C   UNL     1       2.524   5.881  19.688  0.00  0.00    +0.000 A 
ATOM     14  C   UNL     1       1.894   5.100  20.654  0.00  0.00    +0.000 A 
ATOM     15  C   UNL     1       2.000   3.724  20.545  0.00  0.00    +0.000 A 
ATOM     16 CL   UNL     1       1.261   2.688  21.693  0.00  0.00    +0.000 Cl
ATOM     17  N   UNL     1       2.677   3.093  19.566  0.00  0.00    +0.000 NA
ATOM     18  C   UNL     1       3.277   3.878  18.642  0.00  0.00    +0.000 A 
ENDBRANCH  11  12
ENDBRANCH   4  11
TORSDOF 3
ENDMDL
MODEL 5
REMARK VINA RESULT:      -6.4      4.301      6.007
REMARK  Name = 
REMARK  4 active torsions:
REMARK  status: ('A' for Active; 'I' for Inactive)
REMARK    1  A    between atoms: C_1  and  N_2
REMARK    2  A    between atoms: N_4  and  C_5
REMARK    3  A    between atoms: C_5  and  C_6
REMARK    4  A    between atoms: N_13  and  N_14
REMARK                            x       y       z     vdW  Elec       q    Type
REMARK                         _______ _______ _______ _____ _____    ______ ____
ROOT
ATOM      1  C   UNL     1       4.713   1.982  20.514  0.00  0.00    +0.000 C 
ATOM      2  N   UNL     1       3.456   2.250  19.843  0.00  0.00    +0.000 NA
ATOM      3  C   UNL     1       3.406   2.636  18.617  0.00  0.00    +0.000 C 
ATOM      4  N   UNL     1       4.510   2.777  17.804  0.00  0.00    +0.000 N 
ATOM      5  N   UNL     1       2.234   2.890  17.955  0.00  0.00    +0.000 N 
ATOM      6  H   UNL     1       5.394   2.652  18.282  0.00  0.00    +0.000 HD
ATOM      7  H   UNL     1       2.148   2.364  17.101  0.00  0.00    +0.000 HD
ENDROOT
BRANCH   5   8
ATOM      8  N   UNL     1       1.107   3.008  18.680  0.00  0.00    +0.000 N 
ATOM      9  O   UNL     1       0.955   4.016  19.372  0.00  0.00    +0.000 OA
ATOM     10  O   UNL     1       0.266   2.144  18.423  0.00  0.00    +0.000 OA
ENDBRANCH   5   8
BRANCH   4  11
ATOM     11  C   UNL     1       4.610   3.724  16.700  0.00  0.00    +0.000 C 
BRANCH  11  12
ATOM     12  C   UNL     1       5.559   4.852  17.013  0.00  0.00    +0.000 A 
ATOM     13  C   UNL     1       6.484   4.799  18.064  0.00  0.00    +0.000 A 
ATOM     14  C   UNL     1       7.308   5.892  18.323  0.00  0.00    +0.000 A 
ATOM     15  C   UNL     1       7.167   7.014  17.526  0.00  0.00    +0.000 A 
ATOM     16 CL   UNL     1       8.135   8.405  17.779  0.00  0.00    +0.000 Cl
ATOM     17  N   UNL     1       6.278   7.118  16.518  0.00  0.00    +0.000 NA
ATOM     18  C   UNL     1       5.492   6.041  16.290  0.00  0.00    +0.000 A 
ENDBRANCH  11  12
ENDBRANCH   4  11
TORSDOF 3
ENDMDL
MODEL 6
REMARK VINA RESULT:      -6.4      1.088      1.108
REMARK  Name = 
REMARK  4 active torsions:
REMARK  status: ('A' for Active; 'I' for Inactive)
REMARK    1  A    between atoms: C_1  and  N_2
REMARK    2  A    between atoms: N_4  and  C_5
REMARK    3  A    between atoms: C_5  and  C_6
REMARK    4  A    between atoms: N_13  and  N_14
REMARK                            x       y       z     vdW  Elec       q    Type
REMARK                         _______ _______ _______ _____ _____    ______ ____
ROOT
ATOM      1  C   UNL     1       7.840   4.548  17.917  0.00  0.00    +0.000 C 
ATOM      2  N   UNL     1       7.450   4.643  16.524  0.00  0.00    +0.000 NA
ATOM      3  C   UNL     1       6.217   4.688  16.162  0.00  0.00    +0.000 C 
ATOM      4  N   UNL     1       5.153   4.712  17.038  0.00  0.00    +0.000 N 
ATOM      5  N   UNL     1       5.819   4.784  14.854  0.00  0.00    +0.000 N 
ATOM      6  H   UNL     1       5.414   4.585  18.008  0.00  0.00    +0.000 HD
ATOM      7  H   UNL     1       5.209   5.567  14.691  0.00  0.00    +0.000 HD
ENDROOT
BRANCH   5   8
ATOM      8  N   UNL     1       6.731   4.548  13.894  0.00  0.00    +0.000 N 
ATOM      9  O   UNL     1       6.578   3.565  13.166  0.00  0.00    +0.000 OA
ATOM     10  O   UNL     1       7.540   5.467  13.749  0.00  0.00    +0.000 OA
ENDBRANCH   5   8
BRANCH   4  11
ATOM     11  C   UNL     1       3.829   4.176  16.748  0.00  0.00    +0.000 C 
BRANCH  11  12
ATOM     12  C   UNL     1       3.101   3.769  18.004  0.00  0.00    +0.000 A 
ATOM     13  C   UNL     1       1.826   4.248  18.332  0.00  0.00    +0.000 A 
ATOM     14  C   UNL     1       1.222   3.862  19.526  0.00  0.00    +0.000 A 
ATOM     15  C   UNL     1       1.927   3.017  20.365  0.00  0.00    +0.000 A 
ATOM     16 CL   UNL     1       1.262   2.496  21.857  0.00  0.00    +0.000 Cl
ATOM     17  N   UNL     1       3.162   2.547  20.101  0.00  0.00    +0.000 NA
ATOM     18  C   UNL     1       3.721   2.939  18.934  0.00  0.00    +0.000 A 
ENDBRANCH  11  12
ENDBRANCH   4  11
TORSDOF 3
ENDMDL
MODEL 7
REMARK VINA RESULT:      -6.4      0.873      1.175
REMARK  Name = 
REMARK  4 active torsions:
REMARK  status: ('A' for Active; 'I' for Inactive)
REMARK    1  A    between atoms: C_1  and  N_2
REMARK    2  A    between atoms: N_4  and  C_5
REMARK    3  A    between atoms: C_5  and  C_6
REMARK    4  A    between atoms: N_13  and  N_14
REMARK                            x       y       z     vdW  Elec       q    Type
REMARK                         _______ _______ _______ _____ _____    ______ ____
ROOT
ATOM      1  C   UNL     1       7.919   5.497  18.762  0.00  0.00    +0.000 C 
ATOM      2  N   UNL     1       7.569   5.426  17.356  0.00  0.00    +0.000 NA
ATOM      3  C   UNL     1       6.397   5.740  16.928  0.00  0.00    +0.000 C 
ATOM      4  N   UNL     1       5.385   6.226  17.728  0.00  0.00    +0.000 N 
ATOM      5  N   UNL     1       6.040   5.688  15.607  0.00  0.00    +0.000 N 
ATOM      6  H   UNL     1       5.602   6.221  18.717  0.00  0.00    +0.000 HD
ATOM      7  H   UNL     1       5.675   6.563  15.269  0.00  0.00    +0.000 HD
ENDROOT
BRANCH   5   8
ATOM      8  N   UNL     1       6.846   5.029  14.756  0.00  0.00    +0.000 N 
ATOM      9  O   UNL     1       7.859   5.598  14.344  0.00  0.00    +0.000 OA
ATOM     10  O   UNL     1       6.550   3.839  14.621  0.00  0.00    +0.000 OA
ENDBRANCH   5   8
BRANCH   4  11
ATOM     11  C   UNL     1       3.963   6.032  17.473  0.00  0.00    +0.000 C 
BRANCH  11  12
ATOM     12  C   UNL     1       3.314   5.183  18.536  0.00  0.00    +0.000 A 
ATOM     13  C   UNL     1       2.081   5.505  19.119  0.00  0.00    +0.000 A 
ATOM     14  C   UNL     1       1.552   4.697  20.123  0.00  0.00    +0.000 A 
ATOM     15  C   UNL     1       2.288   3.596  20.524  0.00  0.00    +0.000 A 
ATOM     16 CL   UNL     1       1.716   2.552  21.757  0.00  0.00    +0.000 Cl
ATOM     17  N   UNL     1       3.486   3.258  20.007  0.00  0.00    +0.000 NA
ATOM     18  C   UNL     1       3.973   4.062  19.034  0.00  0.00    +0.000 A 
ENDBRANCH  11  12
ENDBRANCH   4  11
TORSDOF 3
ENDMDL
MODEL 8
REMARK VINA RESULT:      -6.4      4.345      6.150
REMARK  Name = 
REMARK  4 active torsions:
REMARK  status: ('A' for Active; 'I' for Inactive)
REMARK    1  A    between atoms: C_1  and  N_2
REMARK    2  A    between atoms: N_4  and  C_5
REMARK    3  A    between atoms: C_5  and  C_6
REMARK    4  A    between atoms: N_13  and  N_14
REMARK                            x       y       z     vdW  Elec       q    Type
REMARK                         _______ _______ _______ _____ _____    ______ ____
ROOT
ATOM      1  C   UNL     1       4.973   1.583  20.787  0.00  0.00    +0.000 C 
ATOM      2  N   UNL     1       3.844   2.218  20.135  0.00  0.00    +0.000 NA
ATOM      3  C   UNL     1       3.997   3.131  19.242  0.00  0.00    +0.000 C 
ATOM      4  N   UNL     1       5.221   3.554  18.769  0.00  0.00    +0.000 N 
ATOM      5  N   UNL     1       2.950   3.744  18.606  0.00  0.00    +0.000 N 
ATOM      6  H   UNL     1       6.013   3.160  19.262  0.00  0.00    +0.000 HD
ATOM      7  H   UNL     1       3.015   3.680  17.603  0.00  0.00    +0.000 HD
ENDROOT
BRANCH   5   8
ATOM      8  N   UNL     1       1.717   3.591  19.119  0.00  0.00    +0.000 N 
ATOM      9  O   UNL     1       1.344   4.372  19.996  0.00  0.00    +0.000 OA
ATOM     10  O   UNL     1       1.031   2.767  18.510  0.00  0.00    +0.000 OA
ENDBRANCH   5   8
BRANCH   4  11
ATOM     11  C   UNL     1       5.496   4.895  18.267  0.00  0.00    +0.000 C 
BRANCH  11  12
ATOM     12  C   UNL     1       5.925   4.876  16.822  0.00  0.00    +0.000 A 
ATOM     13  C   UNL     1       5.203   4.212  15.822  0.00  0.00    +0.000 A 
ATOM     14  C   UNL     1       5.674   4.202  14.512  0.00  0.00    +0.000 A 
ATOM     15  C   UNL     1       6.869   4.847  14.247  0.00  0.00    +0.000 A 
ATOM     16 CL   UNL     1       7.525   4.879  12.665  0.00  0.00    +0.000 Cl
ATOM     17  N   UNL     1       7.608   5.481  15.179  0.00  0.00    +0.000 NA
ATOM     18  C   UNL     1       7.124   5.474  16.443  0.00  0.00    +0.000 A 
ENDBRANCH  11  12
ENDBRANCH   4  11
TORSDOF 3
ENDMDL
MODEL 9
REMARK VINA RESULT:      -6.4      4.061      6.060
REMARK  Name = 
REMARK  4 active torsions:
REMARK  status: ('A' for Active; 'I' for Inactive)
REMARK    1  A    between atoms: C_1  and  N_2
REMARK    2  A    between atoms: N_4  and  C_5
REMARK    3  A    between atoms: C_5  and  C_6
REMARK    4  A    between atoms: N_13  and  N_14
REMARK                            x       y       z     vdW  Elec       q    Type
REMARK                         _______ _______ _______ _____ _____    ______ ____
ROOT
ATOM      1  C   UNL     1       2.573   7.618  18.531  0.00  0.00    +0.000 C 
ATOM      2  N   UNL     1       2.184   6.237  18.740  0.00  0.00    +0.000 NA
ATOM      3  C   UNL     1       3.046   5.315  18.991  0.00  0.00    +0.000 C 
ATOM      4  N   UNL     1       4.397   5.541  19.146  0.00  0.00    +0.000 N 
ATOM      5  N   UNL     1       2.708   4.005  19.199  0.00  0.00    +0.000 N 
ATOM      6  H   UNL     1       4.684   6.491  18.940  0.00  0.00    +0.000 HD
ATOM      7  H   UNL     1       3.056   3.648  20.074  0.00  0.00    +0.000 HD
ENDROOT
BRANCH   5   8
ATOM      8  N   UNL     1       1.468   3.607  18.863  0.00  0.00    +0.000 N 
ATOM      9  O   UNL     1       1.220   3.395  17.674  0.00  0.00    +0.000 OA
ATOM     10  O   UNL     1       0.760   3.333  19.835  0.00  0.00    +0.000 OA
ENDBRANCH   5   8
BRANCH   4  11
ATOM     11  C   UNL     1       5.439   4.571  18.834  0.00  0.00    +0.000 C 
BRANCH  11  12
ATOM     12  C   UNL     1       5.894   4.677  17.400  0.00  0.00    +0.000 A 
ATOM     13  C   UNL     1       5.304   3.946  16.360  0.00  0.00    +0.000 A 
ATOM     14  C   UNL     1       5.795   4.061  15.062  0.00  0.00    +0.000 A 
ATOM     15  C   UNL     1       6.878   4.897  14.850  0.00  0.00    +0.000 A 
ATOM     16 CL   UNL     1       7.549   5.094  13.285  0.00  0.00    +0.000 Cl
ATOM     17  N   UNL     1       7.489   5.604  15.821  0.00  0.00    +0.000 NA
ATOM     18  C   UNL     1       6.989   5.471  17.071  0.00  0.00    +0.000 A 
ENDBRANCH  11  12
ENDBRANCH   4  11
TORSDOF 3
ENDMDL
