MODEL 1
REMARK VINA RESULT:      -8.3      0.000      0.000
REMARK  Name = 
REMARK  4 active torsions:
REMARK  status: ('A' for Active; 'I' for Inactive)
REMARK    1  A    between atoms: C_5  and  C_6
REMARK    2  A    between atoms: C_6  and  C_14
REMARK    3  A    between atoms: C_7  and  C_8
REMARK    4  A    between atoms: C_14  and  N_15
REMARK                            x       y       z     vdW  Elec       q    Type
REMARK                         _______ _______ _______ _____ _____    ______ ____
ROOT
ATOM      1  C   UNL     1       5.500   4.346  16.666  0.00  0.00    +0.000 C 
ATOM      2  C   UNL     1       5.093   4.229  15.384  0.00  0.00    +0.000 C 
ENDROOT
BRANCH   1   7
ATOM      3 CL   UNL     1       1.203   3.908  20.824  0.00  0.00    +0.000 Cl
ATOM      4  C   UNL     1       2.450   4.061  19.647  0.00  0.00    +0.000 A 
ATOM      5  C   UNL     1       2.198   4.736  18.454  0.00  0.00    +0.000 A 
ATOM      6  C   UNL     1       3.205   4.845  17.493  0.00  0.00    +0.000 A 
ATOM      7  C   UNL     1       4.467   4.278  17.721  0.00  0.00    +0.000 A 
ATOM      8  C   UNL     1       4.715   3.616  18.929  0.00  0.00    +0.000 A 
ATOM      9  C   UNL     1       3.704   3.506  19.892  0.00  0.00    +0.000 A 
ENDBRANCH   1   7
BRANCH   2  10
ATOM     10  C   UNL     1       5.904   4.175  14.151  0.00  0.00    +0.000 A 
ATOM     11  C   UNL     1       5.578   3.373  13.051  0.00  0.00    +0.000 A 
ATOM     12  C   UNL     1       6.347   3.398  11.884  0.00  0.00    +0.000 A 
ATOM     13  C   UNL     1       7.434   4.257  11.781  0.00  0.00    +0.000 A 
ATOM     14  C   UNL     1       7.757   5.087  12.850  0.00  0.00    +0.000 A 
ATOM     15  C   UNL     1       6.999   5.046  14.026  0.00  0.00    +0.000 A 
ENDBRANCH   2  10
BRANCH   1  16
ATOM     16  C   UNL     1       6.904   4.482  17.211  0.00  0.00    +0.000 C 
BRANCH  16  17
ATOM     17  N   UNL     1       7.300   5.824  17.612  0.00  0.00    +0.000 N 
ATOM     18  C   UNL     1       7.838   6.246  18.793  0.00  0.00    +0.000 A 
ATOM     19  C   UNL     1       8.199   7.547  18.544  0.00  0.00    +0.000 A 
ATOM     20  N   UNL     1       7.885   7.870  17.256  0.00  0.00    +0.000 NA
ATOM     21  N   UNL     1       7.344   6.802  16.685  0.00  0.00    +0.000 NA
ENDBRANCH  16  17
ENDBRANCH   1  16
TORSDOF 4
ENDMDL
MODEL 2
REMARK VINA RESULT:      -8.3      0.192      1.064
REMARK  Name = 
REMARK  4 active torsions:
REMARK  status: ('A' for Active; 'I' for Inactive)
REMARK    1  A    between atoms: C_5  and  C_6
REMARK    2  A    between atoms: C_6  and  C_14
REMARK    3  A    between atoms: C_7  and  C_8
REMARK    4  A    between atoms: C_14  and  N_15
REMARK                            x       y       z     vdW  Elec       q    Type
REMARK                         _______ _______ _______ _____ _____    ______ ____
ROOT
ATOM      1  C   UNL     1       5.444   4.434  16.677  0.00  0.00    +0.000 C 
ATOM      2  C   UNL     1       5.025   4.336  15.397  0.00  0.00    +0.000 C 
ENDROOT
BRANCH   1   7
ATOM      3 CL   UNL     1       1.166   3.931  20.847  0.00  0.00    +0.000 Cl
ATOM      4  C   UNL     1       2.412   4.096  19.671  0.00  0.00    +0.000 A 
ATOM      5  C   UNL     1       2.275   5.025  18.642  0.00  0.00    +0.000 A 
ATOM      6  C   UNL     1       3.279   5.146  17.678  0.00  0.00    +0.000 A 
ATOM      7  C   UNL     1       4.422   4.338  17.741  0.00  0.00    +0.000 A 
ATOM      8  C   UNL     1       4.559   3.419  18.788  0.00  0.00    +0.000 A 
ATOM      9  C   UNL     1       3.551   3.297  19.752  0.00  0.00    +0.000 A 
ENDBRANCH   1   7
BRANCH   2  10
ATOM     10  C   UNL     1       5.824   4.312  14.155  0.00  0.00    +0.000 A 
ATOM     11  C   UNL     1       7.005   5.044  13.988  0.00  0.00    +0.000 A 
ATOM     12  C   UNL     1       7.758   4.946  12.814  0.00  0.00    +0.000 A 
ATOM     13  C   UNL     1       7.363   4.081  11.801  0.00  0.00    +0.000 A 
ATOM     14  C   UNL     1       6.209   3.318  11.960  0.00  0.00    +0.000 A 
ATOM     15  C   UNL     1       5.445   3.434  13.127  0.00  0.00    +0.000 A 
ENDBRANCH   2  10
BRANCH   1  16
ATOM     16  C   UNL     1       6.853   4.572  17.211  0.00  0.00    +0.000 C 
BRANCH  16  17
ATOM     17  N   UNL     1       7.246   5.912  17.619  0.00  0.00    +0.000 N 
ATOM     18  C   UNL     1       7.923   6.307  18.736  0.00  0.00    +0.000 A 
ATOM     19  C   UNL     1       8.195   7.633  18.505  0.00  0.00    +0.000 A 
ATOM     20  N   UNL     1       7.696   7.996  17.288  0.00  0.00    +0.000 NA
ATOM     21  N   UNL     1       7.124   6.930  16.743  0.00  0.00    +0.000 NA
ENDBRANCH  16  17
ENDBRANCH   1  16
TORSDOF 4
ENDMDL
MODEL 3
REMARK VINA RESULT:      -8.2      0.928      1.782
REMARK  Name = 
REMARK  4 active torsions:
REMARK  status: ('A' for Active; 'I' for Inactive)
REMARK    1  A    between atoms: C_5  and  C_6
REMARK    2  A    between atoms: C_6  and  C_14
REMARK    3  A    between atoms: C_7  and  C_8
REMARK    4  A    between atoms: C_14  and  N_15
REMARK                            x       y       z     vdW  Elec       q    Type
REMARK                         _______ _______ _______ _____ _____    ______ ____
ROOT
ATOM      1  C   UNL     1       4.513   4.823  16.668  0.00  0.00    +0.000 C 
ATOM      2  C   UNL     1       4.921   3.958  15.714  0.00  0.00    +0.000 C 
ENDROOT
BRANCH   1   7
ATOM      3 CL   UNL     1       1.418   2.720  21.351  0.00  0.00    +0.000 Cl
ATOM      4  C   UNL     1       2.286   3.305  19.985  0.00  0.00    +0.000 A 
ATOM      5  C   UNL     1       3.479   2.692  19.607  0.00  0.00    +0.000 A 
ATOM      6  C   UNL     1       4.191   3.179  18.508  0.00  0.00    +0.000 A 
ATOM      7  C   UNL     1       3.714   4.281  17.786  0.00  0.00    +0.000 A 
ATOM      8  C   UNL     1       2.507   4.881  18.164  0.00  0.00    +0.000 A 
ATOM      9  C   UNL     1       1.794   4.393  19.266  0.00  0.00    +0.000 A 
ENDBRANCH   1   7
BRANCH   2  10
ATOM     10  C   UNL     1       5.791   4.204  14.545  0.00  0.00    +0.000 A 
ATOM     11  C   UNL     1       6.963   4.966  14.607  0.00  0.00    +0.000 A 
ATOM     12  C   UNL     1       7.784   5.125  13.487  0.00  0.00    +0.000 A 
ATOM     13  C   UNL     1       7.467   4.489  12.293  0.00  0.00    +0.000 A 
ATOM     14  C   UNL     1       6.324   3.698  12.218  0.00  0.00    +0.000 A 
ATOM     15  C   UNL     1       5.492   3.558  13.335  0.00  0.00    +0.000 A 
ENDBRANCH   2  10
BRANCH   1  16
ATOM     16  C   UNL     1       4.809   6.300  16.804  0.00  0.00    +0.000 C 
BRANCH  16  17
ATOM     17  N   UNL     1       6.047   6.637  17.489  0.00  0.00    +0.000 N 
ATOM     18  C   UNL     1       6.742   5.914  18.416  0.00  0.00    +0.000 A 
ATOM     19  C   UNL     1       7.918   6.608  18.561  0.00  0.00    +0.000 A 
ATOM     20  N   UNL     1       7.910   7.697  17.738  0.00  0.00    +0.000 NA
ATOM     21  N   UNL     1       6.762   7.703  17.074  0.00  0.00    +0.000 NA
ENDBRANCH  16  17
ENDBRANCH   1  16
TORSDOF 4
ENDMDL
MODEL 4
REMARK VINA RESULT:      -8.2      3.829      5.328
REMARK  Name = 
REMARK  4 active torsions:
REMARK  status: ('A' for Active; 'I' for Inactive)
REMARK    1  A    between atoms: C_5  and  C_6
REMARK    2  A    between atoms: C_6  and  C_14
REMARK    3  A    between atoms: C_7  and  C_8
REMARK    4  A    between atoms: C_14  and  N_15
REMARK                            x       y       z     vdW  Elec       q    Type
REMARK                         _______ _______ _______ _____ _____    ______ ____
ROOT
ATOM      1  C   UNL     1       3.395   6.702  18.431  0.00  0.00    +0.000 C 
ATOM      2  C   UNL     1       4.238   6.967  17.410  0.00  0.00    +0.000 C 
ENDROOT
BRANCH   1   7
ATOM      3 CL   UNL     1      -0.546  10.975  19.898  0.00  0.00    +0.000 Cl
ATOM      4  C   UNL     1       0.559   9.729  19.465  0.00  0.00    +0.000 A 
ATOM      5  C   UNL     1       0.992   8.820  20.429  0.00  0.00    +0.000 A 
ATOM      6  C   UNL     1       1.902   7.820  20.080  0.00  0.00    +0.000 A 
ATOM      7  C   UNL     1       2.383   7.726  18.767  0.00  0.00    +0.000 A 
ATOM      8  C   UNL     1       1.931   8.633  17.802  0.00  0.00    +0.000 A 
ATOM      9  C   UNL     1       1.020   9.637  18.153  0.00  0.00    +0.000 A 
ENDBRANCH   1   7
BRANCH   2  10
ATOM     10  C   UNL     1       5.275   6.103  16.811  0.00  0.00    +0.000 A 
ATOM     11  C   UNL     1       6.330   5.549  17.545  0.00  0.00    +0.000 A 
ATOM     12  C   UNL     1       7.257   4.691  16.945  0.00  0.00    +0.000 A 
ATOM     13  C   UNL     1       7.121   4.340  15.608  0.00  0.00    +0.000 A 
ATOM     14  C   UNL     1       6.060   4.853  14.868  0.00  0.00    +0.000 A 
ATOM     15  C   UNL     1       5.144   5.728  15.464  0.00  0.00    +0.000 A 
ENDBRANCH   2  10
BRANCH   1  16
ATOM     16  C   UNL     1       3.284   5.451  19.275  0.00  0.00    +0.000 C 
BRANCH  16  17
ATOM     17  N   UNL     1       2.747   4.279  18.601  0.00  0.00    +0.000 N 
ATOM     18  C   UNL     1       3.412   3.213  18.068  0.00  0.00    +0.000 A 
ATOM     19  C   UNL     1       2.413   2.326  17.752  0.00  0.00    +0.000 A 
ATOM     20  N   UNL     1       1.204   2.858  18.096  0.00  0.00    +0.000 NA
ATOM     21  N   UNL     1       1.418   4.054  18.627  0.00  0.00    +0.000 NA
ENDBRANCH  16  17
ENDBRANCH   1  16
TORSDOF 4
ENDMDL
MODEL 5
REMARK VINA RESULT:      -8.2      0.121      1.491
REMARK  Name = 
REMARK  4 active torsions:
REMARK  status: ('A' for Active; 'I' for Inactive)
REMARK    1  A    between atoms: C_5  and  C_6
REMARK    2  A    between atoms: C_6  and  C_14
REMARK    3  A    between atoms: C_7  and  C_8
REMARK    4  A    between atoms: C_14  and  N_15
REMARK                            x       y       z     vdW  Elec       q    Type
REMARK                         _______ _______ _______ _____ _____    ______ ____
ROOT
ATOM      1  C   UNL     1       5.468   4.329  16.653  0.00  0.00    +0.000 C 
ATOM      2  C   UNL     1       5.057   4.272  15.367  0.00  0.00    +0.000 C 
ENDROOT
BRANCH   1   7
ATOM      3 CL   UNL     1       1.421   3.892  21.054  0.00  0.00    +0.000 Cl
ATOM      4  C   UNL     1       2.567   3.991  19.774  0.00  0.00    +0.000 A 
ATOM      5  C   UNL     1       3.802   3.359  19.899  0.00  0.00    +0.000 A 
ATOM      6  C   UNL     1       4.738   3.455  18.866  0.00  0.00    +0.000 A 
ATOM      7  C   UNL     1       4.441   4.184  17.706  0.00  0.00    +0.000 A 
ATOM      8  C   UNL     1       3.191   4.802  17.582  0.00  0.00    +0.000 A 
ATOM      9  C   UNL     1       2.255   4.707  18.619  0.00  0.00    +0.000 A 
ENDBRANCH   1   7
BRANCH   2  10
ATOM     10  C   UNL     1       5.863   4.300  14.130  0.00  0.00    +0.000 A 
ATOM     11  C   UNL     1       7.017   5.080  13.984  0.00  0.00    +0.000 A 
ATOM     12  C   UNL     1       7.779   5.032  12.813  0.00  0.00    +0.000 A 
ATOM     13  C   UNL     1       7.423   4.172  11.782  0.00  0.00    +0.000 A 
ATOM     14  C   UNL     1       6.298   3.363  11.919  0.00  0.00    +0.000 A 
ATOM     15  C   UNL     1       5.524   3.428  13.084  0.00  0.00    +0.000 A 
ENDBRANCH   2  10
BRANCH   1  16
ATOM     16  C   UNL     1       6.872   4.464  17.199  0.00  0.00    +0.000 C 
BRANCH  16  17
ATOM     17  N   UNL     1       7.270   5.807  17.593  0.00  0.00    +0.000 N 
ATOM     18  C   UNL     1       7.812   6.233  18.772  0.00  0.00    +0.000 A 
ATOM     19  C   UNL     1       8.173   7.533  18.518  0.00  0.00    +0.000 A 
ATOM     20  N   UNL     1       7.856   7.852  17.230  0.00  0.00    +0.000 NA
ATOM     21  N   UNL     1       7.312   6.783  16.664  0.00  0.00    +0.000 NA
ENDBRANCH  16  17
ENDBRANCH   1  16
TORSDOF 4
ENDMDL
MODEL 6
REMARK VINA RESULT:      -8.2      3.509      5.003
REMARK  Name = 
REMARK  4 active torsions:
REMARK  status: ('A' for Active; 'I' for Inactive)
REMARK    1  A    between atoms: C_5  and  C_6
REMARK    2  A    between atoms: C_6  and  C_14
REMARK    3  A    between atoms: C_7  and  C_8
REMARK    4  A    between atoms: C_14  and  N_15
REMARK                            x       y       z     vdW  Elec       q    Type
REMARK                         _______ _______ _______ _____ _____    ______ ____
ROOT
ATOM      1  C   UNL     1       3.116   6.635  18.068  0.00  0.00    +0.000 C 
ATOM      2  C   UNL     1       4.350   6.955  17.621  0.00  0.00    +0.000 C 
ENDROOT
BRANCH   1   7
ATOM      3 CL   UNL     1      -0.366  10.921  20.401  0.00  0.00    +0.000 Cl
ATOM      4  C   UNL     1       0.662   9.707  19.743  0.00  0.00    +0.000 A 
ATOM      5  C   UNL     1       1.017   9.756  18.396  0.00  0.00    +0.000 A 
ATOM      6  C   UNL     1       1.837   8.760  17.860  0.00  0.00    +0.000 A 
ATOM      7  C   UNL     1       2.303   7.714  18.667  0.00  0.00    +0.000 A 
ATOM      8  C   UNL     1       1.955   7.683  20.022  0.00  0.00    +0.000 A 
ATOM      9  C   UNL     1       1.131   8.680  20.560  0.00  0.00    +0.000 A 
ENDBRANCH   1   7
BRANCH   2  10
ATOM     10  C   UNL     1       5.332   6.110  16.912  0.00  0.00    +0.000 A 
ATOM     11  C   UNL     1       6.333   5.383  17.565  0.00  0.00    +0.000 A 
ATOM     12  C   UNL     1       7.205   4.553  16.856  0.00  0.00    +0.000 A 
ATOM     13  C   UNL     1       7.064   4.402  15.482  0.00  0.00    +0.000 A 
ATOM     14  C   UNL     1       6.054   5.090  14.816  0.00  0.00    +0.000 A 
ATOM     15  C   UNL     1       5.195   5.938  15.525  0.00  0.00    +0.000 A 
ENDBRANCH   2  10
BRANCH   1  16
ATOM     16  C   UNL     1       2.390   5.310  17.992  0.00  0.00    +0.000 C 
BRANCH  16  17
ATOM     17  N   UNL     1       3.014   4.205  18.704  0.00  0.00    +0.000 N 
ATOM     18  C   UNL     1       3.060   3.963  20.047  0.00  0.00    +0.000 A 
ATOM     19  C   UNL     1       3.587   2.699  20.136  0.00  0.00    +0.000 A 
ATOM     20  N   UNL     1       3.835   2.218  18.883  0.00  0.00    +0.000 NA
ATOM     21  N   UNL     1       3.470   3.145  18.008  0.00  0.00    +0.000 NA
ENDBRANCH  16  17
ENDBRANCH   1  16
TORSDOF 4
ENDMDL
MODEL 7
REMARK VINA RESULT:      -8.2      1.028      1.561
REMARK  Name = 
REMARK  4 active torsions:
REMARK  status: ('A' for Active; 'I' for Inactive)
REMARK    1  A    between atoms: C_5  and  C_6
REMARK    2  A    between atoms: C_6  and  C_14
REMARK    3  A    between atoms: C_7  and  C_8
REMARK    4  A    between atoms: C_14  and  N_15
REMARK                            x       y       z     vdW  Elec       q    Type
REMARK                         _______ _______ _______ _____ _____    ______ ____
ROOT
ATOM      1  C   UNL     1       4.569   4.766  16.713  0.00  0.00    +0.000 C 
ATOM      2  C   UNL     1       5.002   3.893  15.778  0.00  0.00    +0.000 C 
ENDROOT
BRANCH   1   7
ATOM      3 CL   UNL     1       1.475   2.582  21.360  0.00  0.00    +0.000 Cl
ATOM      4  C   UNL     1       2.392   3.206  20.044  0.00  0.00    +0.000 A 
ATOM      5  C   UNL     1       2.490   4.584  19.859  0.00  0.00    +0.000 A 
ATOM      6  C   UNL     1       3.221   5.088  18.780  0.00  0.00    +0.000 A 
ATOM      7  C   UNL     1       3.855   4.217  17.885  0.00  0.00    +0.000 A 
ATOM      8  C   UNL     1       3.765   2.835  18.088  0.00  0.00    +0.000 A 
ATOM      9  C   UNL     1       3.031   2.330  19.168  0.00  0.00    +0.000 A 
ENDBRANCH   1   7
BRANCH   2  10
ATOM     10  C   UNL     1       5.806   4.150  14.566  0.00  0.00    +0.000 A 
ATOM     11  C   UNL     1       6.989   4.898  14.573  0.00  0.00    +0.000 A 
ATOM     12  C   UNL     1       7.745   5.068  13.410  0.00  0.00    +0.000 A 
ATOM     13  C   UNL     1       7.353   4.456  12.226  0.00  0.00    +0.000 A 
ATOM     14  C   UNL     1       6.198   3.680  12.204  0.00  0.00    +0.000 A 
ATOM     15  C   UNL     1       5.430   3.528  13.364  0.00  0.00    +0.000 A 
ENDBRANCH   2  10
BRANCH   1  16
ATOM     16  C   UNL     1       4.760   6.266  16.777  0.00  0.00    +0.000 C 
BRANCH  16  17
ATOM     17  N   UNL     1       6.015   6.719  17.359  0.00  0.00    +0.000 N 
ATOM     18  C   UNL     1       6.797   6.111  18.298  0.00  0.00    +0.000 A 
ATOM     19  C   UNL     1       7.940   6.871  18.316  0.00  0.00    +0.000 A 
ATOM     20  N   UNL     1       7.829   7.886  17.411  0.00  0.00    +0.000 NA
ATOM     21  N   UNL     1       6.647   7.780  16.818  0.00  0.00    +0.000 NA
ENDBRANCH  16  17
ENDBRANCH   1  16
TORSDOF 4
ENDMDL
MODEL 8
REMARK VINA RESULT:      -8.2      3.841      5.288
REMARK  Name = 
REMARK  4 active torsions:
REMARK  status: ('A' for Active; 'I' for Inactive)
REMARK    1  A    between atoms: C_5  and  C_6
REMARK    2  A    between atoms: C_6  and  C_14
REMARK    3  A    between atoms: C_7  and  C_8
REMARK    4  A    between atoms: C_14  and  N_15
REMARK                            x       y       z     vdW  Elec       q    Type
REMARK                         _______ _______ _______ _____ _____    ______ ____
ROOT
ATOM      1  C   UNL     1       3.353   6.712  18.469  0.00  0.00    +0.000 C 
ATOM      2  C   UNL     1       4.173   6.953  17.423  0.00  0.00    +0.000 C 
ENDROOT
BRANCH   1   7
ATOM      3 CL   UNL     1      -0.520  11.037  19.964  0.00  0.00    +0.000 Cl
ATOM      4  C   UNL     1       0.565   9.776  19.523  0.00  0.00    +0.000 A 
ATOM      5  C   UNL     1       0.989   8.858  20.482  0.00  0.00    +0.000 A 
ATOM      6  C   UNL     1       1.883   7.846  20.126  0.00  0.00    +0.000 A 
ATOM      7  C   UNL     1       2.357   7.749  18.811  0.00  0.00    +0.000 A 
ATOM      8  C   UNL     1       1.914   8.665  17.851  0.00  0.00    +0.000 A 
ATOM      9  C   UNL     1       1.019   9.681  18.208  0.00  0.00    +0.000 A 
ENDBRANCH   1   7
BRANCH   2  10
ATOM     10  C   UNL     1       5.189   6.071  16.814  0.00  0.00    +0.000 A 
ATOM     11  C   UNL     1       5.193   5.728  15.457  0.00  0.00    +0.000 A 
ATOM     12  C   UNL     1       6.208   4.935  14.914  0.00  0.00    +0.000 A 
ATOM     13  C   UNL     1       7.260   4.503  15.712  0.00  0.00    +0.000 A 
ATOM     14  C   UNL     1       7.293   4.859  17.057  0.00  0.00    +0.000 A 
ATOM     15  C   UNL     1       6.265   5.637  17.604  0.00  0.00    +0.000 A 
ENDBRANCH   2  10
BRANCH   1  16
ATOM     16  C   UNL     1       3.253   5.476  19.335  0.00  0.00    +0.000 C 
BRANCH  16  17
ATOM     17  N   UNL     1       2.760   4.277  18.673  0.00  0.00    +0.000 N 
ATOM     18  C   UNL     1       3.445   3.156  18.301  0.00  0.00    +0.000 A 
ATOM     19  C   UNL     1       2.459   2.281  17.916  0.00  0.00    +0.000 A 
ATOM     20  N   UNL     1       1.239   2.873  18.064  0.00  0.00    +0.000 NA
ATOM     21  N   UNL     1       1.431   4.096  18.541  0.00  0.00    +0.000 NA
ENDBRANCH  16  17
ENDBRANCH   1  16
TORSDOF 4
ENDMDL
MODEL 9
REMARK VINA RESULT:      -8.1      3.511      5.066
REMARK  Name = 
REMARK  4 active torsions:
REMARK  status: ('A' for Active; 'I' for Inactive)
REMARK    1  A    between atoms: C_5  and  C_6
REMARK    2  A    between atoms: C_6  and  C_14
REMARK    3  A    between atoms: C_7  and  C_8
REMARK    4  A    between atoms: C_14  and  N_15
REMARK                            x       y       z     vdW  Elec       q    Type
REMARK                         _______ _______ _______ _____ _____    ______ ____
ROOT
ATOM      1  C   UNL     1       3.093   6.587  18.048  0.00  0.00    +0.000 C 
ATOM      2  C   UNL     1       4.330   6.919  17.620  0.00  0.00    +0.000 C 
ENDROOT
BRANCH   1   7
ATOM      3 CL   UNL     1      -0.065  10.997  20.600  0.00  0.00    +0.000 Cl
ATOM      4  C   UNL     1       0.812   9.717  19.856  0.00  0.00    +0.000 A 
ATOM      5  C   UNL     1       1.221   8.623  20.617  0.00  0.00    +0.000 A 
ATOM      6  C   UNL     1       1.948   7.593  20.015  0.00  0.00    +0.000 A 
ATOM      7  C   UNL     1       2.268   7.654  18.652  0.00  0.00    +0.000 A 
ATOM      8  C   UNL     1       1.838   8.748  17.892  0.00  0.00    +0.000 A 
ATOM      9  C   UNL     1       1.111   9.781  18.496  0.00  0.00    +0.000 A 
ENDBRANCH   1   7
BRANCH   2  10
ATOM     10  C   UNL     1       5.325   6.089  16.910  0.00  0.00    +0.000 A 
ATOM     11  C   UNL     1       6.330   5.368  17.565  0.00  0.00    +0.000 A 
ATOM     12  C   UNL     1       7.214   4.551  16.855  0.00  0.00    +0.000 A 
ATOM     13  C   UNL     1       7.083   4.409  15.479  0.00  0.00    +0.000 A 
ATOM     14  C   UNL     1       6.069   5.091  14.811  0.00  0.00    +0.000 A 
ATOM     15  C   UNL     1       5.198   5.925  15.521  0.00  0.00    +0.000 A 
ENDBRANCH   2  10
BRANCH   1  16
ATOM     16  C   UNL     1       2.375   5.259  17.946  0.00  0.00    +0.000 C 
BRANCH  16  17
ATOM     17  N   UNL     1       3.059   4.123  18.544  0.00  0.00    +0.000 N 
ATOM     18  C   UNL     1       3.372   3.898  19.853  0.00  0.00    +0.000 A 
ATOM     19  C   UNL     1       3.818   2.600  19.867  0.00  0.00    +0.000 A 
ATOM     20  N   UNL     1       3.761   2.083  18.606  0.00  0.00    +0.000 NA
ATOM     21  N   UNL     1       3.283   3.021  17.799  0.00  0.00    +0.000 NA
ENDBRANCH  16  17
ENDBRANCH   1  16
TORSDOF 4
ENDMDL
