MODEL 1
REMARK VINA RESULT:      -9.1      0.000      0.000
REMARK  Name = 
REMARK  4 active torsions:
REMARK  status: ('A' for Active; 'I' for Inactive)
REMARK    1  A    between atoms: C_1  and  N_2
REMARK    2  A    between atoms: N_7  and  C_8
REMARK    3  A    between atoms: C_8  and  C_9
REMARK    4  A    between atoms: N_17  and  C_18
REMARK                            x       y       z     vdW  Elec       q    Type
REMARK                         _______ _______ _______ _____ _____    ______ ____
ROOT
ATOM      1  C   UNL     1       2.152   3.341  21.611  0.00  0.00    +0.000 C 
ATOM      2  N   UNL     1       3.174   3.214  20.606  0.00  0.00    +0.000 N 
ATOM      3  C   UNL     1       4.075   2.198  20.456  0.00  0.00    +0.000 A 
ATOM      4  N   UNL     1       4.858   2.389  19.410  0.00  0.00    +0.000 NA
ATOM      5  C   UNL     1       4.414   3.570  18.847  0.00  0.00    +0.000 A 
ATOM      6  C   UNL     1       4.802   4.306  17.711  0.00  0.00    +0.000 A 
ATOM      7  N   UNL     1       5.828   3.883  16.863  0.00  0.00    +0.000 N 
ATOM      8  N   UNL     1       4.095   5.439  17.427  0.00  0.00    +0.000 NA
ATOM      9  C   UNL     1       3.108   5.855  18.249  0.00  0.00    +0.000 A 
ATOM     10  N   UNL     1       2.425   7.007  17.862  0.00  0.00    +0.000 N 
ATOM     11  N   UNL     1       2.711   5.232  19.371  0.00  0.00    +0.000 NA
ATOM     12  C   UNL     1       3.382   4.101  19.593  0.00  0.00    +0.000 A 
ATOM     13  H   UNL     1       6.352   3.117  17.277  0.00  0.00    +0.000 HD
ATOM     14  H   UNL     1       2.684   7.271  16.923  0.00  0.00    +0.000 HD
ENDROOT
BRANCH  10  15
ATOM     15  C   UNL     1       1.926   8.031  18.679  0.00  0.00    +0.000 A 
ATOM     16  C   UNL     1       1.766   7.880  20.065  0.00  0.00    +0.000 A 
ATOM     17  C   UNL     1       1.233   8.907  20.848  0.00  0.00    +0.000 A 
ATOM     18  C   UNL     1       0.832  10.093  20.245  0.00  0.00    +0.000 A 
ATOM     19 CL   UNL     1       0.162  11.355  21.203  0.00  0.00    +0.000 Cl
ATOM     20  C   UNL     1       0.967  10.261  18.869  0.00  0.00    +0.000 A 
ATOM     21  C   UNL     1       1.517   9.235  18.092  0.00  0.00    +0.000 A 
ENDBRANCH  10  15
BRANCH   7  22
ATOM     22  C   UNL     1       6.652   4.930  16.283  0.00  0.00    +0.000 C 
BRANCH  22  23
ATOM     23  C   UNL     1       6.812   4.683  14.799  0.00  0.00    +0.000 A 
ATOM     24  C   UNL     1       5.976   3.755  14.157  0.00  0.00    +0.000 A 
ATOM     25  C   UNL     1       6.082   3.527  12.786  0.00  0.00    +0.000 A 
ATOM     26  C   UNL     1       7.023   4.229  12.036  0.00  0.00    +0.000 A 
ATOM     27  C   UNL     1       7.853   5.161  12.658  0.00  0.00    +0.000 A 
ATOM     28  C   UNL     1       7.749   5.390  14.032  0.00  0.00    +0.000 A 
ENDBRANCH  22  23
ENDBRANCH   7  22
TORSDOF 3
ENDMDL
MODEL 2
REMARK VINA RESULT:      -8.9      0.084      1.340
REMARK  Name = 
REMARK  4 active torsions:
REMARK  status: ('A' for Active; 'I' for Inactive)
REMARK    1  A    between atoms: C_1  and  N_2
REMARK    2  A    between atoms: N_7  and  C_8
REMARK    3  A    between atoms: C_8  and  C_9
REMARK    4  A    between atoms: N_17  and  C_18
REMARK                            x       y       z     vdW  Elec       q    Type
REMARK                         _______ _______ _______ _____ _____    ______ ____
ROOT
ATOM      1  C   UNL     1       2.110   3.331  21.593  0.00  0.00    +0.000 C 
ATOM      2  N   UNL     1       3.144   3.196  20.601  0.00  0.00    +0.000 N 
ATOM      3  C   UNL     1       4.056   2.186  20.478  0.00  0.00    +0.000 A 
ATOM      4  N   UNL     1       4.848   2.366  19.438  0.00  0.00    +0.000 NA
ATOM      5  C   UNL     1       4.400   3.533  18.850  0.00  0.00    +0.000 A 
ATOM      6  C   UNL     1       4.794   4.254  17.706  0.00  0.00    +0.000 A 
ATOM      7  N   UNL     1       5.832   3.825  16.876  0.00  0.00    +0.000 N 
ATOM      8  N   UNL     1       4.080   5.375  17.395  0.00  0.00    +0.000 NA
ATOM      9  C   UNL     1       3.081   5.796  18.199  0.00  0.00    +0.000 A 
ATOM     10  N   UNL     1       2.392   6.935  17.785  0.00  0.00    +0.000 N 
ATOM     11  N   UNL     1       2.677   5.189  19.327  0.00  0.00    +0.000 NA
ATOM     12  C   UNL     1       3.356   4.068  19.576  0.00  0.00    +0.000 A 
ATOM     13  H   UNL     1       6.359   3.071  17.309  0.00  0.00    +0.000 HD
ATOM     14  H   UNL     1       2.659   7.186  16.844  0.00  0.00    +0.000 HD
ENDROOT
BRANCH  10  15
ATOM     15  C   UNL     1       1.875   7.969  18.580  0.00  0.00    +0.000 A 
ATOM     16  C   UNL     1       1.490   9.209  18.048  0.00  0.00    +0.000 A 
ATOM     17  C   UNL     1       1.012  10.232  18.870  0.00  0.00    +0.000 A 
ATOM     18  C   UNL     1       0.934  10.030  20.243  0.00  0.00    +0.000 A 
ATOM     19 CL   UNL     1       0.360  11.291  21.261  0.00  0.00    +0.000 Cl
ATOM     20  C   UNL     1       1.325   8.813  20.796  0.00  0.00    +0.000 A 
ATOM     21  C   UNL     1       1.788   7.786  19.965  0.00  0.00    +0.000 A 
ENDBRANCH  10  15
BRANCH   7  22
ATOM     22  C   UNL     1       6.654   4.870  16.287  0.00  0.00    +0.000 C 
BRANCH  22  23
ATOM     23  C   UNL     1       6.753   4.652  14.793  0.00  0.00    +0.000 A 
ATOM     24  C   UNL     1       7.699   5.375  14.050  0.00  0.00    +0.000 A 
ATOM     25  C   UNL     1       7.831   5.176  12.676  0.00  0.00    +0.000 A 
ATOM     26  C   UNL     1       7.022   4.245  12.028  0.00  0.00    +0.000 A 
ATOM     27  C   UNL     1       6.084   3.513  12.756  0.00  0.00    +0.000 A 
ATOM     28  C   UNL     1       5.949   3.713  14.132  0.00  0.00    +0.000 A 
ENDBRANCH  22  23
ENDBRANCH   7  22
TORSDOF 3
ENDMDL
MODEL 3
REMARK VINA RESULT:      -8.8      3.062      7.961
REMARK  Name = 
REMARK  4 active torsions:
REMARK  status: ('A' for Active; 'I' for Inactive)
REMARK    1  A    between atoms: C_1  and  N_2
REMARK    2  A    between atoms: N_7  and  C_8
REMARK    3  A    between atoms: C_8  and  C_9
REMARK    4  A    between atoms: N_17  and  C_18
REMARK                            x       y       z     vdW  Elec       q    Type
REMARK                         _______ _______ _______ _____ _____    ______ ____
ROOT
ATOM      1  C   UNL     1       2.834   1.325  19.091  0.00  0.00    +0.000 C 
ATOM      2  N   UNL     1       2.319   2.555  19.634  0.00  0.00    +0.000 N 
ATOM      3  C   UNL     1       1.276   2.712  20.502  0.00  0.00    +0.000 A 
ATOM      4  N   UNL     1       1.087   3.981  20.815  0.00  0.00    +0.000 NA
ATOM      5  C   UNL     1       2.078   4.664  20.137  0.00  0.00    +0.000 A 
ATOM      6  C   UNL     1       2.442   6.023  20.065  0.00  0.00    +0.000 A 
ATOM      7  N   UNL     1       1.765   7.014  20.779  0.00  0.00    +0.000 N 
ATOM      8  N   UNL     1       3.530   6.340  19.306  0.00  0.00    +0.000 NA
ATOM      9  C   UNL     1       4.183   5.386  18.608  0.00  0.00    +0.000 A 
ATOM     10  N   UNL     1       5.298   5.802  17.884  0.00  0.00    +0.000 N 
ATOM     11  N   UNL     1       3.869   4.080  18.592  0.00  0.00    +0.000 NA
ATOM     12  C   UNL     1       2.836   3.790  19.384  0.00  0.00    +0.000 A 
ATOM     13  H   UNL     1       0.899   6.654  21.174  0.00  0.00    +0.000 HD
ATOM     14  H   UNL     1       5.539   6.753  18.123  0.00  0.00    +0.000 HD
ENDROOT
BRANCH  10  15
ATOM     15  C   UNL     1       5.733   5.348  16.630  0.00  0.00    +0.000 A 
ATOM     16  C   UNL     1       7.067   5.454  16.210  0.00  0.00    +0.000 A 
ATOM     17  C   UNL     1       7.463   5.026  14.941  0.00  0.00    +0.000 A 
ATOM     18  C   UNL     1       6.517   4.504  14.067  0.00  0.00    +0.000 A 
ATOM     19 CL   UNL     1       6.996   3.987  12.498  0.00  0.00    +0.000 Cl
ATOM     20  C   UNL     1       5.184   4.402  14.456  0.00  0.00    +0.000 A 
ATOM     21  C   UNL     1       4.796   4.818  15.734  0.00  0.00    +0.000 A 
ENDBRANCH  10  15
BRANCH   7  22
ATOM     22  C   UNL     1       1.634   8.302  20.118  0.00  0.00    +0.000 C 
BRANCH  22  23
ATOM     23  C   UNL     1       0.748   9.206  20.947  0.00  0.00    +0.000 A 
ATOM     24  C   UNL     1       0.571   8.939  22.314  0.00  0.00    +0.000 A 
ATOM     25  C   UNL     1      -0.218   9.771  23.108  0.00  0.00    +0.000 A 
ATOM     26  C   UNL     1      -0.836  10.885  22.546  0.00  0.00    +0.000 A 
ATOM     27  C   UNL     1      -0.661  11.169  21.191  0.00  0.00    +0.000 A 
ATOM     28  C   UNL     1       0.128  10.335  20.394  0.00  0.00    +0.000 A 
ENDBRANCH  22  23
ENDBRANCH   7  22
TORSDOF 3
ENDMDL
MODEL 4
REMARK VINA RESULT:      -8.7      3.101      8.076
REMARK  Name = 
REMARK  4 active torsions:
REMARK  status: ('A' for Active; 'I' for Inactive)
REMARK    1  A    between atoms: C_1  and  N_2
REMARK    2  A    between atoms: N_7  and  C_8
REMARK    3  A    between atoms: C_8  and  C_9
REMARK    4  A    between atoms: N_17  and  C_18
REMARK                            x       y       z     vdW  Elec       q    Type
REMARK                         _______ _______ _______ _____ _____    ______ ____
ROOT
ATOM      1  C   UNL     1       2.721   1.599  18.949  0.00  0.00    +0.000 C 
ATOM      2  N   UNL     1       2.188   2.804  19.529  0.00  0.00    +0.000 N 
ATOM      3  C   UNL     1       1.114   2.925  20.363  0.00  0.00    +0.000 A 
ATOM      4  N   UNL     1       0.915   4.178  20.726  0.00  0.00    +0.000 NA
ATOM      5  C   UNL     1       1.932   4.889  20.119  0.00  0.00    +0.000 A 
ATOM      6  C   UNL     1       2.299   6.248  20.123  0.00  0.00    +0.000 A 
ATOM      7  N   UNL     1       1.598   7.208  20.855  0.00  0.00    +0.000 N 
ATOM      8  N   UNL     1       3.416   6.597  19.419  0.00  0.00    +0.000 NA
ATOM      9  C   UNL     1       4.093   5.673  18.704  0.00  0.00    +0.000 A 
ATOM     10  N   UNL     1       5.235   6.119  18.042  0.00  0.00    +0.000 N 
ATOM     11  N   UNL     1       3.778   4.370  18.616  0.00  0.00    +0.000 NA
ATOM     12  C   UNL     1       2.716   4.048  19.355  0.00  0.00    +0.000 A 
ATOM     13  H   UNL     1       0.717   6.833  21.201  0.00  0.00    +0.000 HD
ATOM     14  H   UNL     1       5.468   7.057  18.332  0.00  0.00    +0.000 HD
ENDROOT
BRANCH  10  15
ATOM     15  C   UNL     1       5.716   5.721  16.785  0.00  0.00    +0.000 A 
ATOM     16  C   UNL     1       5.054   6.040  15.590  0.00  0.00    +0.000 A 
ATOM     17  C   UNL     1       5.538   5.600  14.355  0.00  0.00    +0.000 A 
ATOM     18  C   UNL     1       6.684   4.814  14.307  0.00  0.00    +0.000 A 
ATOM     19 CL   UNL     1       7.276   4.258  12.792  0.00  0.00    +0.000 Cl
ATOM     20  C   UNL     1       7.349   4.473  15.482  0.00  0.00    +0.000 A 
ATOM     21  C   UNL     1       6.869   4.930  16.714  0.00  0.00    +0.000 A 
ENDBRANCH  10  15
BRANCH   7  22
ATOM     22  C   UNL     1       1.493   8.525  20.250  0.00  0.00    +0.000 C 
BRANCH  22  23
ATOM     23  C   UNL     1       0.692   9.434  21.155  0.00  0.00    +0.000 A 
ATOM     24  C   UNL     1       0.455  10.763  20.768  0.00  0.00    +0.000 A 
ATOM     25  C   UNL     1      -0.303  11.616  21.569  0.00  0.00    +0.000 A 
ATOM     26  C   UNL     1      -0.840  11.150  22.767  0.00  0.00    +0.000 A 
ATOM     27  C   UNL     1      -0.620   9.829  23.160  0.00  0.00    +0.000 A 
ATOM     28  C   UNL     1       0.140   8.974  22.358  0.00  0.00    +0.000 A 
ENDBRANCH  22  23
ENDBRANCH   7  22
TORSDOF 3
ENDMDL
MODEL 5
REMARK VINA RESULT:      -8.7      1.461      2.658
REMARK  Name = 
REMARK  4 active torsions:
REMARK  status: ('A' for Active; 'I' for Inactive)
REMARK    1  A    between atoms: C_1  and  N_2
REMARK    2  A    between atoms: N_7  and  C_8
REMARK    3  A    between atoms: C_8  and  C_9
REMARK    4  A    between atoms: N_17  and  C_18
REMARK                            x       y       z     vdW  Elec       q    Type
REMARK                         _______ _______ _______ _____ _____    ______ ____
ROOT
ATOM      1  C   UNL     1       2.151   3.441  21.714  0.00  0.00    +0.000 C 
ATOM      2  N   UNL     1       3.090   3.214  20.647  0.00  0.00    +0.000 N 
ATOM      3  C   UNL     1       3.938   2.154  20.492  0.00  0.00    +0.000 A 
ATOM      4  N   UNL     1       4.647   2.252  19.383  0.00  0.00    +0.000 NA
ATOM      5  C   UNL     1       4.207   3.417  18.784  0.00  0.00    +0.000 A 
ATOM      6  C   UNL     1       4.536   4.071  17.581  0.00  0.00    +0.000 A 
ATOM      7  N   UNL     1       5.478   3.558  16.687  0.00  0.00    +0.000 N 
ATOM      8  N   UNL     1       3.853   5.215  17.283  0.00  0.00    +0.000 NA
ATOM      9  C   UNL     1       2.947   5.718  18.148  0.00  0.00    +0.000 A 
ATOM     10  N   UNL     1       2.281   6.874  17.744  0.00  0.00    +0.000 N 
ATOM     11  N   UNL     1       2.613   5.176  19.331  0.00  0.00    +0.000 NA
ATOM     12  C   UNL     1       3.255   4.032  19.571  0.00  0.00    +0.000 A 
ATOM     13  H   UNL     1       6.003   2.794  17.107  0.00  0.00    +0.000 HD
ATOM     14  H   UNL     1       2.479   7.074  16.775  0.00  0.00    +0.000 HD
ENDROOT
BRANCH  10  15
ATOM     15  C   UNL     1       1.885   7.963  18.534  0.00  0.00    +0.000 A 
ATOM     16  C   UNL     1       1.758   7.877  19.928  0.00  0.00    +0.000 A 
ATOM     17  C   UNL     1       1.326   8.970  20.684  0.00  0.00    +0.000 A 
ATOM     18  C   UNL     1       0.995  10.159  20.046  0.00  0.00    +0.000 A 
ATOM     19 CL   UNL     1       0.450  11.503  20.970  0.00  0.00    +0.000 Cl
ATOM     20  C   UNL     1       1.099  10.264  18.661  0.00  0.00    +0.000 A 
ATOM     21  C   UNL     1       1.547   9.171  17.910  0.00  0.00    +0.000 A 
ENDBRANCH  10  15
BRANCH   7  22
ATOM     22  C   UNL     1       6.296   4.535  15.988  0.00  0.00    +0.000 C 
BRANCH  22  23
ATOM     23  C   UNL     1       6.997   5.419  16.994  0.00  0.00    +0.000 A 
ATOM     24  C   UNL     1       7.070   6.803  16.768  0.00  0.00    +0.000 A 
ATOM     25  C   UNL     1       7.686   7.647  17.691  0.00  0.00    +0.000 A 
ATOM     26  C   UNL     1       8.234   7.118  18.857  0.00  0.00    +0.000 A 
ATOM     27  C   UNL     1       8.161   5.746  19.101  0.00  0.00    +0.000 A 
ATOM     28  C   UNL     1       7.544   4.900  18.175  0.00  0.00    +0.000 A 
ENDBRANCH  22  23
ENDBRANCH   7  22
TORSDOF 3
ENDMDL
MODEL 6
REMARK VINA RESULT:      -8.4      3.012      7.921
REMARK  Name = 
REMARK  4 active torsions:
REMARK  status: ('A' for Active; 'I' for Inactive)
REMARK    1  A    between atoms: C_1  and  N_2
REMARK    2  A    between atoms: N_7  and  C_8
REMARK    3  A    between atoms: C_8  and  C_9
REMARK    4  A    between atoms: N_17  and  C_18
REMARK                            x       y       z     vdW  Elec       q    Type
REMARK                         _______ _______ _______ _____ _____    ______ ____
ROOT
ATOM      1  C   UNL     1       4.199   1.498  19.910  0.00  0.00    +0.000 C 
ATOM      2  N   UNL     1       3.464   2.668  20.312  0.00  0.00    +0.000 N 
ATOM      3  C   UNL     1       2.517   2.764  21.293  0.00  0.00    +0.000 A 
ATOM      4  N   UNL     1       2.061   3.996  21.413  0.00  0.00    +0.000 NA
ATOM      5  C   UNL     1       2.774   4.731  20.485  0.00  0.00    +0.000 A 
ATOM      6  C   UNL     1       2.785   6.093  20.131  0.00  0.00    +0.000 A 
ATOM      7  N   UNL     1       1.971   7.035  20.764  0.00  0.00    +0.000 N 
ATOM      8  N   UNL     1       3.671   6.483  19.169  0.00  0.00    +0.000 NA
ATOM      9  C   UNL     1       4.455   5.575  18.549  0.00  0.00    +0.000 A 
ATOM     10  N   UNL     1       5.348   6.071  17.601  0.00  0.00    +0.000 N 
ATOM     11  N   UNL     1       4.469   4.255  18.802  0.00  0.00    +0.000 NA
ATOM     12  C   UNL     1       3.633   3.911  19.782  0.00  0.00    +0.000 A 
ATOM     13  H   UNL     1       1.268   6.581  21.343  0.00  0.00    +0.000 HD
ATOM     14  H   UNL     1       5.374   7.080  17.637  0.00  0.00    +0.000 HD
ENDROOT
BRANCH  10  15
ATOM     15  C   UNL     1       5.737   5.482  16.389  0.00  0.00    +0.000 A 
ATOM     16  C   UNL     1       7.031   5.620  15.865  0.00  0.00    +0.000 A 
ATOM     17  C   UNL     1       7.379   5.052  14.637  0.00  0.00    +0.000 A 
ATOM     18  C   UNL     1       6.423   4.353  13.908  0.00  0.00    +0.000 A 
ATOM     19 CL   UNL     1       6.842   3.663  12.390  0.00  0.00    +0.000 Cl
ATOM     20  C   UNL     1       5.128   4.216  14.402  0.00  0.00    +0.000 A 
ATOM     21  C   UNL     1       4.790   4.774  15.639  0.00  0.00    +0.000 A 
ENDBRANCH  10  15
BRANCH   7  22
ATOM     22  C   UNL     1       1.457   8.104  19.925  0.00  0.00    +0.000 C 
BRANCH  22  23
ATOM     23  C   UNL     1       0.727   9.113  20.783  0.00  0.00    +0.000 A 
ATOM     24  C   UNL     1       0.333  10.341  20.227  0.00  0.00    +0.000 A 
ATOM     25  C   UNL     1      -0.364  11.279  20.987  0.00  0.00    +0.000 A 
ATOM     26  C   UNL     1      -0.684  10.999  22.313  0.00  0.00    +0.000 A 
ATOM     27  C   UNL     1      -0.309   9.779  22.877  0.00  0.00    +0.000 A 
ATOM     28  C   UNL     1       0.392   8.839  22.117  0.00  0.00    +0.000 A 
ENDBRANCH  22  23
ENDBRANCH   7  22
TORSDOF 3
ENDMDL
MODEL 7
REMARK VINA RESULT:      -8.1      3.177      7.844
REMARK  Name = 
REMARK  4 active torsions:
REMARK  status: ('A' for Active; 'I' for Inactive)
REMARK    1  A    between atoms: C_1  and  N_2
REMARK    2  A    between atoms: N_7  and  C_8
REMARK    3  A    between atoms: C_8  and  C_9
REMARK    4  A    between atoms: N_17  and  C_18
REMARK                            x       y       z     vdW  Elec       q    Type
REMARK                         _______ _______ _______ _____ _____    ______ ____
ROOT
ATOM      1  C   UNL     1       4.004   2.217  19.259  0.00  0.00    +0.000 C 
ATOM      2  N   UNL     1       3.357   3.492  19.418  0.00  0.00    +0.000 N 
ATOM      3  C   UNL     1       2.411   3.840  20.340  0.00  0.00    +0.000 A 
ATOM      4  N   UNL     1       2.049   5.103  20.218  0.00  0.00    +0.000 NA
ATOM      5  C   UNL     1       2.826   5.596  19.186  0.00  0.00    +0.000 A 
ATOM      6  C   UNL     1       2.944   6.863  18.584  0.00  0.00    +0.000 A 
ATOM      7  N   UNL     1       2.199   7.964  19.010  0.00  0.00    +0.000 N 
ATOM      8  N   UNL     1       3.867   6.998  17.588  0.00  0.00    +0.000 NA
ATOM      9  C   UNL     1       4.585   5.935  17.168  0.00  0.00    +0.000 A 
ATOM     10  N   UNL     1       5.522   6.178  16.165  0.00  0.00    +0.000 N 
ATOM     11  N   UNL     1       4.496   4.689  17.662  0.00  0.00    +0.000 NA
ATOM     12  C   UNL     1       3.626   4.598  18.669  0.00  0.00    +0.000 A 
ATOM     13  H   UNL     1       1.458   7.679  19.647  0.00  0.00    +0.000 HD
ATOM     14  H   UNL     1       5.625   7.170  16.012  0.00  0.00    +0.000 HD
ENDROOT
BRANCH  10  15
ATOM     15  C   UNL     1       5.877   5.345  15.094  0.00  0.00    +0.000 A 
ATOM     16  C   UNL     1       7.155   5.362  14.516  0.00  0.00    +0.000 A 
ATOM     17  C   UNL     1       7.469   4.545  13.427  0.00  0.00    +0.000 A 
ATOM     18  C   UNL     1       6.493   3.715  12.888  0.00  0.00    +0.000 A 
ATOM     19 CL   UNL     1       6.869   2.718  11.539  0.00  0.00    +0.000 Cl
ATOM     20  C   UNL     1       5.212   3.691  13.435  0.00  0.00    +0.000 A 
ATOM     21  C   UNL     1       4.910   4.500  14.537  0.00  0.00    +0.000 A 
ENDBRANCH  10  15
BRANCH   7  22
ATOM     22  C   UNL     1       1.776   8.891  17.974  0.00  0.00    +0.000 C 
BRANCH  22  23
ATOM     23  C   UNL     1       0.654   9.759  18.501  0.00  0.00    +0.000 A 
ATOM     24  C   UNL     1      -0.539   9.867  17.769  0.00  0.00    +0.000 A 
ATOM     25  C   UNL     1      -1.600  10.638  18.243  0.00  0.00    +0.000 A 
ATOM     26  C   UNL     1      -1.484  11.307  19.459  0.00  0.00    +0.000 A 
ATOM     27  C   UNL     1      -0.308  11.201  20.201  0.00  0.00    +0.000 A 
ATOM     28  C   UNL     1       0.757  10.430  19.727  0.00  0.00    +0.000 A 
ENDBRANCH  22  23
ENDBRANCH   7  22
TORSDOF 3
ENDMDL
MODEL 8
REMARK VINA RESULT:      -8.1      3.217      7.881
REMARK  Name = 
REMARK  4 active torsions:
REMARK  status: ('A' for Active; 'I' for Inactive)
REMARK    1  A    between atoms: C_1  and  N_2
REMARK    2  A    between atoms: N_7  and  C_8
REMARK    3  A    between atoms: C_8  and  C_9
REMARK    4  A    between atoms: N_17  and  C_18
REMARK                            x       y       z     vdW  Elec       q    Type
REMARK                         _______ _______ _______ _____ _____    ______ ____
ROOT
ATOM      1  C   UNL     1       3.381   1.830  18.565  0.00  0.00    +0.000 C 
ATOM      2  N   UNL     1       2.867   3.143  18.854  0.00  0.00    +0.000 N 
ATOM      3  C   UNL     1       1.903   3.482  19.760  0.00  0.00    +0.000 A 
ATOM      4  N   UNL     1       1.690   4.784  19.785  0.00  0.00    +0.000 NA
ATOM      5  C   UNL     1       2.585   5.306  18.871  0.00  0.00    +0.000 A 
ATOM      6  C   UNL     1       2.883   6.616  18.448  0.00  0.00    +0.000 A 
ATOM      7  N   UNL     1       2.234   7.735  18.973  0.00  0.00    +0.000 N 
ATOM      8  N   UNL     1       3.883   6.765  17.531  0.00  0.00    +0.000 NA
ATOM      9  C   UNL     1       4.508   5.686  17.015  0.00  0.00    +0.000 A 
ATOM     10  N   UNL     1       5.534   5.939  16.106  0.00  0.00    +0.000 N 
ATOM     11  N   UNL     1       4.249   4.407  17.336  0.00  0.00    +0.000 NA
ATOM     12  C   UNL     1       3.306   4.294  18.272  0.00  0.00    +0.000 A 
ATOM     13  H   UNL     1       1.424   7.462  19.525  0.00  0.00    +0.000 HD
ATOM     14  H   UNL     1       5.755   6.924  16.091  0.00  0.00    +0.000 HD
ENDROOT
BRANCH  10  15
ATOM     15  C   UNL     1       5.870   5.210  14.956  0.00  0.00    +0.000 A 
ATOM     16  C   UNL     1       4.976   4.324  14.337  0.00  0.00    +0.000 A 
ATOM     17  C   UNL     1       5.351   3.584  13.213  0.00  0.00    +0.000 A 
ATOM     18  C   UNL     1       6.640   3.709  12.708  0.00  0.00    +0.000 A 
ATOM     19 CL   UNL     1       7.112   2.791  11.333  0.00  0.00    +0.000 Cl
ATOM     20  C   UNL     1       7.550   4.572  13.314  0.00  0.00    +0.000 A 
ATOM     21  C   UNL     1       7.162   5.322  14.430  0.00  0.00    +0.000 A 
ENDBRANCH  10  15
BRANCH   7  22
ATOM     22  C   UNL     1       1.988   8.827  18.046  0.00  0.00    +0.000 C 
BRANCH  22  23
ATOM     23  C   UNL     1       0.815   9.649  18.533  0.00  0.00    +0.000 A 
ATOM     24  C   UNL     1       0.915  10.347  19.747  0.00  0.00    +0.000 A 
ATOM     25  C   UNL     1      -0.139  11.134  20.208  0.00  0.00    +0.000 A 
ATOM     26  C   UNL     1      -1.307  11.238  19.457  0.00  0.00    +0.000 A 
ATOM     27  C   UNL     1      -1.418  10.558  18.244  0.00  0.00    +0.000 A 
ATOM     28  C   UNL     1      -0.362   9.768  17.782  0.00  0.00    +0.000 A 
ENDBRANCH  22  23
ENDBRANCH   7  22
TORSDOF 3
ENDMDL
MODEL 9
REMARK VINA RESULT:      -7.9      3.066      7.848
REMARK  Name = 
REMARK  4 active torsions:
REMARK  status: ('A' for Active; 'I' for Inactive)
REMARK    1  A    between atoms: C_1  and  N_2
REMARK    2  A    between atoms: N_7  and  C_8
REMARK    3  A    between atoms: C_8  and  C_9
REMARK    4  A    between atoms: N_17  and  C_18
REMARK                            x       y       z     vdW  Elec       q    Type
REMARK                         _______ _______ _______ _____ _____    ______ ____
ROOT
ATOM      1  C   UNL     1       3.912   1.912  19.472  0.00  0.00    +0.000 C 
ATOM      2  N   UNL     1       3.267   3.172  19.732  0.00  0.00    +0.000 N 
ATOM      3  C   UNL     1       2.317   3.445  20.676  0.00  0.00    +0.000 A 
ATOM      4  N   UNL     1       1.958   4.715  20.655  0.00  0.00    +0.000 NA
ATOM      5  C   UNL     1       2.740   5.288  19.670  0.00  0.00    +0.000 A 
ATOM      6  C   UNL     1       2.863   6.600  19.174  0.00  0.00    +0.000 A 
ATOM      7  N   UNL     1       2.117   7.664  19.686  0.00  0.00    +0.000 N 
ATOM      8  N   UNL     1       3.790   6.815  18.196  0.00  0.00    +0.000 NA
ATOM      9  C   UNL     1       4.508   5.788  17.693  0.00  0.00    +0.000 A 
ATOM     10  N   UNL     1       5.450   6.110  16.718  0.00  0.00    +0.000 N 
ATOM     11  N   UNL     1       4.415   4.506  18.084  0.00  0.00    +0.000 NA
ATOM     12  C   UNL     1       3.540   4.335  19.077  0.00  0.00    +0.000 A 
ATOM     13  H   UNL     1       1.373   7.330  20.294  0.00  0.00    +0.000 HD
ATOM     14  H   UNL     1       5.555   7.111  16.647  0.00  0.00    +0.000 HD
ENDROOT
BRANCH  10  15
ATOM     15  C   UNL     1       5.808   5.366  15.584  0.00  0.00    +0.000 A 
ATOM     16  C   UNL     1       7.101   5.395  15.040  0.00  0.00    +0.000 A 
ATOM     17  C   UNL     1       7.418   4.671  13.888  0.00  0.00    +0.000 A 
ATOM     18  C   UNL     1       6.433   3.924  13.254  0.00  0.00    +0.000 A 
ATOM     19 CL   UNL     1       6.814   3.042  11.828  0.00  0.00    +0.000 Cl
ATOM     20  C   UNL     1       5.138   3.891  13.767  0.00  0.00    +0.000 A 
ATOM     21  C   UNL     1       4.831   4.606  14.930  0.00  0.00    +0.000 A 
ENDBRANCH  10  15
BRANCH   7  22
ATOM     22  C   UNL     1       1.701   8.674  18.727  0.00  0.00    +0.000 C 
BRANCH  22  23
ATOM     23  C   UNL     1       0.794   9.675  19.410  0.00  0.00    +0.000 A 
ATOM     24  C   UNL     1       0.425   9.474  20.749  0.00  0.00    +0.000 A 
ATOM     25  C   UNL     1      -0.387  10.393  21.412  0.00  0.00    +0.000 A 
ATOM     26  C   UNL     1      -0.836  11.530  20.745  0.00  0.00    +0.000 A 
ATOM     27  C   UNL     1      -0.470  11.748  19.417  0.00  0.00    +0.000 A 
ATOM     28  C   UNL     1       0.343  10.827  18.751  0.00  0.00    +0.000 A 
ENDBRANCH  22  23
ENDBRANCH   7  22
TORSDOF 3
ENDMDL
