MODEL 1
REMARK VINA RESULT:      -6.7      0.000      0.000
REMARK  Name = 
REMARK  6 active torsions:
REMARK  status: ('A' for Active; 'I' for Inactive)
REMARK    1  A    between atoms: C_2  and  C_3
REMARK    2  A    between atoms: C_3  and  C_4
REMARK    3  A    between atoms: C_5  and  C_6
REMARK    4  A    between atoms: C_9  and  O_10
REMARK    5  A    between atoms: O_10  and  C_11
REMARK    6  A    between atoms: C_16  and  S_17
REMARK                            x       y       z     vdW  Elec       q    Type
REMARK                         _______ _______ _______ _____ _____    ______ ____
ROOT
ATOM      1  C   UNL     1       2.580   4.752  18.739  0.00  0.00    +0.000 A 
ATOM      2  C   UNL     1       3.052   6.064  18.785  0.00  0.00    +0.000 A 
ATOM      3  C   UNL     1       2.400   7.177  19.556  0.00  0.00    +0.000 C 
ATOM      4  N   UNL     1       4.160   6.463  18.118  0.00  0.00    +0.000 NA
ATOM      5  C   UNL     1       4.836   5.622  17.316  0.00  0.00    +0.000 A 
ATOM      6  C   UNL     1       5.975   6.091  16.627  0.00  0.00    +0.000 A 
ATOM      7  C   UNL     1       6.670   5.283  15.724  0.00  0.00    +0.000 A 
ATOM      8  C   UNL     1       6.271   3.975  15.530  0.00  0.00    +0.000 A 
ATOM      9  C   UNL     1       5.176   3.480  16.236  0.00  0.00    +0.000 A 
ATOM     10  C   UNL     1       4.427   4.282  17.145  0.00  0.00    +0.000 A 
ATOM     11  C   UNL     1       3.283   3.848  17.897  0.00  0.00    +0.000 A 
ENDROOT
BRANCH   6  12
ATOM     12  O   UNL     1       6.340   7.406  16.843  0.00  0.00    +0.000 OA
ATOM     13  C   UNL     1       7.566   7.595  17.542  0.00  0.00    +0.000 C 
ENDBRANCH   6  12
BRANCH  11  14
ATOM     14  S   UNL     1       2.669   2.137  17.804  0.00  0.00    +0.000 S 
ATOM     15  H   UNL     1       2.117   2.001  19.009  0.00  0.00    +0.000 HD
ENDBRANCH  11  14
BRANCH   1  16
ATOM     16  C   UNL     1       1.340   4.349  19.517  0.00  0.00    +0.000 C 
BRANCH  16  18
ATOM     17  C   UNL     1       1.537   2.744  21.454  0.00  0.00    +0.000 C 
ATOM     18  C   UNL     1       1.646   3.980  20.944  0.00  0.00    +0.000 C 
ENDBRANCH  16  18
ENDBRANCH   1  16
TORSDOF 4
ENDMDL
MODEL 2
REMARK VINA RESULT:      -6.4      1.992      3.038
REMARK  Name = 
REMARK  6 active torsions:
REMARK  status: ('A' for Active; 'I' for Inactive)
REMARK    1  A    between atoms: C_2  and  C_3
REMARK    2  A    between atoms: C_3  and  C_4
REMARK    3  A    between atoms: C_5  and  C_6
REMARK    4  A    between atoms: C_9  and  O_10
REMARK    5  A    between atoms: O_10  and  C_11
REMARK    6  A    between atoms: C_16  and  S_17
REMARK                            x       y       z     vdW  Elec       q    Type
REMARK                         _______ _______ _______ _____ _____    ______ ____
ROOT
ATOM      1  C   UNL     1       2.330   4.276  18.745  0.00  0.00    +0.000 A 
ATOM      2  C   UNL     1       2.856   3.233  17.982  0.00  0.00    +0.000 A 
ATOM      3  C   UNL     1       2.343   1.821  18.001  0.00  0.00    +0.000 C 
ATOM      4  N   UNL     1       3.906   3.401  17.144  0.00  0.00    +0.000 NA
ATOM      5  C   UNL     1       4.544   4.581  17.048  0.00  0.00    +0.000 A 
ATOM      6  C   UNL     1       5.645   4.701  16.173  0.00  0.00    +0.000 A 
ATOM      7  C   UNL     1       6.390   5.880  16.090  0.00  0.00    +0.000 A 
ATOM      8  C   UNL     1       6.019   6.978  16.842  0.00  0.00    +0.000 A 
ATOM      9  C   UNL     1       4.907   6.892  17.677  0.00  0.00    +0.000 A 
ATOM     10  C   UNL     1       4.139   5.699  17.808  0.00  0.00    +0.000 A 
ATOM     11  C   UNL     1       2.991   5.531  18.655  0.00  0.00    +0.000 A 
ENDROOT
BRANCH   6  12
ATOM     12  O   UNL     1       5.989   3.580  15.442  0.00  0.00    +0.000 OA
ATOM     13  C   UNL     1       6.240   3.804  14.058  0.00  0.00    +0.000 C 
ENDBRANCH   6  12
BRANCH  11  14
ATOM     14  S   UNL     1       2.335   6.900  19.660  0.00  0.00    +0.000 S 
ATOM     15  H   UNL     1       1.949   7.749  18.707  0.00  0.00    +0.000 HD
ENDBRANCH  11  14
BRANCH   1  16
ATOM     16  C   UNL     1       1.142   4.041  19.660  0.00  0.00    +0.000 C 
BRANCH  16  18
ATOM     17  C   UNL     1       2.010   2.646  21.574  0.00  0.00    +0.000 C 
ATOM     18  C   UNL     1       1.550   3.809  21.091  0.00  0.00    +0.000 C 
ENDBRANCH  16  18
ENDBRANCH   1  16
TORSDOF 4
ENDMDL
MODEL 3
REMARK VINA RESULT:      -6.2      2.215      3.263
REMARK  Name = 
REMARK  6 active torsions:
REMARK  status: ('A' for Active; 'I' for Inactive)
REMARK    1  A    between atoms: C_2  and  C_3
REMARK    2  A    between atoms: C_3  and  C_4
REMARK    3  A    between atoms: C_5  and  C_6
REMARK    4  A    between atoms: C_9  and  O_10
REMARK    5  A    between atoms: O_10  and  C_11
REMARK    6  A    between atoms: C_16  and  S_17
REMARK                            x       y       z     vdW  Elec       q    Type
REMARK                         _______ _______ _______ _____ _____    ______ ____
ROOT
ATOM      1  C   UNL     1       3.144   3.658  19.218  0.00  0.00    +0.000 A 
ATOM      2  C   UNL     1       3.793   2.717  18.418  0.00  0.00    +0.000 A 
ATOM      3  C   UNL     1       3.833   1.242  18.701  0.00  0.00    +0.000 C 
ATOM      4  N   UNL     1       4.468   3.057  17.295  0.00  0.00    +0.000 NA
ATOM      5  C   UNL     1       4.602   4.342  16.921  0.00  0.00    +0.000 A 
ATOM      6  C   UNL     1       5.331   4.647  15.750  0.00  0.00    +0.000 A 
ATOM      7  C   UNL     1       5.566   5.966  15.357  0.00  0.00    +0.000 A 
ATOM      8  C   UNL     1       5.035   7.005  16.096  0.00  0.00    +0.000 A 
ATOM      9  C   UNL     1       4.274   6.722  17.229  0.00  0.00    +0.000 A 
ATOM     10  C   UNL     1       4.035   5.391  17.676  0.00  0.00    +0.000 A 
ATOM     11  C   UNL     1       3.274   5.022  18.837  0.00  0.00    +0.000 A 
ENDROOT
BRANCH   6  12
ATOM     12  O   UNL     1       5.851   3.581  15.041  0.00  0.00    +0.000 OA
ATOM     13  C   UNL     1       6.201   3.857  13.689  0.00  0.00    +0.000 C 
ENDBRANCH   6  12
BRANCH  11  14
ATOM     14  S   UNL     1       2.455   6.268  19.880  0.00  0.00    +0.000 S 
ATOM     15  H   UNL     1       3.054   6.049  21.051  0.00  0.00    +0.000 HD
ENDBRANCH  11  14
BRANCH   1  16
ATOM     16  C   UNL     1       2.388   3.226  20.462  0.00  0.00    +0.000 C 
BRANCH  16  18
ATOM     17  C   UNL     1       0.410   2.640  19.009  0.00  0.00    +0.000 C 
ATOM     18  C   UNL     1       0.924   2.991  20.196  0.00  0.00    +0.000 C 
ENDBRANCH  16  18
ENDBRANCH   1  16
TORSDOF 4
ENDMDL
MODEL 4
REMARK VINA RESULT:      -6.1      2.785      5.403
REMARK  Name = 
REMARK  6 active torsions:
REMARK  status: ('A' for Active; 'I' for Inactive)
REMARK    1  A    between atoms: C_2  and  C_3
REMARK    2  A    between atoms: C_3  and  C_4
REMARK    3  A    between atoms: C_5  and  C_6
REMARK    4  A    between atoms: C_9  and  O_10
REMARK    5  A    between atoms: O_10  and  C_11
REMARK    6  A    between atoms: C_16  and  S_17
REMARK                            x       y       z     vdW  Elec       q    Type
REMARK                         _______ _______ _______ _____ _____    ______ ____
ROOT
ATOM      1  C   UNL     1       6.461   5.526  17.642  0.00  0.00    +0.000 A 
ATOM      2  C   UNL     1       6.531   5.097  18.968  0.00  0.00    +0.000 A 
ATOM      3  C   UNL     1       7.626   5.470  19.927  0.00  0.00    +0.000 C 
ATOM      4  N   UNL     1       5.602   4.281  19.520  0.00  0.00    +0.000 NA
ATOM      5  C   UNL     1       4.585   3.785  18.793  0.00  0.00    +0.000 A 
ATOM      6  C   UNL     1       3.652   2.924  19.410  0.00  0.00    +0.000 A 
ATOM      7  C   UNL     1       2.622   2.320  18.686  0.00  0.00    +0.000 A 
ATOM      8  C   UNL     1       2.473   2.605  17.342  0.00  0.00    +0.000 A 
ATOM      9  C   UNL     1       3.357   3.489  16.727  0.00  0.00    +0.000 A 
ATOM     10  C   UNL     1       4.435   4.103  17.426  0.00  0.00    +0.000 A 
ATOM     11  C   UNL     1       5.391   5.012  16.859  0.00  0.00    +0.000 A 
ENDROOT
BRANCH   6  12
ATOM     12  O   UNL     1       3.838   2.659  20.753  0.00  0.00    +0.000 OA
ATOM     13  C   UNL     1       2.664   2.713  21.557  0.00  0.00    +0.000 C 
ENDBRANCH   6  12
BRANCH  11  14
ATOM     14  S   UNL     1       5.295   5.539  15.119  0.00  0.00    +0.000 S 
ATOM     15  H   UNL     1       4.361   4.709  14.656  0.00  0.00    +0.000 HD
ENDBRANCH  11  14
BRANCH   1  16
ATOM     16  C   UNL     1       7.520   6.453  17.072  0.00  0.00    +0.000 C 
BRANCH  16  18
ATOM     17  C   UNL     1       8.198   8.725  17.934  0.00  0.00    +0.000 C 
ATOM     18  C   UNL     1       7.275   7.896  17.425  0.00  0.00    +0.000 C 
ENDBRANCH  16  18
ENDBRANCH   1  16
TORSDOF 4
ENDMDL
MODEL 5
REMARK VINA RESULT:      -6.0      3.152      4.841
REMARK  Name = 
REMARK  6 active torsions:
REMARK  status: ('A' for Active; 'I' for Inactive)
REMARK    1  A    between atoms: C_2  and  C_3
REMARK    2  A    between atoms: C_3  and  C_4
REMARK    3  A    between atoms: C_5  and  C_6
REMARK    4  A    between atoms: C_9  and  O_10
REMARK    5  A    between atoms: O_10  and  C_11
REMARK    6  A    between atoms: C_16  and  S_17
REMARK                            x       y       z     vdW  Elec       q    Type
REMARK                         _______ _______ _______ _____ _____    ______ ____
ROOT
ATOM      1  C   UNL     1       3.459   4.363  19.458  0.00  0.00    +0.000 A 
ATOM      2  C   UNL     1       2.601   4.620  20.529  0.00  0.00    +0.000 A 
ATOM      3  C   UNL     1       2.243   3.620  21.591  0.00  0.00    +0.000 C 
ATOM      4  N   UNL     1       1.995   5.818  20.705  0.00  0.00    +0.000 NA
ATOM      5  C   UNL     1       2.140   6.814  19.814  0.00  0.00    +0.000 A 
ATOM      6  C   UNL     1       1.473   8.039  20.034  0.00  0.00    +0.000 A 
ATOM      7  C   UNL     1       1.526   9.080  19.104  0.00  0.00    +0.000 A 
ATOM      8  C   UNL     1       2.289   8.937  17.960  0.00  0.00    +0.000 A 
ATOM      9  C   UNL     1       2.991   7.752  17.749  0.00  0.00    +0.000 A 
ATOM     10  C   UNL     1       2.940   6.660  18.661  0.00  0.00    +0.000 A 
ATOM     11  C   UNL     1       3.624   5.406  18.506  0.00  0.00    +0.000 A 
ENDROOT
BRANCH   6  12
ATOM     12  O   UNL     1       0.716   8.141  21.185  0.00  0.00    +0.000 OA
ATOM     13  C   UNL     1      -0.016   9.354  21.332  0.00  0.00    +0.000 C 
ENDBRANCH   6  12
BRANCH  11  14
ATOM     14  S   UNL     1       4.719   5.083  17.089  0.00  0.00    +0.000 S 
ATOM     15  H   UNL     1       5.314   3.957  17.481  0.00  0.00    +0.000 HD
ENDBRANCH  11  14
BRANCH   1  16
ATOM     16  C   UNL     1       4.126   3.008  19.310  0.00  0.00    +0.000 C 
BRANCH  16  18
ATOM     17  C   UNL     1       2.323   2.235  17.724  0.00  0.00    +0.000 C 
ATOM     18  C   UNL     1       3.218   1.980  18.689  0.00  0.00    +0.000 C 
ENDBRANCH  16  18
ENDBRANCH   1  16
TORSDOF 4
ENDMDL
MODEL 6
REMARK VINA RESULT:      -6.0      2.118      2.793
REMARK  Name = 
REMARK  6 active torsions:
REMARK  status: ('A' for Active; 'I' for Inactive)
REMARK    1  A    between atoms: C_2  and  C_3
REMARK    2  A    between atoms: C_3  and  C_4
REMARK    3  A    between atoms: C_5  and  C_6
REMARK    4  A    between atoms: C_9  and  O_10
REMARK    5  A    between atoms: O_10  and  C_11
REMARK    6  A    between atoms: C_16  and  S_17
REMARK                            x       y       z     vdW  Elec       q    Type
REMARK                         _______ _______ _______ _____ _____    ______ ____
ROOT
ATOM      1  C   UNL     1       3.184   3.054  19.090  0.00  0.00    +0.000 A 
ATOM      2  C   UNL     1       4.450   2.796  19.618  0.00  0.00    +0.000 A 
ATOM      3  C   UNL     1       4.754   1.708  20.608  0.00  0.00    +0.000 C 
ATOM      4  N   UNL     1       5.540   3.527  19.285  0.00  0.00    +0.000 NA
ATOM      5  C   UNL     1       5.447   4.590  18.467  0.00  0.00    +0.000 A 
ATOM      6  C   UNL     1       6.611   5.330  18.164  0.00  0.00    +0.000 A 
ATOM      7  C   UNL     1       6.560   6.486  17.381  0.00  0.00    +0.000 A 
ATOM      8  C   UNL     1       5.355   6.897  16.845  0.00  0.00    +0.000 A 
ATOM      9  C   UNL     1       4.204   6.152  17.095  0.00  0.00    +0.000 A 
ATOM     10  C   UNL     1       4.212   4.984  17.909  0.00  0.00    +0.000 A 
ATOM     11  C   UNL     1       3.067   4.174  18.222  0.00  0.00    +0.000 A 
ENDROOT
BRANCH   6  12
ATOM     12  O   UNL     1       7.795   4.892  18.723  0.00  0.00    +0.000 OA
ATOM     13  C   UNL     1       8.269   5.652  19.831  0.00  0.00    +0.000 C 
ENDBRANCH   6  12
BRANCH  11  14
ATOM     14  S   UNL     1       1.420   4.541  17.542  0.00  0.00    +0.000 S 
ATOM     15  H   UNL     1       1.347   5.855  17.755  0.00  0.00    +0.000 HD
ENDBRANCH  11  14
BRANCH   1  16
ATOM     16  C   UNL     1       1.994   2.197  19.484  0.00  0.00    +0.000 C 
BRANCH  16  18
ATOM     17  C   UNL     1       1.510   2.760  21.896  0.00  0.00    +0.000 C 
ATOM     18  C   UNL     1       1.183   2.809  20.597  0.00  0.00    +0.000 C 
ENDBRANCH  16  18
ENDBRANCH   1  16
TORSDOF 4
ENDMDL
MODEL 7
REMARK VINA RESULT:      -5.7      2.740      5.660
REMARK  Name = 
REMARK  6 active torsions:
REMARK  status: ('A' for Active; 'I' for Inactive)
REMARK    1  A    between atoms: C_2  and  C_3
REMARK    2  A    between atoms: C_3  and  C_4
REMARK    3  A    between atoms: C_5  and  C_6
REMARK    4  A    between atoms: C_9  and  O_10
REMARK    5  A    between atoms: O_10  and  C_11
REMARK    6  A    between atoms: C_16  and  S_17
REMARK                            x       y       z     vdW  Elec       q    Type
REMARK                         _______ _______ _______ _____ _____    ______ ____
ROOT
ATOM      1  C   UNL     1       5.569   5.996  17.796  0.00  0.00    +0.000 A 
ATOM      2  C   UNL     1       6.275   4.818  18.045  0.00  0.00    +0.000 A 
ATOM      3  C   UNL     1       7.682   4.555  17.587  0.00  0.00    +0.000 C 
ATOM      4  N   UNL     1       5.740   3.780  18.729  0.00  0.00    +0.000 NA
ATOM      5  C   UNL     1       4.465   3.804  19.155  0.00  0.00    +0.000 A 
ATOM      6  C   UNL     1       3.948   2.689  19.850  0.00  0.00    +0.000 A 
ATOM      7  C   UNL     1       2.611   2.630  20.248  0.00  0.00    +0.000 A 
ATOM      8  C   UNL     1       1.777   3.704  20.006  0.00  0.00    +0.000 A 
ATOM      9  C   UNL     1       2.282   4.833  19.364  0.00  0.00    +0.000 A 
ATOM     10  C   UNL     1       3.632   4.919  18.919  0.00  0.00    +0.000 A 
ATOM     11  C   UNL     1       4.220   6.040  18.240  0.00  0.00    +0.000 A 
ENDROOT
BRANCH   6  12
ATOM     12  O   UNL     1       4.811   1.632  20.067  0.00  0.00    +0.000 OA
ATOM     13  C   UNL     1       5.046   1.303  21.433  0.00  0.00    +0.000 C 
ENDBRANCH   6  12
BRANCH  11  14
ATOM     14  S   UNL     1       3.274   7.558  17.904  0.00  0.00    +0.000 S 
ATOM     15  H   UNL     1       2.089   7.237  18.423  0.00  0.00    +0.000 HD
ENDBRANCH  11  14
BRANCH   1  16
ATOM     16  C   UNL     1       6.218   7.139  17.035  0.00  0.00    +0.000 C 
BRANCH  16  18
ATOM     17  C   UNL     1       7.932   8.846  17.753  0.00  0.00    +0.000 C 
ATOM     18  C   UNL     1       7.525   7.573  17.646  0.00  0.00    +0.000 C 
ENDBRANCH  16  18
ENDBRANCH   1  16
TORSDOF 4
ENDMDL
MODEL 8
REMARK VINA RESULT:      -5.7      1.636      5.096
REMARK  Name = 
REMARK  6 active torsions:
REMARK  status: ('A' for Active; 'I' for Inactive)
REMARK    1  A    between atoms: C_2  and  C_3
REMARK    2  A    between atoms: C_3  and  C_4
REMARK    3  A    between atoms: C_5  and  C_6
REMARK    4  A    between atoms: C_9  and  O_10
REMARK    5  A    between atoms: O_10  and  C_11
REMARK    6  A    between atoms: C_16  and  S_17
REMARK                            x       y       z     vdW  Elec       q    Type
REMARK                         _______ _______ _______ _____ _____    ______ ____
ROOT
ATOM      1  C   UNL     1       4.752   4.485  17.191  0.00  0.00    +0.000 A 
ATOM      2  C   UNL     1       4.738   5.856  17.449  0.00  0.00    +0.000 A 
ATOM      3  C   UNL     1       5.681   6.849  16.828  0.00  0.00    +0.000 C 
ATOM      4  N   UNL     1       3.861   6.428  18.307  0.00  0.00    +0.000 NA
ATOM      5  C   UNL     1       2.987   5.687  19.011  0.00  0.00    +0.000 A 
ATOM      6  C   UNL     1       2.104   6.328  19.907  0.00  0.00    +0.000 A 
ATOM      7  C   UNL     1       1.229   5.603  20.719  0.00  0.00    +0.000 A 
ATOM      8  C   UNL     1       1.183   4.226  20.615  0.00  0.00    +0.000 A 
ATOM      9  C   UNL     1       2.015   3.579  19.703  0.00  0.00    +0.000 A 
ATOM     10  C   UNL     1       2.938   4.283  18.878  0.00  0.00    +0.000 A 
ATOM     11  C   UNL     1       3.834   3.686  17.927  0.00  0.00    +0.000 A 
ENDROOT
BRANCH   6  12
ATOM     12  O   UNL     1       2.184   7.705  19.987  0.00  0.00    +0.000 OA
ATOM     13  C   UNL     1       1.355   8.312  20.973  0.00  0.00    +0.000 C 
ENDBRANCH   6  12
BRANCH  11  14
ATOM     14  S   UNL     1       3.851   1.892  17.624  0.00  0.00    +0.000 S 
ATOM     15  H   UNL     1       3.956   1.427  18.869  0.00  0.00    +0.000 HD
ENDBRANCH  11  14
BRANCH   1  16
ATOM     16  C   UNL     1       5.747   3.893  16.209  0.00  0.00    +0.000 C 
BRANCH  16  18
ATOM     17  C   UNL     1       6.178   3.921  13.724  0.00  0.00    +0.000 C 
ATOM     18  C   UNL     1       5.392   4.189  14.776  0.00  0.00    +0.000 C 
ENDBRANCH  16  18
ENDBRANCH   1  16
TORSDOF 4
ENDMDL
MODEL 9
REMARK VINA RESULT:      -5.6      2.795      5.542
REMARK  Name = 
REMARK  6 active torsions:
REMARK  status: ('A' for Active; 'I' for Inactive)
REMARK    1  A    between atoms: C_2  and  C_3
REMARK    2  A    between atoms: C_3  and  C_4
REMARK    3  A    between atoms: C_5  and  C_6
REMARK    4  A    between atoms: C_9  and  O_10
REMARK    5  A    between atoms: O_10  and  C_11
REMARK    6  A    between atoms: C_16  and  S_17
REMARK                            x       y       z     vdW  Elec       q    Type
REMARK                         _______ _______ _______ _____ _____    ______ ____
ROOT
ATOM      1  C   UNL     1       5.069   5.866  18.056  0.00  0.00    +0.000 A 
ATOM      2  C   UNL     1       5.912   4.814  18.417  0.00  0.00    +0.000 A 
ATOM      3  C   UNL     1       7.306   4.620  17.892  0.00  0.00    +0.000 C 
ATOM      4  N   UNL     1       5.536   3.846  19.286  0.00  0.00    +0.000 NA
ATOM      5  C   UNL     1       4.296   3.813  19.805  0.00  0.00    +0.000 A 
ATOM      6  C   UNL     1       3.947   2.773  20.694  0.00  0.00    +0.000 A 
ATOM      7  C   UNL     1       2.652   2.647  21.202  0.00  0.00    +0.000 A 
ATOM      8  C   UNL     1       1.694   3.587  20.874  0.00  0.00    +0.000 A 
ATOM      9  C   UNL     1       2.033   4.647  20.035  0.00  0.00    +0.000 A 
ATOM     10  C   UNL     1       3.335   4.793  19.476  0.00  0.00    +0.000 A 
ATOM     11  C   UNL     1       3.755   5.849  18.596  0.00  0.00    +0.000 A 
ENDROOT
BRANCH   6  12
ATOM     12  O   UNL     1       4.930   1.849  20.993  0.00  0.00    +0.000 OA
ATOM     13  C   UNL     1       4.955   0.690  20.166  0.00  0.00    +0.000 C 
ENDBRANCH   6  12
BRANCH  11  14
ATOM     14  S   UNL     1       2.632   7.199  18.120  0.00  0.00    +0.000 S 
ATOM     15  H   UNL     1       3.338   8.262  18.507  0.00  0.00    +0.000 HD
ENDBRANCH  11  14
BRANCH   1  16
ATOM     16  C   UNL     1       5.542   6.936  17.088  0.00  0.00    +0.000 C 
BRANCH  16  18
ATOM     17  C   UNL     1       5.476   5.511  15.008  0.00  0.00    +0.000 C 
ATOM     18  C   UNL     1       5.159   6.637  15.663  0.00  0.00    +0.000 C 
ENDBRANCH  16  18
ENDBRANCH   1  16
TORSDOF 4
ENDMDL
