MODEL 1
REMARK VINA RESULT:      -8.3      0.000      0.000
REMARK  Name = 
REMARK  4 active torsions:
REMARK  status: ('A' for Active; 'I' for Inactive)
REMARK    1  A    between atoms: C_2  and  C_3
REMARK    2  A    between atoms: C_2  and  C_12
REMARK    3  A    between atoms: C_4  and  C_5
REMARK    4  A    between atoms: C_19  and  O_20
REMARK                            x       y       z     vdW  Elec       q    Type
REMARK                         _______ _______ _______ _____ _____    ______ ____
ROOT
ATOM      1  C   UNL     1       4.649   5.658  18.138  0.00  0.00    +0.000 A 
ATOM      2  C   UNL     1       3.765   6.721  18.080  0.00  0.00    +0.000 A 
ATOM      3  O   UNL     1       2.478   6.301  18.155  0.00  0.00    +0.000 OA
ATOM      4  C   UNL     1       2.506   4.949  18.265  0.00  0.00    +0.000 A 
ATOM      5  C   UNL     1       1.384   4.128  18.351  0.00  0.00    +0.000 A 
ATOM      6  C   UNL     1       1.642   2.765  18.460  0.00  0.00    +0.000 A 
ATOM      7  F   UNL     1       0.613   1.907  18.542  0.00  0.00    +0.000 F 
ATOM      8  C   UNL     1       2.942   2.262  18.487  0.00  0.00    +0.000 A 
ATOM      9  C   UNL     1       4.049   3.108  18.394  0.00  0.00    +0.000 A 
ATOM     10  C   UNL     1       3.821   4.495  18.275  0.00  0.00    +0.000 A 
ENDROOT
BRANCH   1  12
ATOM     11  O   UNL     1       6.829   5.949  18.995  0.00  0.00    +0.000 OA
ATOM     12  C   UNL     1       6.102   5.684  18.043  0.00  0.00    +0.000 C 
BRANCH  12  13
ATOM     13  C   UNL     1       6.662   5.363  16.704  0.00  0.00    +0.000 C 
ATOM     14  C   UNL     1       5.837   5.061  15.690  0.00  0.00    +0.000 C 
BRANCH  14  15
ATOM     15  C   UNL     1       6.306   4.703  14.344  0.00  0.00    +0.000 A 
ATOM     16  C   UNL     1       7.402   5.391  13.806  0.00  0.00    +0.000 A 
ATOM     17  C   UNL     1       7.874   5.088  12.524  0.00  0.00    +0.000 A 
ATOM     18  C   UNL     1       7.261   4.087  11.773  0.00  0.00    +0.000 A 
ATOM     19  C   UNL     1       6.188   3.384  12.312  0.00  0.00    +0.000 A 
ATOM     20 CL   UNL     1       5.429   2.142  11.393  0.00  0.00    +0.000 Cl
ATOM     21  C   UNL     1       5.715   3.678  13.591  0.00  0.00    +0.000 A 
ENDBRANCH  14  15
ENDBRANCH  12  13
ENDBRANCH   1  12
BRANCH   8  22
ATOM     22  O   UNL     1       3.168   0.920  18.602  0.00  0.00    +0.000 OA
ATOM     23  H   UNL     1       4.023   0.810  19.060  0.00  0.00    +0.000 HD
ENDBRANCH   8  22
TORSDOF 4
ENDMDL
MODEL 2
REMARK VINA RESULT:      -8.1      4.732      6.063
REMARK  Name = 
REMARK  4 active torsions:
REMARK  status: ('A' for Active; 'I' for Inactive)
REMARK    1  A    between atoms: C_2  and  C_3
REMARK    2  A    between atoms: C_2  and  C_12
REMARK    3  A    between atoms: C_4  and  C_5
REMARK    4  A    between atoms: C_19  and  O_20
REMARK                            x       y       z     vdW  Elec       q    Type
REMARK                         _______ _______ _______ _____ _____    ______ ____
ROOT
ATOM      1  C   UNL     1       5.596   6.488  17.497  0.00  0.00    +0.000 A 
ATOM      2  C   UNL     1       4.530   7.323  17.212  0.00  0.00    +0.000 A 
ATOM      3  O   UNL     1       3.361   6.813  17.673  0.00  0.00    +0.000 OA
ATOM      4  C   UNL     1       3.652   5.629  18.270  0.00  0.00    +0.000 A 
ATOM      5  C   UNL     1       2.720   4.777  18.859  0.00  0.00    +0.000 A 
ATOM      6  C   UNL     1       3.237   3.613  19.417  0.00  0.00    +0.000 A 
ATOM      7  F   UNL     1       2.402   2.737  19.999  0.00  0.00    +0.000 F 
ATOM      8  C   UNL     1       4.601   3.326  19.389  0.00  0.00    +0.000 A 
ATOM      9  C   UNL     1       5.513   4.195  18.787  0.00  0.00    +0.000 A 
ATOM     10  C   UNL     1       5.020   5.381  18.206  0.00  0.00    +0.000 A 
ENDROOT
BRANCH   1  12
ATOM     11  O   UNL     1       7.529   6.023  16.225  0.00  0.00    +0.000 OA
ATOM     12  C   UNL     1       6.996   6.652  17.134  0.00  0.00    +0.000 C 
BRANCH  12  13
ATOM     13  C   UNL     1       7.755   7.644  17.939  0.00  0.00    +0.000 C 
ATOM     14  C   UNL     1       7.807   8.925  17.543  0.00  0.00    +0.000 C 
BRANCH  14  15
ATOM     15  C   UNL     1       8.558   9.965  18.262  0.00  0.00    +0.000 A 
ATOM     16  C   UNL     1       9.056   9.676  19.540  0.00  0.00    +0.000 A 
ATOM     17  C   UNL     1       9.768  10.640  20.261  0.00  0.00    +0.000 A 
ATOM     18  C   UNL     1       9.997  11.898  19.707  0.00  0.00    +0.000 A 
ATOM     19  C   UNL     1       9.527  12.182  18.429  0.00  0.00    +0.000 A 
ATOM     20 CL   UNL     1       9.811  13.731  17.735  0.00  0.00    +0.000 Cl
ATOM     21  C   UNL     1       8.820  11.224  17.702  0.00  0.00    +0.000 A 
ENDBRANCH  14  15
ENDBRANCH  12  13
ENDBRANCH   1  12
BRANCH   8  22
ATOM     22  O   UNL     1       5.084   2.177  19.951  0.00  0.00    +0.000 OA
ATOM     23  H   UNL     1       6.051   2.282  20.033  0.00  0.00    +0.000 HD
ENDBRANCH   8  22
TORSDOF 4
ENDMDL
MODEL 3
REMARK VINA RESULT:      -8.0      4.655      7.558
REMARK  Name = 
REMARK  4 active torsions:
REMARK  status: ('A' for Active; 'I' for Inactive)
REMARK    1  A    between atoms: C_2  and  C_3
REMARK    2  A    between atoms: C_2  and  C_12
REMARK    3  A    between atoms: C_4  and  C_5
REMARK    4  A    between atoms: C_19  and  O_20
REMARK                            x       y       z     vdW  Elec       q    Type
REMARK                         _______ _______ _______ _____ _____    ______ ____
ROOT
ATOM      1  C   UNL     1       2.899   3.954  18.956  0.00  0.00    +0.000 A 
ATOM      2  C   UNL     1       2.150   3.545  17.867  0.00  0.00    +0.000 A 
ATOM      3  O   UNL     1       2.903   3.486  16.740  0.00  0.00    +0.000 OA
ATOM      4  C   UNL     1       4.162   3.858  17.083  0.00  0.00    +0.000 A 
ATOM      5  C   UNL     1       5.240   3.947  16.204  0.00  0.00    +0.000 A 
ATOM      6  C   UNL     1       6.446   4.347  16.769  0.00  0.00    +0.000 A 
ATOM      7  F   UNL     1       7.531   4.463  15.987  0.00  0.00    +0.000 F 
ATOM      8  C   UNL     1       6.563   4.634  18.128  0.00  0.00    +0.000 A 
ATOM      9  C   UNL     1       5.465   4.542  18.986  0.00  0.00    +0.000 A 
ATOM     10  C   UNL     1       4.225   4.146  18.443  0.00  0.00    +0.000 A 
ENDROOT
BRANCH   1  12
ATOM     11  O   UNL     1       2.666   3.396  21.237  0.00  0.00    +0.000 OA
ATOM     12  C   UNL     1       2.455   4.186  20.322  0.00  0.00    +0.000 C 
BRANCH  12  13
ATOM     13  C   UNL     1       1.720   5.457  20.551  0.00  0.00    +0.000 C 
ATOM     14  C   UNL     1       2.226   6.613  20.093  0.00  0.00    +0.000 C 
BRANCH  14  15
ATOM     15  C   UNL     1       1.582   7.918  20.300  0.00  0.00    +0.000 A 
ATOM     16  C   UNL     1       1.545   8.829  19.235  0.00  0.00    +0.000 A 
ATOM     17  C   UNL     1       0.951  10.085  19.393  0.00  0.00    +0.000 A 
ATOM     18  C   UNL     1       0.379  10.438  20.614  0.00  0.00    +0.000 A 
ATOM     19  C   UNL     1       0.391   9.528  21.666  0.00  0.00    +0.000 A 
ATOM     20 CL   UNL     1      -0.318   9.954  23.176  0.00  0.00    +0.000 Cl
ATOM     21  C   UNL     1       0.978   8.272  21.515  0.00  0.00    +0.000 A 
ENDBRANCH  14  15
ENDBRANCH  12  13
ENDBRANCH   1  12
BRANCH   8  22
ATOM     22  O   UNL     1       7.761   5.019  18.659  0.00  0.00    +0.000 OA
ATOM     23  H   UNL     1       8.461   4.638  18.096  0.00  0.00    +0.000 HD
ENDBRANCH   8  22
TORSDOF 4
ENDMDL
MODEL 4
REMARK VINA RESULT:      -7.9      4.773      5.976
REMARK  Name = 
REMARK  4 active torsions:
REMARK  status: ('A' for Active; 'I' for Inactive)
REMARK    1  A    between atoms: C_2  and  C_3
REMARK    2  A    between atoms: C_2  and  C_12
REMARK    3  A    between atoms: C_4  and  C_5
REMARK    4  A    between atoms: C_19  and  O_20
REMARK                            x       y       z     vdW  Elec       q    Type
REMARK                         _______ _______ _______ _____ _____    ______ ____
ROOT
ATOM      1  C   UNL     1       5.568   6.315  17.565  0.00  0.00    +0.000 A 
ATOM      2  C   UNL     1       4.508   7.140  17.233  0.00  0.00    +0.000 A 
ATOM      3  O   UNL     1       3.326   6.625  17.656  0.00  0.00    +0.000 OA
ATOM      4  C   UNL     1       3.603   5.450  18.276  0.00  0.00    +0.000 A 
ATOM      5  C   UNL     1       2.656   4.598  18.841  0.00  0.00    +0.000 A 
ATOM      6  C   UNL     1       3.161   3.443  19.429  0.00  0.00    +0.000 A 
ATOM      7  F   UNL     1       2.312   2.568  19.990  0.00  0.00    +0.000 F 
ATOM      8  C   UNL     1       4.527   3.166  19.454  0.00  0.00    +0.000 A 
ATOM      9  C   UNL     1       5.454   4.035  18.876  0.00  0.00    +0.000 A 
ATOM     10  C   UNL     1       4.974   5.212  18.264  0.00  0.00    +0.000 A 
ENDROOT
BRANCH   1  12
ATOM     11  O   UNL     1       7.727   5.545  17.002  0.00  0.00    +0.000 OA
ATOM     12  C   UNL     1       6.979   6.486  17.251  0.00  0.00    +0.000 C 
BRANCH  12  13
ATOM     13  C   UNL     1       7.470   7.888  17.248  0.00  0.00    +0.000 C 
ATOM     14  C   UNL     1       8.145   8.361  18.308  0.00  0.00    +0.000 C 
BRANCH  14  15
ATOM     15  C   UNL     1       8.640   9.742  18.402  0.00  0.00    +0.000 A 
ATOM     16  C   UNL     1       8.058  10.725  17.589  0.00  0.00    +0.000 A 
ATOM     17  C   UNL     1       8.506  12.049  17.640  0.00  0.00    +0.000 A 
ATOM     18  C   UNL     1       9.533  12.404  18.513  0.00  0.00    +0.000 A 
ATOM     19  C   UNL     1      10.098  11.438  19.339  0.00  0.00    +0.000 A 
ATOM     20 CL   UNL     1      11.363  11.871  20.423  0.00  0.00    +0.000 Cl
ATOM     21  C   UNL     1       9.652  10.117  19.297  0.00  0.00    +0.000 A 
ENDBRANCH  14  15
ENDBRANCH  12  13
ENDBRANCH   1  12
BRANCH   8  22
ATOM     22  O   UNL     1       4.997   2.027  20.045  0.00  0.00    +0.000 OA
ATOM     23  H   UNL     1       4.220   1.508  20.329  0.00  0.00    +0.000 HD
ENDBRANCH   8  22
TORSDOF 4
ENDMDL
MODEL 5
REMARK VINA RESULT:      -7.9      1.330      1.957
REMARK  Name = 
REMARK  4 active torsions:
REMARK  status: ('A' for Active; 'I' for Inactive)
REMARK    1  A    between atoms: C_2  and  C_3
REMARK    2  A    between atoms: C_2  and  C_12
REMARK    3  A    between atoms: C_4  and  C_5
REMARK    4  A    between atoms: C_19  and  O_20
REMARK                            x       y       z     vdW  Elec       q    Type
REMARK                         _______ _______ _______ _____ _____    ______ ____
ROOT
ATOM      1  C   UNL     1       4.759   5.472  18.175  0.00  0.00    +0.000 A 
ATOM      2  C   UNL     1       5.818   5.164  19.009  0.00  0.00    +0.000 A 
ATOM      3  O   UNL     1       5.528   4.110  19.813  0.00  0.00    +0.000 OA
ATOM      4  C   UNL     1       4.266   3.714  19.508  0.00  0.00    +0.000 A 
ATOM      5  C   UNL     1       3.584   2.667  20.124  0.00  0.00    +0.000 A 
ATOM      6  C   UNL     1       2.297   2.429  19.654  0.00  0.00    +0.000 A 
ATOM      7  F   UNL     1       1.571   1.440  20.201  0.00  0.00    +0.000 F 
ATOM      8  C   UNL     1       1.734   3.189  18.630  0.00  0.00    +0.000 A 
ATOM      9  C   UNL     1       2.438   4.237  18.034  0.00  0.00    +0.000 A 
ATOM     10  C   UNL     1       3.744   4.509  18.493  0.00  0.00    +0.000 A 
ENDROOT
BRANCH   1  12
ATOM     11  O   UNL     1       4.176   7.651  17.479  0.00  0.00    +0.000 OA
ATOM     12  C   UNL     1       4.656   6.555  17.207  0.00  0.00    +0.000 C 
BRANCH  12  13
ATOM     13  C   UNL     1       5.174   6.251  15.848  0.00  0.00    +0.000 C 
ATOM     14  C   UNL     1       5.584   5.008  15.552  0.00  0.00    +0.000 C 
BRANCH  14  15
ATOM     15  C   UNL     1       6.138   4.628  14.244  0.00  0.00    +0.000 A 
ATOM     16  C   UNL     1       7.264   5.311  13.764  0.00  0.00    +0.000 A 
ATOM     17  C   UNL     1       7.816   4.987  12.520  0.00  0.00    +0.000 A 
ATOM     18  C   UNL     1       7.254   3.970  11.751  0.00  0.00    +0.000 A 
ATOM     19  C   UNL     1       6.151   3.273  12.234  0.00  0.00    +0.000 A 
ATOM     20 CL   UNL     1       5.455   2.011  11.292  0.00  0.00    +0.000 Cl
ATOM     21  C   UNL     1       5.598   3.587  13.475  0.00  0.00    +0.000 A 
ENDBRANCH  14  15
ENDBRANCH  12  13
ENDBRANCH   1  12
BRANCH   8  22
ATOM     22  O   UNL     1       0.469   2.930  18.183  0.00  0.00    +0.000 OA
ATOM     23  H   UNL     1       0.239   3.635  17.548  0.00  0.00    +0.000 HD
ENDBRANCH   8  22
TORSDOF 4
ENDMDL
MODEL 6
REMARK VINA RESULT:      -7.8      5.529      8.745
REMARK  Name = 
REMARK  4 active torsions:
REMARK  status: ('A' for Active; 'I' for Inactive)
REMARK    1  A    between atoms: C_2  and  C_3
REMARK    2  A    between atoms: C_2  and  C_12
REMARK    3  A    between atoms: C_4  and  C_5
REMARK    4  A    between atoms: C_19  and  O_20
REMARK                            x       y       z     vdW  Elec       q    Type
REMARK                         _______ _______ _______ _____ _____    ______ ____
ROOT
ATOM      1  C   UNL     1       2.909   6.648  17.967  0.00  0.00    +0.000 A 
ATOM      2  C   UNL     1       2.243   5.449  18.151  0.00  0.00    +0.000 A 
ATOM      3  O   UNL     1       3.048   4.389  17.891  0.00  0.00    +0.000 OA
ATOM      4  C   UNL     1       4.259   4.887  17.533  0.00  0.00    +0.000 A 
ATOM      5  C   UNL     1       5.365   4.122  17.168  0.00  0.00    +0.000 A 
ATOM      6  C   UNL     1       6.510   4.839  16.839  0.00  0.00    +0.000 A 
ATOM      7  F   UNL     1       7.617   4.175  16.471  0.00  0.00    +0.000 F 
ATOM      8  C   UNL     1       6.543   6.232  16.878  0.00  0.00    +0.000 A 
ATOM      9  C   UNL     1       5.418   6.975  17.242  0.00  0.00    +0.000 A 
ATOM     10  C   UNL     1       4.238   6.278  17.575  0.00  0.00    +0.000 A 
ENDROOT
BRANCH   1  12
ATOM     11  O   UNL     1       2.510   8.852  17.221  0.00  0.00    +0.000 OA
ATOM     12  C   UNL     1       2.387   8.001  18.097  0.00  0.00    +0.000 C 
BRANCH  12  13
ATOM     13  C   UNL     1       1.684   8.298  19.372  0.00  0.00    +0.000 C 
ATOM     14  C   UNL     1       1.065   9.478  19.533  0.00  0.00    +0.000 C 
BRANCH  14  15
ATOM     15  C   UNL     1       0.373   9.867  20.771  0.00  0.00    +0.000 A 
ATOM     16  C   UNL     1       0.597   9.117  21.934  0.00  0.00    +0.000 A 
ATOM     17  C   UNL     1      -0.049   9.447  23.129  0.00  0.00    +0.000 A 
ATOM     18  C   UNL     1      -0.918  10.536  23.175  0.00  0.00    +0.000 A 
ATOM     19  C   UNL     1      -1.126  11.298  22.030  0.00  0.00    +0.000 A 
ATOM     20 CL   UNL     1      -2.192  12.648  22.081  0.00  0.00    +0.000 Cl
ATOM     21  C   UNL     1      -0.481  10.977  20.836  0.00  0.00    +0.000 A 
ENDBRANCH  14  15
ENDBRANCH  12  13
ENDBRANCH   1  12
BRANCH   8  22
ATOM     22  O   UNL     1       7.684   6.913  16.556  0.00  0.00    +0.000 OA
ATOM     23  H   UNL     1       8.430   6.294  16.672  0.00  0.00    +0.000 HD
ENDBRANCH   8  22
TORSDOF 4
ENDMDL
MODEL 7
REMARK VINA RESULT:      -7.7      1.233      1.263
REMARK  Name = 
REMARK  4 active torsions:
REMARK  status: ('A' for Active; 'I' for Inactive)
REMARK    1  A    between atoms: C_2  and  C_3
REMARK    2  A    between atoms: C_2  and  C_12
REMARK    3  A    between atoms: C_4  and  C_5
REMARK    4  A    between atoms: C_19  and  O_20
REMARK                            x       y       z     vdW  Elec       q    Type
REMARK                         _______ _______ _______ _____ _____    ______ ____
ROOT
ATOM      1  C   UNL     1       4.529   6.142  18.092  0.00  0.00    +0.000 A 
ATOM      2  C   UNL     1       3.357   6.878  18.107  0.00  0.00    +0.000 A 
ATOM      3  O   UNL     1       2.361   6.212  18.742  0.00  0.00    +0.000 OA
ATOM      4  C   UNL     1       2.874   5.025  19.153  0.00  0.00    +0.000 A 
ATOM      5  C   UNL     1       2.165   4.037  19.833  0.00  0.00    +0.000 A 
ATOM      6  C   UNL     1       2.889   2.896  20.163  0.00  0.00    +0.000 A 
ATOM      7  F   UNL     1       2.275   1.896  20.814  0.00  0.00    +0.000 F 
ATOM      8  C   UNL     1       4.237   2.759  19.835  0.00  0.00    +0.000 A 
ATOM      9  C   UNL     1       4.922   3.763  19.148  0.00  0.00    +0.000 A 
ATOM     10  C   UNL     1       4.215   4.931  18.793  0.00  0.00    +0.000 A 
ENDROOT
BRANCH   1  12
ATOM     11  O   UNL     1       6.733   6.986  18.093  0.00  0.00    +0.000 OA
ATOM     12  C   UNL     1       5.802   6.482  17.473  0.00  0.00    +0.000 C 
BRANCH  12  13
ATOM     13  C   UNL     1       5.912   6.177  16.023  0.00  0.00    +0.000 C 
ATOM     14  C   UNL     1       6.548   5.066  15.621  0.00  0.00    +0.000 C 
BRANCH  14  15
ATOM     15  C   UNL     1       6.730   4.702  14.208  0.00  0.00    +0.000 A 
ATOM     16  C   UNL     1       7.657   5.420  13.440  0.00  0.00    +0.000 A 
ATOM     17  C   UNL     1       7.853   5.114  12.090  0.00  0.00    +0.000 A 
ATOM     18  C   UNL     1       7.131   4.079  11.497  0.00  0.00    +0.000 A 
ATOM     19  C   UNL     1       6.227   3.348  12.261  0.00  0.00    +0.000 A 
ATOM     20 CL   UNL     1       5.336   2.065  11.537  0.00  0.00    +0.000 Cl
ATOM     21  C   UNL     1       6.030   3.645  13.609  0.00  0.00    +0.000 A 
ENDBRANCH  14  15
ENDBRANCH  12  13
ENDBRANCH   1  12
BRANCH   8  22
ATOM     22  O   UNL     1       4.926   1.630  20.176  0.00  0.00    +0.000 OA
ATOM     23  H   UNL     1       5.662   1.539  19.541  0.00  0.00    +0.000 HD
ENDBRANCH   8  22
TORSDOF 4
ENDMDL
MODEL 8
REMARK VINA RESULT:      -7.7      4.295      6.535
REMARK  Name = 
REMARK  4 active torsions:
REMARK  status: ('A' for Active; 'I' for Inactive)
REMARK    1  A    between atoms: C_2  and  C_3
REMARK    2  A    between atoms: C_2  and  C_12
REMARK    3  A    between atoms: C_4  and  C_5
REMARK    4  A    between atoms: C_19  and  O_20
REMARK                            x       y       z     vdW  Elec       q    Type
REMARK                         _______ _______ _______ _____ _____    ______ ____
ROOT
ATOM      1  C   UNL     1       4.839   5.522  17.781  0.00  0.00    +0.000 A 
ATOM      2  C   UNL     1       5.968   5.227  18.524  0.00  0.00    +0.000 A 
ATOM      3  O   UNL     1       5.785   4.124  19.291  0.00  0.00    +0.000 OA
ATOM      4  C   UNL     1       4.524   3.680  19.055  0.00  0.00    +0.000 A 
ATOM      5  C   UNL     1       3.936   2.573  19.662  0.00  0.00    +0.000 A 
ATOM      6  C   UNL     1       2.631   2.294  19.271  0.00  0.00    +0.000 A 
ATOM      7  F   UNL     1       1.993   1.246  19.816  0.00  0.00    +0.000 F 
ATOM      8  C   UNL     1       1.962   3.074  18.329  0.00  0.00    +0.000 A 
ATOM      9  C   UNL     1       2.574   4.182  17.739  0.00  0.00    +0.000 A 
ATOM     10  C   UNL     1       3.895   4.496  18.119  0.00  0.00    +0.000 A 
ENDROOT
BRANCH   1  12
ATOM     11  O   UNL     1       5.159   6.734  15.781  0.00  0.00    +0.000 OA
ATOM     12  C   UNL     1       4.618   6.643  16.879  0.00  0.00    +0.000 C 
BRANCH  12  13
ATOM     13  C   UNL     1       3.682   7.687  17.370  0.00  0.00    +0.000 C 
ATOM     14  C   UNL     1       2.862   7.417  18.399  0.00  0.00    +0.000 C 
BRANCH  14  15
ATOM     15  C   UNL     1       1.885   8.379  18.929  0.00  0.00    +0.000 A 
ATOM     16  C   UNL     1       1.318   9.317  18.054  0.00  0.00    +0.000 A 
ATOM     17  C   UNL     1       0.393  10.257  18.520  0.00  0.00    +0.000 A 
ATOM     18  C   UNL     1       0.017  10.260  19.862  0.00  0.00    +0.000 A 
ATOM     19  C   UNL     1       0.558   9.316  20.729  0.00  0.00    +0.000 A 
ATOM     20 CL   UNL     1       0.094   9.310  22.387  0.00  0.00    +0.000 Cl
ATOM     21  C   UNL     1       1.478   8.373  20.271  0.00  0.00    +0.000 A 
ENDBRANCH  14  15
ENDBRANCH  12  13
ENDBRANCH   1  12
BRANCH   8  22
ATOM     22  O   UNL     1       0.682   2.774  17.957  0.00  0.00    +0.000 OA
ATOM     23  H   UNL     1       0.732   2.317  17.096  0.00  0.00    +0.000 HD
ENDBRANCH   8  22
TORSDOF 4
ENDMDL
MODEL 9
REMARK VINA RESULT:      -7.6      4.915      6.650
REMARK  Name = 
REMARK  4 active torsions:
REMARK  status: ('A' for Active; 'I' for Inactive)
REMARK    1  A    between atoms: C_2  and  C_3
REMARK    2  A    between atoms: C_2  and  C_12
REMARK    3  A    between atoms: C_4  and  C_5
REMARK    4  A    between atoms: C_19  and  O_20
REMARK                            x       y       z     vdW  Elec       q    Type
REMARK                         _______ _______ _______ _____ _____    ______ ____
ROOT
ATOM      1  C   UNL     1       6.610   5.787  18.049  0.00  0.00    +0.000 A 
ATOM      2  C   UNL     1       6.991   4.613  18.672  0.00  0.00    +0.000 A 
ATOM      3  O   UNL     1       5.941   4.011  19.284  0.00  0.00    +0.000 OA
ATOM      4  C   UNL     1       4.852   4.791  19.064  0.00  0.00    +0.000 A 
ATOM      5  C   UNL     1       3.570   4.532  19.542  0.00  0.00    +0.000 A 
ATOM      6  C   UNL     1       2.598   5.464  19.195  0.00  0.00    +0.000 A 
ATOM      7  F   UNL     1       1.338   5.289  19.622  0.00  0.00    +0.000 F 
ATOM      8  C   UNL     1       2.895   6.581  18.415  0.00  0.00    +0.000 A 
ATOM      9  C   UNL     1       4.191   6.820  17.953  0.00  0.00    +0.000 A 
ATOM     10  C   UNL     1       5.201   5.896  18.294  0.00  0.00    +0.000 A 
ENDROOT
BRANCH   1  12
ATOM     11  O   UNL     1       7.678   6.650  16.129  0.00  0.00    +0.000 OA
ATOM     12  C   UNL     1       7.443   6.741  17.330  0.00  0.00    +0.000 C 
BRANCH  12  13
ATOM     13  C   UNL     1       8.000   7.850  18.147  0.00  0.00    +0.000 C 
ATOM     14  C   UNL     1       8.114   9.078  17.617  0.00  0.00    +0.000 C 
BRANCH  14  15
ATOM     15  C   UNL     1       8.681  10.224  18.342  0.00  0.00    +0.000 A 
ATOM     16  C   UNL     1       9.282  10.003  19.589  0.00  0.00    +0.000 A 
ATOM     17  C   UNL     1       9.824  11.067  20.317  0.00  0.00    +0.000 A 
ATOM     18  C   UNL     1       9.780  12.360  19.799  0.00  0.00    +0.000 A 
ATOM     19  C   UNL     1       9.207  12.581  18.551  0.00  0.00    +0.000 A 
ATOM     20 CL   UNL     1       9.153  14.175  17.903  0.00  0.00    +0.000 Cl
ATOM     21  C   UNL     1       8.668  11.524  17.818  0.00  0.00    +0.000 A 
ENDBRANCH  14  15
ENDBRANCH  12  13
ENDBRANCH   1  12
BRANCH   8  22
ATOM     22  O   UNL     1       1.920   7.479  18.083  0.00  0.00    +0.000 OA
ATOM     23  H   UNL     1       1.165   6.968  17.733  0.00  0.00    +0.000 HD
ENDBRANCH   8  22
TORSDOF 4
ENDMDL
