MODEL 1
REMARK VINA RESULT:      -7.9      0.000      0.000
REMARK  Name = 
REMARK  9 active torsions:
REMARK  status: ('A' for Active; 'I' for Inactive)
REMARK    1  A    between atoms: C_1  and  C_2
REMARK    2  A    between atoms: C_2  and  C_3
REMARK    3  A    between atoms: C_2  and  C_4
REMARK    4  A    between atoms: C_7  and  C_8
REMARK    5  A    between atoms: C_8  and  C_9
REMARK    6  A    between atoms: C_8  and  N_10
REMARK    7  A    between atoms: N_10  and  S_11
REMARK    8  A    between atoms: S_11  and  C_14
REMARK    9  A    between atoms: N_20  and  C_21
REMARK                            x       y       z     vdW  Elec       q    Type
REMARK                         _______ _______ _______ _____ _____    ______ ____
ROOT
ATOM      1  S   UNL     1       3.736   4.353  17.463  0.00  0.00    +0.000 S 
ATOM      2  O   UNL     1       3.669   5.795  17.331  0.00  0.00    +0.000 OA
ATOM      3  O   UNL     1       3.312   3.492  16.379  0.00  0.00    +0.000 OA
ENDROOT
BRANCH   1   4
ATOM      4  C   UNL     1       2.958   3.953  18.974  0.00  0.00    +0.000 A 
ATOM      5  C   UNL     1       1.714   4.535  19.321  0.00  0.00    +0.000 A 
ATOM      6  C   UNL     1       1.017   4.222  20.519  0.00  0.00    +0.000 A 
ATOM      7  C   UNL     1       1.506   3.316  21.480  0.00  0.00    +0.000 A 
ATOM      8  C   UNL     1       2.743   2.727  21.153  0.00  0.00    +0.000 A 
ATOM      9  N   UNL     1       3.470   1.857  21.871  0.00  0.00    +0.000 NA
ATOM     10  N   UNL     1       4.536   1.660  21.077  0.00  0.00    +0.000 N 
ATOM     11  C   UNL     1       5.645   0.841  21.500  0.00  0.00    +0.000 C 
ATOM     12  N   UNL     1       4.569   2.267  19.889  0.00  0.00    +0.000 NA
ATOM     13  C   UNL     1       3.458   3.022  19.899  0.00  0.00    +0.000 A 
ENDBRANCH   1   4
BRANCH   1  14
ATOM     14  N   UNL     1       5.376   4.030  17.720  0.00  0.00    +0.000 NA
ATOM     15  H   UNL     1       5.504   3.723  18.684  0.00  0.00    +0.000 HD
BRANCH  14  16
ATOM     16  C   UNL     1       6.351   5.040  17.236  0.00  0.00    +0.000 C 
ATOM     17  C   UNL     1       7.616   4.946  18.094  0.00  0.00    +0.000 C 
BRANCH  16  21
ATOM     18  C   UNL     1       6.865   4.356  13.770  0.00  0.00    +0.000 A 
ATOM     19  N   UNL     1       7.771   5.329  13.940  0.00  0.00    +0.000 NA
ATOM     20  O   UNL     1       7.656   5.648  15.288  0.00  0.00    +0.000 OA
ATOM     21  C   UNL     1       6.690   4.834  15.798  0.00  0.00    +0.000 A 
ATOM     22  N   UNL     1       6.172   4.015  14.905  0.00  0.00    +0.000 NA
BRANCH  18  24
ATOM     23  C   UNL     1       5.197   3.398  12.207  0.00  0.00    +0.000 C 
ATOM     24  C   UNL     1       6.681   3.693  12.445  0.00  0.00    +0.000 C 
ATOM     25  C   UNL     1       7.246   4.505  11.277  0.00  0.00    +0.000 C 
ENDBRANCH  18  24
ENDBRANCH  16  21
ENDBRANCH  14  16
ENDBRANCH   1  14
TORSDOF 5
ENDMDL
MODEL 2
REMARK VINA RESULT:      -7.6      2.715      7.310
REMARK  Name = 
REMARK  9 active torsions:
REMARK  status: ('A' for Active; 'I' for Inactive)
REMARK    1  A    between atoms: C_1  and  C_2
REMARK    2  A    between atoms: C_2  and  C_3
REMARK    3  A    between atoms: C_2  and  C_4
REMARK    4  A    between atoms: C_7  and  C_8
REMARK    5  A    between atoms: C_8  and  C_9
REMARK    6  A    between atoms: C_8  and  N_10
REMARK    7  A    between atoms: N_10  and  S_11
REMARK    8  A    between atoms: S_11  and  C_14
REMARK    9  A    between atoms: N_20  and  C_21
REMARK                            x       y       z     vdW  Elec       q    Type
REMARK                         _______ _______ _______ _____ _____    ______ ____
ROOT
ATOM      1  S   UNL     1       3.698   3.299  18.196  0.00  0.00    +0.000 S 
ATOM      2  O   UNL     1       4.134   1.917  18.259  0.00  0.00    +0.000 OA
ATOM      3  O   UNL     1       2.610   3.689  17.325  0.00  0.00    +0.000 OA
ENDROOT
BRANCH   1   4
ATOM      4  C   UNL     1       5.132   4.263  17.945  0.00  0.00    +0.000 A 
ATOM      5  C   UNL     1       5.707   4.992  19.015  0.00  0.00    +0.000 A 
ATOM      6  C   UNL     1       6.892   5.766  18.879  0.00  0.00    +0.000 A 
ATOM      7  C   UNL     1       7.594   5.892  17.665  0.00  0.00    +0.000 A 
ATOM      8  C   UNL     1       7.037   5.174  16.588  0.00  0.00    +0.000 A 
ATOM      9  N   UNL     1       7.455   5.119  15.314  0.00  0.00    +0.000 NA
ATOM     10  N   UNL     1       6.544   4.304  14.755  0.00  0.00    +0.000 N 
ATOM     11  C   UNL     1       6.556   4.026  13.340  0.00  0.00    +0.000 C 
ATOM     12  N   UNL     1       5.597   3.775  15.533  0.00  0.00    +0.000 NA
ATOM     13  C   UNL     1       5.827   4.345  16.727  0.00  0.00    +0.000 A 
ENDBRANCH   1   4
BRANCH   1  14
ATOM     14  N   UNL     1       3.205   3.657  19.774  0.00  0.00    +0.000 NA
ATOM     15  H   UNL     1       3.511   2.907  20.392  0.00  0.00    +0.000 HD
BRANCH  14  16
ATOM     16  C   UNL     1       1.803   4.109  19.961  0.00  0.00    +0.000 C 
ATOM     17  C   UNL     1       1.230   3.416  21.200  0.00  0.00    +0.000 C 
BRANCH  16  21
ATOM     18  C   UNL     1       1.475   7.593  20.662  0.00  0.00    +0.000 A 
ATOM     19  N   UNL     1       2.226   7.661  19.552  0.00  0.00    +0.000 NA
ATOM     20  O   UNL     1       2.388   6.329  19.189  0.00  0.00    +0.000 OA
ATOM     21  C   UNL     1       1.718   5.590  20.117  0.00  0.00    +0.000 A 
ATOM     22  N   UNL     1       1.134   6.320  21.045  0.00  0.00    +0.000 NA
BRANCH  18  24
ATOM     23  C   UNL     1       0.863   9.977  20.372  0.00  0.00    +0.000 C 
ATOM     24  C   UNL     1       1.032   8.830  21.372  0.00  0.00    +0.000 C 
ATOM     25  C   UNL     1      -0.260   8.639  22.171  0.00  0.00    +0.000 C 
ENDBRANCH  18  24
ENDBRANCH  16  21
ENDBRANCH  14  16
ENDBRANCH   1  14
TORSDOF 5
ENDMDL
MODEL 3
REMARK VINA RESULT:      -7.6      3.438      7.545
REMARK  Name = 
REMARK  9 active torsions:
REMARK  status: ('A' for Active; 'I' for Inactive)
REMARK    1  A    between atoms: C_1  and  C_2
REMARK    2  A    between atoms: C_2  and  C_3
REMARK    3  A    between atoms: C_2  and  C_4
REMARK    4  A    between atoms: C_7  and  C_8
REMARK    5  A    between atoms: C_8  and  C_9
REMARK    6  A    between atoms: C_8  and  N_10
REMARK    7  A    between atoms: N_10  and  S_11
REMARK    8  A    between atoms: S_11  and  C_14
REMARK    9  A    between atoms: N_20  and  C_21
REMARK                            x       y       z     vdW  Elec       q    Type
REMARK                         _______ _______ _______ _____ _____    ______ ____
ROOT
ATOM      1  S   UNL     1       4.206   3.741  18.668  0.00  0.00    +0.000 S 
ATOM      2  O   UNL     1       5.129   3.150  19.618  0.00  0.00    +0.000 OA
ATOM      3  O   UNL     1       2.991   3.050  18.292  0.00  0.00    +0.000 OA
ENDROOT
BRANCH   1   4
ATOM      4  C   UNL     1       5.155   4.220  17.282  0.00  0.00    +0.000 A 
ATOM      5  C   UNL     1       4.980   3.578  16.031  0.00  0.00    +0.000 A 
ATOM      6  C   UNL     1       5.698   3.947  14.862  0.00  0.00    +0.000 A 
ATOM      7  C   UNL     1       6.660   4.976  14.841  0.00  0.00    +0.000 A 
ATOM      8  C   UNL     1       6.848   5.627  16.076  0.00  0.00    +0.000 A 
ATOM      9  N   UNL     1       7.704   6.615  16.378  0.00  0.00    +0.000 NA
ATOM     10  N   UNL     1       7.448   6.818  17.682  0.00  0.00    +0.000 N 
ATOM     11  C   UNL     1       8.218   7.759  18.458  0.00  0.00    +0.000 C 
ATOM     12  N   UNL     1       6.480   6.106  18.262  0.00  0.00    +0.000 NA
ATOM     13  C   UNL     1       6.087   5.271  17.286  0.00  0.00    +0.000 A 
ENDBRANCH   1   4
BRANCH   1  14
ATOM     14  N   UNL     1       3.731   5.194  19.392  0.00  0.00    +0.000 NA
ATOM     15  H   UNL     1       4.449   5.481  20.056  0.00  0.00    +0.000 HD
BRANCH  14  16
ATOM     16  C   UNL     1       2.333   5.282  19.883  0.00  0.00    +0.000 C 
ATOM     17  C   UNL     1       2.242   4.549  21.225  0.00  0.00    +0.000 C 
BRANCH  16  21
ATOM     18  C   UNL     1       1.233   8.600  20.608  0.00  0.00    +0.000 A 
ATOM     19  N   UNL     1       1.737   8.797  19.381  0.00  0.00    +0.000 NA
ATOM     20  O   UNL     1       2.176   7.533  19.004  0.00  0.00    +0.000 OA
ATOM     21  C   UNL     1       1.892   6.698  20.042  0.00  0.00    +0.000 A 
ATOM     22  N   UNL     1       1.307   7.304  21.055  0.00  0.00    +0.000 NA
BRANCH  18  24
ATOM     23  C   UNL     1      -0.408  10.454  20.504  0.00  0.00    +0.000 C 
ATOM     24  C   UNL     1       0.612   9.718  21.378  0.00  0.00    +0.000 C 
ATOM     25  C   UNL     1      -0.051   9.262  22.681  0.00  0.00    +0.000 C 
ENDBRANCH  18  24
ENDBRANCH  16  21
ENDBRANCH  14  16
ENDBRANCH   1  14
TORSDOF 5
ENDMDL
MODEL 4
REMARK VINA RESULT:      -7.6      2.995      7.266
REMARK  Name = 
REMARK  9 active torsions:
REMARK  status: ('A' for Active; 'I' for Inactive)
REMARK    1  A    between atoms: C_1  and  C_2
REMARK    2  A    between atoms: C_2  and  C_3
REMARK    3  A    between atoms: C_2  and  C_4
REMARK    4  A    between atoms: C_7  and  C_8
REMARK    5  A    between atoms: C_8  and  C_9
REMARK    6  A    between atoms: C_8  and  N_10
REMARK    7  A    between atoms: N_10  and  S_11
REMARK    8  A    between atoms: S_11  and  C_14
REMARK    9  A    between atoms: N_20  and  C_21
REMARK                            x       y       z     vdW  Elec       q    Type
REMARK                         _______ _______ _______ _____ _____    ______ ____
ROOT
ATOM      1  S   UNL     1       4.489   3.260  18.878  0.00  0.00    +0.000 S 
ATOM      2  O   UNL     1       5.051   2.738  20.109  0.00  0.00    +0.000 OA
ATOM      3  O   UNL     1       3.991   2.364  17.856  0.00  0.00    +0.000 OA
ENDROOT
BRANCH   1   4
ATOM      4  C   UNL     1       5.645   4.409  18.250  0.00  0.00    +0.000 A 
ATOM      5  C   UNL     1       6.272   5.345  19.110  0.00  0.00    +0.000 A 
ATOM      6  C   UNL     1       7.244   6.279  18.663  0.00  0.00    +0.000 A 
ATOM      7  C   UNL     1       7.664   6.372  17.322  0.00  0.00    +0.000 A 
ATOM      8  C   UNL     1       7.052   5.449  16.451  0.00  0.00    +0.000 A 
ATOM      9  N   UNL     1       7.220   5.311  15.127  0.00  0.00    +0.000 NA
ATOM     10  N   UNL     1       6.385   4.297  14.843  0.00  0.00    +0.000 N 
ATOM     11  C   UNL     1       6.175   3.858  13.485  0.00  0.00    +0.000 C 
ATOM     12  N   UNL     1       5.720   3.718  15.844  0.00  0.00    +0.000 NA
ATOM     13  C   UNL     1       6.065   4.457  16.911  0.00  0.00    +0.000 A 
ENDBRANCH   1   4
BRANCH   1  14
ATOM     14  N   UNL     1       3.175   4.198  19.380  0.00  0.00    +0.000 NA
ATOM     15  H   UNL     1       2.488   3.590  19.826  0.00  0.00    +0.000 HD
BRANCH  14  16
ATOM     16  C   UNL     1       2.627   5.176  18.406  0.00  0.00    +0.000 C 
ATOM     17  C   UNL     1       1.453   4.523  17.669  0.00  0.00    +0.000 C 
BRANCH  16  21
ATOM     18  C   UNL     1       1.565   7.996  20.319  0.00  0.00    +0.000 A 
ATOM     19  N   UNL     1       1.841   8.608  19.158  0.00  0.00    +0.000 NA
ATOM     20  O   UNL     1       2.247   7.567  18.332  0.00  0.00    +0.000 OA
ATOM     21  C   UNL     1       2.176   6.429  19.078  0.00  0.00    +0.000 A 
ATOM     22  N   UNL     1       1.758   6.637  20.310  0.00  0.00    +0.000 NA
BRANCH  18  24
ATOM     23  C   UNL     1       1.094  10.264  21.200  0.00  0.00    +0.000 C 
ATOM     24  C   UNL     1       1.053   8.762  21.495  0.00  0.00    +0.000 C 
ATOM     25  C   UNL     1      -0.360   8.351  21.916  0.00  0.00    +0.000 C 
ENDBRANCH  18  24
ENDBRANCH  16  21
ENDBRANCH  14  16
ENDBRANCH   1  14
TORSDOF 5
ENDMDL
MODEL 5
REMARK VINA RESULT:      -7.5      2.803      6.849
REMARK  Name = 
REMARK  9 active torsions:
REMARK  status: ('A' for Active; 'I' for Inactive)
REMARK    1  A    between atoms: C_1  and  C_2
REMARK    2  A    between atoms: C_2  and  C_3
REMARK    3  A    between atoms: C_2  and  C_4
REMARK    4  A    between atoms: C_7  and  C_8
REMARK    5  A    between atoms: C_8  and  C_9
REMARK    6  A    between atoms: C_8  and  N_10
REMARK    7  A    between atoms: N_10  and  S_11
REMARK    8  A    between atoms: S_11  and  C_14
REMARK    9  A    between atoms: N_20  and  C_21
REMARK                            x       y       z     vdW  Elec       q    Type
REMARK                         _______ _______ _______ _____ _____    ______ ____
ROOT
ATOM      1  S   UNL     1       3.407   2.954  17.796  0.00  0.00    +0.000 S 
ATOM      2  O   UNL     1       3.828   1.586  18.026  0.00  0.00    +0.000 OA
ATOM      3  O   UNL     1       2.096   3.242  17.255  0.00  0.00    +0.000 OA
ENDROOT
BRANCH   1   4
ATOM      4  C   UNL     1       4.685   3.724  16.889  0.00  0.00    +0.000 A 
ATOM      5  C   UNL     1       4.665   3.723  15.472  0.00  0.00    +0.000 A 
ATOM      6  C   UNL     1       5.658   4.362  14.681  0.00  0.00    +0.000 A 
ATOM      7  C   UNL     1       6.762   5.042  15.232  0.00  0.00    +0.000 A 
ATOM      8  C   UNL     1       6.800   5.054  16.641  0.00  0.00    +0.000 A 
ATOM      9  N   UNL     1       7.728   5.588  17.448  0.00  0.00    +0.000 NA
ATOM     10  N   UNL     1       7.249   5.286  18.666  0.00  0.00    +0.000 N 
ATOM     11  C   UNL     1       7.990   5.602  19.862  0.00  0.00    +0.000 C 
ATOM     12  N   UNL     1       6.078   4.651  18.753  0.00  0.00    +0.000 NA
ATOM     13  C   UNL     1       5.759   4.420  17.468  0.00  0.00    +0.000 A 
ENDBRANCH   1   4
BRANCH   1  14
ATOM     14  N   UNL     1       3.466   3.674  19.326  0.00  0.00    +0.000 NA
ATOM     15  H   UNL     1       4.052   3.105  19.935  0.00  0.00    +0.000 HD
BRANCH  14  16
ATOM     16  C   UNL     1       2.180   4.127  19.913  0.00  0.00    +0.000 C 
ATOM     17  C   UNL     1       2.107   3.634  21.361  0.00  0.00    +0.000 C 
BRANCH  16  21
ATOM     18  C   UNL     1       1.764   7.664  20.151  0.00  0.00    +0.000 A 
ATOM     19  N   UNL     1       2.425   7.597  18.986  0.00  0.00    +0.000 NA
ATOM     20  O   UNL     1       2.614   6.233  18.798  0.00  0.00    +0.000 OA
ATOM     21  C   UNL     1       2.046   5.612  19.870  0.00  0.00    +0.000 A 
ATOM     22  N   UNL     1       1.505   6.448  20.733  0.00  0.00    +0.000 NA
BRANCH  18  24
ATOM     23  C   UNL     1       0.458   9.721  19.701  0.00  0.00    +0.000 C 
ATOM     24  C   UNL     1       1.326   8.974  20.718  0.00  0.00    +0.000 C 
ATOM     25  C   UNL     1       0.576   8.840  22.046  0.00  0.00    +0.000 C 
ENDBRANCH  18  24
ENDBRANCH  16  21
ENDBRANCH  14  16
ENDBRANCH   1  14
TORSDOF 5
ENDMDL
MODEL 6
REMARK VINA RESULT:      -7.4      3.091      7.026
REMARK  Name = 
REMARK  9 active torsions:
REMARK  status: ('A' for Active; 'I' for Inactive)
REMARK    1  A    between atoms: C_1  and  C_2
REMARK    2  A    between atoms: C_2  and  C_3
REMARK    3  A    between atoms: C_2  and  C_4
REMARK    4  A    between atoms: C_7  and  C_8
REMARK    5  A    between atoms: C_8  and  C_9
REMARK    6  A    between atoms: C_8  and  N_10
REMARK    7  A    between atoms: N_10  and  S_11
REMARK    8  A    between atoms: S_11  and  C_14
REMARK    9  A    between atoms: N_20  and  C_21
REMARK                            x       y       z     vdW  Elec       q    Type
REMARK                         _______ _______ _______ _____ _____    ______ ____
ROOT
ATOM      1  S   UNL     1       4.362   3.262  18.904  0.00  0.00    +0.000 S 
ATOM      2  O   UNL     1       5.065   2.289  19.718  0.00  0.00    +0.000 OA
ATOM      3  O   UNL     1       3.466   2.832  17.851  0.00  0.00    +0.000 OA
ENDROOT
BRANCH   1   4
ATOM      4  C   UNL     1       5.560   4.397  18.336  0.00  0.00    +0.000 A 
ATOM      5  C   UNL     1       6.172   5.309  19.232  0.00  0.00    +0.000 A 
ATOM      6  C   UNL     1       7.177   6.231  18.835  0.00  0.00    +0.000 A 
ATOM      7  C   UNL     1       7.648   6.336  17.512  0.00  0.00    +0.000 A 
ATOM      8  C   UNL     1       7.051   5.437  16.605  0.00  0.00    +0.000 A 
ATOM      9  N   UNL     1       7.265   5.315  15.286  0.00  0.00    +0.000 NA
ATOM     10  N   UNL     1       6.422   4.322  14.956  0.00  0.00    +0.000 N 
ATOM     11  C   UNL     1       6.254   3.906  13.586  0.00  0.00    +0.000 C 
ATOM     12  N   UNL     1       5.710   3.740  15.924  0.00  0.00    +0.000 NA
ATOM     13  C   UNL     1       6.030   4.457  17.014  0.00  0.00    +0.000 A 
ENDBRANCH   1   4
BRANCH   1  14
ATOM     14  N   UNL     1       3.425   4.135  20.008  0.00  0.00    +0.000 NA
ATOM     15  H   UNL     1       3.436   3.650  20.905  0.00  0.00    +0.000 HD
BRANCH  14  16
ATOM     16  C   UNL     1       2.092   4.602  19.548  0.00  0.00    +0.000 C 
ATOM     17  C   UNL     1       1.015   3.810  20.296  0.00  0.00    +0.000 C 
BRANCH  16  21
ATOM     18  C   UNL     1       1.663   8.139  19.755  0.00  0.00    +0.000 A 
ATOM     19  N   UNL     1       1.341   7.803  21.013  0.00  0.00    +0.000 NA
ATOM     20  O   UNL     1       1.504   6.423  21.032  0.00  0.00    +0.000 OA
ATOM     21  C   UNL     1       1.909   6.063  19.782  0.00  0.00    +0.000 A 
ATOM     22  N   UNL     1       2.025   7.083  18.956  0.00  0.00    +0.000 NA
BRANCH  18  24
ATOM     23  C   UNL     1       1.953   9.645  17.808  0.00  0.00    +0.000 C 
ATOM     24  C   UNL     1       1.654   9.564  19.308  0.00  0.00    +0.000 C 
ATOM     25  C   UNL     1       0.341  10.288  19.618  0.00  0.00    +0.000 C 
ENDBRANCH  18  24
ENDBRANCH  16  21
ENDBRANCH  14  16
ENDBRANCH   1  14
TORSDOF 5
ENDMDL
MODEL 7
REMARK VINA RESULT:      -7.4      3.551      7.177
REMARK  Name = 
REMARK  9 active torsions:
REMARK  status: ('A' for Active; 'I' for Inactive)
REMARK    1  A    between atoms: C_1  and  C_2
REMARK    2  A    between atoms: C_2  and  C_3
REMARK    3  A    between atoms: C_2  and  C_4
REMARK    4  A    between atoms: C_7  and  C_8
REMARK    5  A    between atoms: C_8  and  C_9
REMARK    6  A    between atoms: C_8  and  N_10
REMARK    7  A    between atoms: N_10  and  S_11
REMARK    8  A    between atoms: S_11  and  C_14
REMARK    9  A    between atoms: N_20  and  C_21
REMARK                            x       y       z     vdW  Elec       q    Type
REMARK                         _______ _______ _______ _____ _____    ______ ____
ROOT
ATOM      1  S   UNL     1       4.227   3.749  18.647  0.00  0.00    +0.000 S 
ATOM      2  O   UNL     1       5.134   3.132  19.596  0.00  0.00    +0.000 OA
ATOM      3  O   UNL     1       3.000   3.085  18.261  0.00  0.00    +0.000 OA
ENDROOT
BRANCH   1   4
ATOM      4  C   UNL     1       5.190   4.220  17.269  0.00  0.00    +0.000 A 
ATOM      5  C   UNL     1       5.034   3.565  16.022  0.00  0.00    +0.000 A 
ATOM      6  C   UNL     1       5.764   3.927  14.858  0.00  0.00    +0.000 A 
ATOM      7  C   UNL     1       6.722   4.960  14.840  0.00  0.00    +0.000 A 
ATOM      8  C   UNL     1       6.892   5.623  16.071  0.00  0.00    +0.000 A 
ATOM      9  N   UNL     1       7.739   6.618  16.375  0.00  0.00    +0.000 NA
ATOM     10  N   UNL     1       7.467   6.832  17.674  0.00  0.00    +0.000 N 
ATOM     11  C   UNL     1       8.223   7.783  18.451  0.00  0.00    +0.000 C 
ATOM     12  N   UNL     1       6.495   6.120  18.248  0.00  0.00    +0.000 NA
ATOM     13  C   UNL     1       6.117   5.275  17.275  0.00  0.00    +0.000 A 
ENDBRANCH   1   4
BRANCH   1  14
ATOM     14  N   UNL     1       3.777   5.205  19.380  0.00  0.00    +0.000 NA
ATOM     15  H   UNL     1       4.489   5.463  20.063  0.00  0.00    +0.000 HD
BRANCH  14  16
ATOM     16  C   UNL     1       2.372   5.326  19.844  0.00  0.00    +0.000 C 
ATOM     17  C   UNL     1       2.248   4.641  21.208  0.00  0.00    +0.000 C 
BRANCH  16  21
ATOM     18  C   UNL     1       1.404   8.761  19.739  0.00  0.00    +0.000 A 
ATOM     19  N   UNL     1       0.972   8.446  20.969  0.00  0.00    +0.000 NA
ATOM     20  O   UNL     1       1.332   7.111  21.108  0.00  0.00    +0.000 OA
ATOM     21  C   UNL     1       1.946   6.752  19.946  0.00  0.00    +0.000 A 
ATOM     22  N   UNL     1       2.021   7.733  19.070  0.00  0.00    +0.000 NA
BRANCH  18  24
ATOM     23  C   UNL     1       2.073  10.297  17.913  0.00  0.00    +0.000 C 
ATOM     24  C   UNL     1       1.245  10.141  19.192  0.00  0.00    +0.000 C 
ATOM     25  C   UNL     1      -0.213  10.521  18.919  0.00  0.00    +0.000 C 
ENDBRANCH  18  24
ENDBRANCH  16  21
ENDBRANCH  14  16
ENDBRANCH   1  14
TORSDOF 5
ENDMDL
MODEL 8
REMARK VINA RESULT:      -7.4      2.415      3.178
REMARK  Name = 
REMARK  9 active torsions:
REMARK  status: ('A' for Active; 'I' for Inactive)
REMARK    1  A    between atoms: C_1  and  C_2
REMARK    2  A    between atoms: C_2  and  C_3
REMARK    3  A    between atoms: C_2  and  C_4
REMARK    4  A    between atoms: C_7  and  C_8
REMARK    5  A    between atoms: C_8  and  C_9
REMARK    6  A    between atoms: C_8  and  N_10
REMARK    7  A    between atoms: N_10  and  S_11
REMARK    8  A    between atoms: S_11  and  C_14
REMARK    9  A    between atoms: N_20  and  C_21
REMARK                            x       y       z     vdW  Elec       q    Type
REMARK                         _______ _______ _______ _____ _____    ______ ____
ROOT
ATOM      1  S   UNL     1       6.316   4.900  18.836  0.00  0.00    +0.000 S 
ATOM      2  O   UNL     1       7.117   4.010  18.017  0.00  0.00    +0.000 OA
ATOM      3  O   UNL     1       6.857   5.468  20.052  0.00  0.00    +0.000 OA
ENDROOT
BRANCH   1   4
ATOM      4  C   UNL     1       4.788   4.096  19.099  0.00  0.00    +0.000 A 
ATOM      5  C   UNL     1       4.648   2.710  18.841  0.00  0.00    +0.000 A 
ATOM      6  C   UNL     1       3.441   1.996  19.068  0.00  0.00    +0.000 A 
ATOM      7  C   UNL     1       2.267   2.603  19.556  0.00  0.00    +0.000 A 
ATOM      8  C   UNL     1       2.386   3.982  19.818  0.00  0.00    +0.000 A 
ATOM      9  N   UNL     1       1.447   4.834  20.257  0.00  0.00    +0.000 NA
ATOM     10  N   UNL     1       2.122   5.995  20.307  0.00  0.00    +0.000 N 
ATOM     11  C   UNL     1       1.464   7.230  20.654  0.00  0.00    +0.000 C 
ATOM     12  N   UNL     1       3.420   5.993  19.997  0.00  0.00    +0.000 NA
ATOM     13  C   UNL     1       3.643   4.724  19.614  0.00  0.00    +0.000 A 
ENDBRANCH   1   4
BRANCH   1  14
ATOM     14  N   UNL     1       5.954   6.199  17.816  0.00  0.00    +0.000 NA
ATOM     15  H   UNL     1       5.793   7.029  18.385  0.00  0.00    +0.000 HD
BRANCH  14  16
ATOM     16  C   UNL     1       4.962   5.960  16.738  0.00  0.00    +0.000 C 
ATOM     17  C   UNL     1       4.324   7.299  16.358  0.00  0.00    +0.000 C 
BRANCH  16  21
ATOM     18  C   UNL     1       6.147   4.330  13.791  0.00  0.00    +0.000 A 
ATOM     19  N   UNL     1       7.194   5.131  14.037  0.00  0.00    +0.000 NA
ATOM     20  O   UNL     1       6.826   5.799  15.199  0.00  0.00    +0.000 OA
ATOM     21  C   UNL     1       5.591   5.334  15.539  0.00  0.00    +0.000 A 
ATOM     22  N   UNL     1       5.128   4.424  14.706  0.00  0.00    +0.000 NA
BRANCH  18  24
ATOM     23  C   UNL     1       4.771   3.403  11.951  0.00  0.00    +0.000 C 
ATOM     24  C   UNL     1       6.145   3.395  12.627  0.00  0.00    +0.000 C 
ATOM     25  C   UNL     1       7.235   3.707  11.597  0.00  0.00    +0.000 C 
ENDBRANCH  18  24
ENDBRANCH  16  21
ENDBRANCH  14  16
ENDBRANCH   1  14
TORSDOF 5
ENDMDL
MODEL 9
REMARK VINA RESULT:      -7.4      3.594      7.010
REMARK  Name = 
REMARK  9 active torsions:
REMARK  status: ('A' for Active; 'I' for Inactive)
REMARK    1  A    between atoms: C_1  and  C_2
REMARK    2  A    between atoms: C_2  and  C_3
REMARK    3  A    between atoms: C_2  and  C_4
REMARK    4  A    between atoms: C_7  and  C_8
REMARK    5  A    between atoms: C_8  and  C_9
REMARK    6  A    between atoms: C_8  and  N_10
REMARK    7  A    between atoms: N_10  and  S_11
REMARK    8  A    between atoms: S_11  and  C_14
REMARK    9  A    between atoms: N_20  and  C_21
REMARK                            x       y       z     vdW  Elec       q    Type
REMARK                         _______ _______ _______ _____ _____    ______ ____
ROOT
ATOM      1  S   UNL     1       4.313   3.914  18.682  0.00  0.00    +0.000 S 
ATOM      2  O   UNL     1       5.197   3.340  19.678  0.00  0.00    +0.000 OA
ATOM      3  O   UNL     1       3.085   3.244  18.313  0.00  0.00    +0.000 OA
ENDROOT
BRANCH   1   4
ATOM      4  C   UNL     1       5.304   4.296  17.296  0.00  0.00    +0.000 A 
ATOM      5  C   UNL     1       5.222   3.520  16.114  0.00  0.00    +0.000 A 
ATOM      6  C   UNL     1       5.977   3.804  14.944  0.00  0.00    +0.000 A 
ATOM      7  C   UNL     1       6.889   4.874  14.857  0.00  0.00    +0.000 A 
ATOM      8  C   UNL     1       6.985   5.659  16.023  0.00  0.00    +0.000 A 
ATOM      9  N   UNL     1       7.777   6.716  16.257  0.00  0.00    +0.000 NA
ATOM     10  N   UNL     1       7.448   7.039  17.519  0.00  0.00    +0.000 N 
ATOM     11  C   UNL     1       8.134   8.094  18.225  0.00  0.00    +0.000 C 
ATOM     12  N   UNL     1       6.488   6.340  18.128  0.00  0.00    +0.000 NA
ATOM     13  C   UNL     1       6.184   5.389  17.230  0.00  0.00    +0.000 A 
ENDBRANCH   1   4
BRANCH   1  14
ATOM     14  N   UNL     1       3.870   5.413  19.326  0.00  0.00    +0.000 NA
ATOM     15  H   UNL     1       4.364   5.552  20.207  0.00  0.00    +0.000 HD
BRANCH  14  16
ATOM     16  C   UNL     1       2.422   5.743  19.344  0.00  0.00    +0.000 C 
ATOM     17  C   UNL     1       1.886   5.499  20.758  0.00  0.00    +0.000 C 
BRANCH  16  21
ATOM     18  C   UNL     1       1.746   9.191  18.714  0.00  0.00    +0.000 A 
ATOM     19  N   UNL     1       2.368   8.875  17.569  0.00  0.00    +0.000 NA
ATOM     20  O   UNL     1       2.654   7.523  17.718  0.00  0.00    +0.000 OA
ATOM     21  C   UNL     1       2.174   7.157  18.939  0.00  0.00    +0.000 A 
ATOM     22  N   UNL     1       1.602   8.147  19.594  0.00  0.00    +0.000 NA
BRANCH  18  24
ATOM     23  C   UNL     1       2.104  11.595  18.230  0.00  0.00    +0.000 C 
ATOM     24  C   UNL     1       1.229  10.571  18.959  0.00  0.00    +0.000 C 
ATOM     25  C   UNL     1      -0.235  10.751  18.551  0.00  0.00    +0.000 C 
ENDBRANCH  18  24
ENDBRANCH  16  21
ENDBRANCH  14  16
ENDBRANCH   1  14
TORSDOF 5
ENDMDL
