MODEL 1
REMARK VINA RESULT:      -6.4      0.000      0.000
REMARK  Name = 
REMARK  7 active torsions:
REMARK  status: ('A' for Active; 'I' for Inactive)
REMARK    1  A    between atoms: C_1  and  C_2
REMARK    2  A    between atoms: C_2  and  C_3
REMARK    3  A    between atoms: C_2  and  C_4
REMARK    4  A    between atoms: C_4  and  C_5
REMARK    5  A    between atoms: C_5  and  O_6
REMARK    6  A    between atoms: O_6  and  C_7
REMARK    7  A    between atoms: C_12  and  C_13
REMARK                            x       y       z     vdW  Elec       q    Type
REMARK                         _______ _______ _______ _____ _____    ______ ____
ROOT
ATOM      1  C   UNL     1       4.236   5.343  19.008  0.00  0.00    +0.000 A 
ATOM      2  C   UNL     1       3.198   5.783  19.858  0.00  0.00    +0.000 A 
ATOM      3  C   UNL     1       2.421   6.898  19.550  0.00  0.00    +0.000 A 
ATOM      4  C   UNL     1       2.670   7.606  18.389  0.00  0.00    +0.000 A 
ATOM      5  C   UNL     1       3.698   7.199  17.540  0.00  0.00    +0.000 A 
ATOM      6  C   UNL     1       4.500   6.069  17.819  0.00  0.00    +0.000 A 
ENDROOT
BRANCH   6   7
ATOM      7  C   UNL     1       5.538   5.718  16.834  0.00  0.00    +0.000 A 
ATOM      8  C   UNL     1       6.890   6.030  16.757  0.00  0.00    +0.000 A 
ATOM      9  N   UNL     1       7.473   5.523  15.628  0.00  0.00    +0.000 NA
ATOM     10  C   UNL     1       6.502   4.899  15.004  0.00  0.00    +0.000 A 
ATOM     11  N   UNL     1       5.333   4.969  15.697  0.00  0.00    +0.000 N 
ATOM     12  H   UNL     1       4.447   4.560  15.431  0.00  0.00    +0.000 HD
ENDBRANCH   6   7
BRANCH   1  13
ATOM     13  O   UNL     1       5.001   4.220  19.298  0.00  0.00    +0.000 OA
BRANCH  13  14
ATOM     14  C   UNL     1       4.256   2.997  19.412  0.00  0.00    +0.000 C 
BRANCH  14  15
ATOM     15  C   UNL     1       3.657   2.558  18.077  0.00  0.00    +0.000 C 
BRANCH  15  17
ATOM     16  C   UNL     1       1.613   2.318  19.542  0.00  0.00    +0.000 C 
ATOM     17  C   UNL     1       2.111   2.525  18.111  0.00  0.00    +0.000 C 
ATOM     18  C   UNL     1       1.470   3.788  17.525  0.00  0.00    +0.000 C 
ENDBRANCH  15  17
ENDBRANCH  14  15
ENDBRANCH  13  14
ENDBRANCH   1  13
TORSDOF 5
ENDMDL
MODEL 2
REMARK VINA RESULT:      -6.4      2.163      3.916
REMARK  Name = 
REMARK  7 active torsions:
REMARK  status: ('A' for Active; 'I' for Inactive)
REMARK    1  A    between atoms: C_1  and  C_2
REMARK    2  A    between atoms: C_2  and  C_3
REMARK    3  A    between atoms: C_2  and  C_4
REMARK    4  A    between atoms: C_4  and  C_5
REMARK    5  A    between atoms: C_5  and  O_6
REMARK    6  A    between atoms: O_6  and  C_7
REMARK    7  A    between atoms: C_12  and  C_13
REMARK                            x       y       z     vdW  Elec       q    Type
REMARK                         _______ _______ _______ _____ _____    ______ ____
ROOT
ATOM      1  C   UNL     1       4.390   5.704  18.075  0.00  0.00    +0.000 A 
ATOM      2  C   UNL     1       4.632   6.859  17.301  0.00  0.00    +0.000 A 
ATOM      3  C   UNL     1       5.081   6.778  15.984  0.00  0.00    +0.000 A 
ATOM      4  C   UNL     1       5.310   5.540  15.414  0.00  0.00    +0.000 A 
ATOM      5  C   UNL     1       5.091   4.385  16.164  0.00  0.00    +0.000 A 
ATOM      6  C   UNL     1       4.628   4.432  17.498  0.00  0.00    +0.000 A 
ENDROOT
BRANCH   6   7
ATOM      7  C   UNL     1       4.406   3.145  18.181  0.00  0.00    +0.000 A 
ATOM      8  C   UNL     1       3.601   2.056  17.872  0.00  0.00    +0.000 A 
ATOM      9  N   UNL     1       3.669   1.076  18.826  0.00  0.00    +0.000 NA
ATOM     10  C   UNL     1       4.507   1.542  19.720  0.00  0.00    +0.000 A 
ATOM     11  N   UNL     1       4.992   2.764  19.369  0.00  0.00    +0.000 N 
ATOM     12  H   UNL     1       5.657   3.324  19.886  0.00  0.00    +0.000 HD
ENDBRANCH   6   7
BRANCH   1  13
ATOM     13  O   UNL     1       3.921   5.776  19.381  0.00  0.00    +0.000 OA
BRANCH  13  14
ATOM     14  C   UNL     1       2.648   6.425  19.529  0.00  0.00    +0.000 C 
BRANCH  14  15
ATOM     15  C   UNL     1       1.721   5.669  20.479  0.00  0.00    +0.000 C 
BRANCH  15  17
ATOM     16  C   UNL     1       2.207   3.548  21.761  0.00  0.00    +0.000 C 
ATOM     17  C   UNL     1       1.908   4.137  20.383  0.00  0.00    +0.000 C 
ATOM     18  C   UNL     1       0.697   3.421  19.773  0.00  0.00    +0.000 C 
ENDBRANCH  15  17
ENDBRANCH  14  15
ENDBRANCH  13  14
ENDBRANCH   1  13
TORSDOF 5
ENDMDL
MODEL 3
REMARK VINA RESULT:      -6.2      0.944      1.161
REMARK  Name = 
REMARK  7 active torsions:
REMARK  status: ('A' for Active; 'I' for Inactive)
REMARK    1  A    between atoms: C_1  and  C_2
REMARK    2  A    between atoms: C_2  and  C_3
REMARK    3  A    between atoms: C_2  and  C_4
REMARK    4  A    between atoms: C_4  and  C_5
REMARK    5  A    between atoms: C_5  and  O_6
REMARK    6  A    between atoms: O_6  and  C_7
REMARK    7  A    between atoms: C_12  and  C_13
REMARK                            x       y       z     vdW  Elec       q    Type
REMARK                         _______ _______ _______ _____ _____    ______ ____
ROOT
ATOM      1  C   UNL     1       3.958   5.471  18.892  0.00  0.00    +0.000 A 
ATOM      2  C   UNL     1       2.958   5.984  19.746  0.00  0.00    +0.000 A 
ATOM      3  C   UNL     1       2.279   7.166  19.454  0.00  0.00    +0.000 A 
ATOM      4  C   UNL     1       2.594   7.870  18.307  0.00  0.00    +0.000 A 
ATOM      5  C   UNL     1       3.587   7.390  17.455  0.00  0.00    +0.000 A 
ATOM      6  C   UNL     1       4.288   6.192  17.717  0.00  0.00    +0.000 A 
ENDROOT
BRANCH   6   7
ATOM      7  C   UNL     1       5.298   5.770  16.729  0.00  0.00    +0.000 A 
ATOM      8  C   UNL     1       5.386   5.951  15.355  0.00  0.00    +0.000 A 
ATOM      9  N   UNL     1       6.489   5.341  14.822  0.00  0.00    +0.000 NA
ATOM     10  C   UNL     1       7.088   4.785  15.849  0.00  0.00    +0.000 A 
ATOM     11  N   UNL     1       6.426   5.032  17.012  0.00  0.00    +0.000 N 
ATOM     12  H   UNL     1       6.692   4.722  17.938  0.00  0.00    +0.000 HD
ENDBRANCH   6   7
BRANCH   1  13
ATOM     13  O   UNL     1       4.623   4.282  19.165  0.00  0.00    +0.000 OA
BRANCH  13  14
ATOM     14  C   UNL     1       3.936   3.096  18.735  0.00  0.00    +0.000 C 
BRANCH  14  15
ATOM     15  C   UNL     1       3.336   2.320  19.906  0.00  0.00    +0.000 C 
BRANCH  15  17
ATOM     16  C   UNL     1       1.214   3.028  21.079  0.00  0.00    +0.000 C 
ATOM     17  C   UNL     1       1.789   2.301  19.864  0.00  0.00    +0.000 C 
ATOM     18  C   UNL     1       1.216   2.917  18.582  0.00  0.00    +0.000 C 
ENDBRANCH  15  17
ENDBRANCH  14  15
ENDBRANCH  13  14
ENDBRANCH   1  13
TORSDOF 5
ENDMDL
MODEL 4
REMARK VINA RESULT:      -6.1      1.111      1.372
REMARK  Name = 
REMARK  7 active torsions:
REMARK  status: ('A' for Active; 'I' for Inactive)
REMARK    1  A    between atoms: C_1  and  C_2
REMARK    2  A    between atoms: C_2  and  C_3
REMARK    3  A    between atoms: C_2  and  C_4
REMARK    4  A    between atoms: C_4  and  C_5
REMARK    5  A    between atoms: C_5  and  O_6
REMARK    6  A    between atoms: O_6  and  C_7
REMARK    7  A    between atoms: C_12  and  C_13
REMARK                            x       y       z     vdW  Elec       q    Type
REMARK                         _______ _______ _______ _____ _____    ______ ____
ROOT
ATOM      1  C   UNL     1       3.723   4.952  17.756  0.00  0.00    +0.000 A 
ATOM      2  C   UNL     1       2.675   5.459  18.553  0.00  0.00    +0.000 A 
ATOM      3  C   UNL     1       2.376   6.821  18.593  0.00  0.00    +0.000 A 
ATOM      4  C   UNL     1       3.128   7.708  17.846  0.00  0.00    +0.000 A 
ATOM      5  C   UNL     1       4.178   7.232  17.062  0.00  0.00    +0.000 A 
ATOM      6  C   UNL     1       4.501   5.858  16.992  0.00  0.00    +0.000 A 
ENDROOT
BRANCH   6   7
ATOM      7  C   UNL     1       5.613   5.470  16.107  0.00  0.00    +0.000 A 
ATOM      8  C   UNL     1       6.966   5.786  16.121  0.00  0.00    +0.000 A 
ATOM      9  N   UNL     1       7.637   5.234  15.063  0.00  0.00    +0.000 NA
ATOM     10  C   UNL     1       6.718   4.578  14.394  0.00  0.00    +0.000 A 
ATOM     11  N   UNL     1       5.498   4.670  14.991  0.00  0.00    +0.000 N 
ATOM     12  H   UNL     1       4.636   4.245  14.676  0.00  0.00    +0.000 HD
ENDBRANCH   6   7
BRANCH   1  13
ATOM     13  O   UNL     1       4.013   3.594  17.694  0.00  0.00    +0.000 OA
BRANCH  13  14
ATOM     14  C   UNL     1       2.886   2.729  17.908  0.00  0.00    +0.000 C 
BRANCH  14  15
ATOM     15  C   UNL     1       2.910   2.081  19.292  0.00  0.00    +0.000 C 
BRANCH  15  17
ATOM     16  C   UNL     1       1.701   3.058  21.283  0.00  0.00    +0.000 C 
ATOM     17  C   UNL     1       1.551   2.210  20.021  0.00  0.00    +0.000 C 
ATOM     18  C   UNL     1       0.448   2.801  19.135  0.00  0.00    +0.000 C 
ENDBRANCH  15  17
ENDBRANCH  14  15
ENDBRANCH  13  14
ENDBRANCH   1  13
TORSDOF 5
ENDMDL
MODEL 5
REMARK VINA RESULT:      -6.1      1.157      1.513
REMARK  Name = 
REMARK  7 active torsions:
REMARK  status: ('A' for Active; 'I' for Inactive)
REMARK    1  A    between atoms: C_1  and  C_2
REMARK    2  A    between atoms: C_2  and  C_3
REMARK    3  A    between atoms: C_2  and  C_4
REMARK    4  A    between atoms: C_4  and  C_5
REMARK    5  A    between atoms: C_5  and  O_6
REMARK    6  A    between atoms: O_6  and  C_7
REMARK    7  A    between atoms: C_12  and  C_13
REMARK                            x       y       z     vdW  Elec       q    Type
REMARK                         _______ _______ _______ _____ _____    ______ ____
ROOT
ATOM      1  C   UNL     1       3.557   5.243  17.871  0.00  0.00    +0.000 A 
ATOM      2  C   UNL     1       2.506   5.859  18.582  0.00  0.00    +0.000 A 
ATOM      3  C   UNL     1       2.287   7.234  18.523  0.00  0.00    +0.000 A 
ATOM      4  C   UNL     1       3.123   8.028  17.760  0.00  0.00    +0.000 A 
ATOM      5  C   UNL     1       4.177   7.443  17.059  0.00  0.00    +0.000 A 
ATOM      6  C   UNL     1       4.421   6.052  17.091  0.00  0.00    +0.000 A 
ENDROOT
BRANCH   6   7
ATOM      7  C   UNL     1       5.548   5.545  16.287  0.00  0.00    +0.000 A 
ATOM      8  C   UNL     1       6.903   5.850  16.290  0.00  0.00    +0.000 A 
ATOM      9  N   UNL     1       7.590   5.162  15.326  0.00  0.00    +0.000 NA
ATOM     10  C   UNL     1       6.679   4.434  14.727  0.00  0.00    +0.000 A 
ATOM     11  N   UNL     1       5.448   4.611  15.280  0.00  0.00    +0.000 N 
ATOM     12  H   UNL     1       4.588   4.157  15.002  0.00  0.00    +0.000 HD
ENDBRANCH   6   7
BRANCH   1  13
ATOM     13  O   UNL     1       3.768   3.870  17.907  0.00  0.00    +0.000 OA
BRANCH  13  14
ATOM     14  C   UNL     1       4.204   3.361  19.179  0.00  0.00    +0.000 C 
BRANCH  14  15
ATOM     15  C   UNL     1       3.234   2.327  19.750  0.00  0.00    +0.000 C 
BRANCH  15  17
ATOM     16  C   UNL     1       0.768   2.555  19.254  0.00  0.00    +0.000 C 
ATOM     17  C   UNL     1       1.898   2.964  20.199  0.00  0.00    +0.000 C 
ATOM     18  C   UNL     1       1.515   2.604  21.639  0.00  0.00    +0.000 C 
ENDBRANCH  15  17
ENDBRANCH  14  15
ENDBRANCH  13  14
ENDBRANCH   1  13
TORSDOF 5
ENDMDL
MODEL 6
REMARK VINA RESULT:      -6.0      2.504      4.808
REMARK  Name = 
REMARK  7 active torsions:
REMARK  status: ('A' for Active; 'I' for Inactive)
REMARK    1  A    between atoms: C_1  and  C_2
REMARK    2  A    between atoms: C_2  and  C_3
REMARK    3  A    between atoms: C_2  and  C_4
REMARK    4  A    between atoms: C_4  and  C_5
REMARK    5  A    between atoms: C_5  and  O_6
REMARK    6  A    between atoms: O_6  and  C_7
REMARK    7  A    between atoms: C_12  and  C_13
REMARK                            x       y       z     vdW  Elec       q    Type
REMARK                         _______ _______ _______ _____ _____    ______ ____
ROOT
ATOM      1  C   UNL     1       4.143   4.530  18.983  0.00  0.00    +0.000 A 
ATOM      2  C   UNL     1       4.436   3.212  18.573  0.00  0.00    +0.000 A 
ATOM      3  C   UNL     1       3.532   2.458  17.826  0.00  0.00    +0.000 A 
ATOM      4  C   UNL     1       2.308   3.001  17.482  0.00  0.00    +0.000 A 
ATOM      5  C   UNL     1       1.991   4.297  17.887  0.00  0.00    +0.000 A 
ATOM      6  C   UNL     1       2.887   5.090  18.638  0.00  0.00    +0.000 A 
ENDROOT
BRANCH   6   7
ATOM      7  C   UNL     1       2.453   6.455  18.985  0.00  0.00    +0.000 A 
ATOM      8  C   UNL     1       2.272   7.597  18.214  0.00  0.00    +0.000 A 
ATOM      9  N   UNL     1       1.897   8.675  18.969  0.00  0.00    +0.000 NA
ATOM     10  C   UNL     1       1.841   8.218  20.197  0.00  0.00    +0.000 A 
ATOM     11  N   UNL     1       2.143   6.891  20.254  0.00  0.00    +0.000 N 
ATOM     12  H   UNL     1       2.159   6.309  21.081  0.00  0.00    +0.000 HD
ENDBRANCH   6   7
BRANCH   1  13
ATOM     13  O   UNL     1       5.047   5.296  19.709  0.00  0.00    +0.000 OA
BRANCH  13  14
ATOM     14  C   UNL     1       6.281   5.577  19.027  0.00  0.00    +0.000 C 
BRANCH  14  15
ATOM     15  C   UNL     1       6.072   6.457  17.795  0.00  0.00    +0.000 C 
BRANCH  15  17
ATOM     16  C   UNL     1       7.368   4.517  16.828  0.00  0.00    +0.000 C 
ATOM     17  C   UNL     1       6.559   5.771  16.497  0.00  0.00    +0.000 C 
ATOM     18  C   UNL     1       5.414   5.404  15.546  0.00  0.00    +0.000 C 
ENDBRANCH  15  17
ENDBRANCH  14  15
ENDBRANCH  13  14
ENDBRANCH   1  13
TORSDOF 5
ENDMDL
MODEL 7
REMARK VINA RESULT:      -6.0      1.822      4.324
REMARK  Name = 
REMARK  7 active torsions:
REMARK  status: ('A' for Active; 'I' for Inactive)
REMARK    1  A    between atoms: C_1  and  C_2
REMARK    2  A    between atoms: C_2  and  C_3
REMARK    3  A    between atoms: C_2  and  C_4
REMARK    4  A    between atoms: C_4  and  C_5
REMARK    5  A    between atoms: C_5  and  O_6
REMARK    6  A    between atoms: O_6  and  C_7
REMARK    7  A    between atoms: C_12  and  C_13
REMARK                            x       y       z     vdW  Elec       q    Type
REMARK                         _______ _______ _______ _____ _____    ______ ____
ROOT
ATOM      1  C   UNL     1       3.044   4.807  17.868  0.00  0.00    +0.000 A 
ATOM      2  C   UNL     1       1.750   4.315  18.140  0.00  0.00    +0.000 A 
ATOM      3  C   UNL     1       1.495   2.949  18.263  0.00  0.00    +0.000 A 
ATOM      4  C   UNL     1       2.528   2.044  18.107  0.00  0.00    +0.000 A 
ATOM      5  C   UNL     1       3.813   2.507  17.825  0.00  0.00    +0.000 A 
ATOM      6  C   UNL     1       4.106   3.884  17.701  0.00  0.00    +0.000 A 
ENDROOT
BRANCH   6   7
ATOM      7  C   UNL     1       5.507   4.254  17.431  0.00  0.00    +0.000 A 
ATOM      8  C   UNL     1       6.162   4.616  16.261  0.00  0.00    +0.000 A 
ATOM      9  N   UNL     1       7.498   4.836  16.464  0.00  0.00    +0.000 NA
ATOM     10  C   UNL     1       7.679   4.618  17.744  0.00  0.00    +0.000 A 
ATOM     11  N   UNL     1       6.514   4.289  18.369  0.00  0.00    +0.000 N 
ATOM     12  H   UNL     1       6.391   4.085  19.351  0.00  0.00    +0.000 HD
ENDBRANCH   6   7
BRANCH   1  13
ATOM     13  O   UNL     1       3.309   6.167  17.765  0.00  0.00    +0.000 OA
BRANCH  13  14
ATOM     14  C   UNL     1       2.259   7.024  18.243  0.00  0.00    +0.000 C 
BRANCH  14  15
ATOM     15  C   UNL     1       2.492   8.487  17.870  0.00  0.00    +0.000 C 
BRANCH  15  17
ATOM     16  C   UNL     1       0.242   9.636  17.870  0.00  0.00    +0.000 C 
ATOM     17  C   UNL     1       1.550   9.444  18.638  0.00  0.00    +0.000 C 
ATOM     18  C   UNL     1       1.240   8.966  20.061  0.00  0.00    +0.000 C 
ENDBRANCH  15  17
ENDBRANCH  14  15
ENDBRANCH  13  14
ENDBRANCH   1  13
TORSDOF 5
ENDMDL
MODEL 8
REMARK VINA RESULT:      -6.0      2.623      5.341
REMARK  Name = 
REMARK  7 active torsions:
REMARK  status: ('A' for Active; 'I' for Inactive)
REMARK    1  A    between atoms: C_1  and  C_2
REMARK    2  A    between atoms: C_2  and  C_3
REMARK    3  A    between atoms: C_2  and  C_4
REMARK    4  A    between atoms: C_4  and  C_5
REMARK    5  A    between atoms: C_5  and  O_6
REMARK    6  A    between atoms: O_6  and  C_7
REMARK    7  A    between atoms: C_12  and  C_13
REMARK                            x       y       z     vdW  Elec       q    Type
REMARK                         _______ _______ _______ _____ _____    ______ ____
ROOT
ATOM      1  C   UNL     1       6.054   4.268  16.877  0.00  0.00    +0.000 A 
ATOM      2  C   UNL     1       7.386   4.694  17.073  0.00  0.00    +0.000 A 
ATOM      3  C   UNL     1       7.799   5.285  18.265  0.00  0.00    +0.000 A 
ATOM      4  C   UNL     1       6.887   5.475  19.287  0.00  0.00    +0.000 A 
ATOM      5  C   UNL     1       5.563   5.075  19.112  0.00  0.00    +0.000 A 
ATOM      6  C   UNL     1       5.114   4.466  17.919  0.00  0.00    +0.000 A 
ENDROOT
BRANCH   6   7
ATOM      7  C   UNL     1       3.698   4.059  17.860  0.00  0.00    +0.000 A 
ATOM      8  C   UNL     1       3.090   2.810  17.831  0.00  0.00    +0.000 A 
ATOM      9  N   UNL     1       1.729   2.900  17.728  0.00  0.00    +0.000 NA
ATOM     10  C   UNL     1       1.483   4.189  17.695  0.00  0.00    +0.000 A 
ATOM     11  N   UNL     1       2.626   4.922  17.794  0.00  0.00    +0.000 N 
ATOM     12  H   UNL     1       2.700   5.930  17.802  0.00  0.00    +0.000 HD
ENDBRANCH   6   7
BRANCH   1  13
ATOM     13  O   UNL     1       5.640   3.658  15.700  0.00  0.00    +0.000 OA
BRANCH  13  14
ATOM     14  C   UNL     1       5.516   4.543  14.575  0.00  0.00    +0.000 C 
BRANCH  14  15
ATOM     15  C   UNL     1       6.488   4.188  13.450  0.00  0.00    +0.000 C 
BRANCH  15  17
ATOM     16  C   UNL     1       4.678   3.530  11.816  0.00  0.00    +0.000 C 
ATOM     17  C   UNL     1       5.942   3.064  12.538  0.00  0.00    +0.000 C 
ATOM     18  C   UNL     1       6.967   2.575  11.509  0.00  0.00    +0.000 C 
ENDBRANCH  15  17
ENDBRANCH  14  15
ENDBRANCH  13  14
ENDBRANCH   1  13
TORSDOF 5
ENDMDL
MODEL 9
REMARK VINA RESULT:      -6.0      2.781      5.307
REMARK  Name = 
REMARK  7 active torsions:
REMARK  status: ('A' for Active; 'I' for Inactive)
REMARK    1  A    between atoms: C_1  and  C_2
REMARK    2  A    between atoms: C_2  and  C_3
REMARK    3  A    between atoms: C_2  and  C_4
REMARK    4  A    between atoms: C_4  and  C_5
REMARK    5  A    between atoms: C_5  and  O_6
REMARK    6  A    between atoms: O_6  and  C_7
REMARK    7  A    between atoms: C_12  and  C_13
REMARK                            x       y       z     vdW  Elec       q    Type
REMARK                         _______ _______ _______ _____ _____    ______ ____
ROOT
ATOM      1  C   UNL     1       5.879   5.141  17.142  0.00  0.00    +0.000 A 
ATOM      2  C   UNL     1       6.839   6.057  16.660  0.00  0.00    +0.000 A 
ATOM      3  C   UNL     1       7.758   6.671  17.510  0.00  0.00    +0.000 A 
ATOM      4  C   UNL     1       7.732   6.391  18.863  0.00  0.00    +0.000 A 
ATOM      5  C   UNL     1       6.784   5.500  19.364  0.00  0.00    +0.000 A 
ATOM      6  C   UNL     1       5.844   4.855  18.530  0.00  0.00    +0.000 A 
ENDROOT
BRANCH   6   7
ATOM      7  C   UNL     1       4.910   3.910  19.169  0.00  0.00    +0.000 A 
ATOM      8  C   UNL     1       3.592   4.046  19.587  0.00  0.00    +0.000 A 
ATOM      9  N   UNL     1       3.119   2.908  20.182  0.00  0.00    +0.000 NA
ATOM     10  C   UNL     1       4.124   2.067  20.135  0.00  0.00    +0.000 A 
ATOM     11  N   UNL     1       5.209   2.612  19.519  0.00  0.00    +0.000 N 
ATOM     12  H   UNL     1       6.100   2.163  19.352  0.00  0.00    +0.000 HD
ENDBRANCH   6   7
BRANCH   1  13
ATOM     13  O   UNL     1       4.974   4.508  16.299  0.00  0.00    +0.000 OA
BRANCH  13  14
ATOM     14  C   UNL     1       5.572   3.716  15.260  0.00  0.00    +0.000 C 
BRANCH  14  15
ATOM     15  C   UNL     1       5.455   4.378  13.888  0.00  0.00    +0.000 C 
BRANCH  15  17
ATOM     16  C   UNL     1       4.758   3.221  11.754  0.00  0.00    +0.000 C 
ATOM     17  C   UNL     1       5.902   3.437  12.744  0.00  0.00    +0.000 C 
ATOM     18  C   UNL     1       7.137   3.948  11.994  0.00  0.00    +0.000 C 
ENDBRANCH  15  17
ENDBRANCH  14  15
ENDBRANCH  13  14
ENDBRANCH   1  13
TORSDOF 5
ENDMDL
