MODEL 1
REMARK VINA RESULT:      -7.5      0.000      0.000
REMARK  Name = 
REMARK  5 active torsions:
REMARK  status: ('A' for Active; 'I' for Inactive)
REMARK    1  A    between atoms: C_1  and  O_2
REMARK    2  A    between atoms: O_2  and  C_3
REMARK    3  A    between atoms: C_11  and  N_12
REMARK    4  A    between atoms: N_12  and  C_13
REMARK    5  A    between atoms: C_13  and  C_14
REMARK                            x       y       z     vdW  Elec       q    Type
REMARK                         _______ _______ _______ _____ _____    ______ ____
ROOT
ATOM      1  C   UNL     1       1.614   4.308  20.158  0.00  0.00    +0.000 A 
ATOM      2  C   UNL     1       1.323   5.528  20.811  0.00  0.00    +0.000 A 
ATOM      3  C   UNL     1       1.823   6.731  20.325  0.00  0.00    +0.000 A 
ATOM      4  C   UNL     1       2.640   6.743  19.200  0.00  0.00    +0.000 A 
ATOM      5  C   UNL     1       2.961   5.550  18.541  0.00  0.00    +0.000 A 
ATOM      6  C   UNL     1       2.425   4.323  19.000  0.00  0.00    +0.000 A 
ATOM      7  C   UNL     1       2.709   3.031  18.259  0.00  0.00    +0.000 C 
ATOM      8  C   UNL     1       3.300   3.253  16.853  0.00  0.00    +0.000 C 
ATOM      9  C   UNL     1       4.454   4.250  16.921  0.00  0.00    +0.000 C 
ATOM     10  C   UNL     1       3.895   5.625  17.365  0.00  0.00    +0.000 C 
ENDROOT
BRANCH   1  12
ATOM     11  C   UNL     1       1.468   2.528  21.816  0.00  0.00    +0.000 C 
ATOM     12  O   UNL     1       1.131   3.123  20.615  0.00  0.00    +0.000 OA
ENDBRANCH   1  12
BRANCH   9  13
ATOM     13  N   UNL     1       5.136   4.340  15.612  0.00  0.00    +0.000 NA
ATOM     14  H   UNL     1       4.874   5.237  15.138  0.00  0.00    +0.000 HD
BRANCH  13  15
ATOM     15  C   UNL     1       6.601   4.264  15.736  0.00  0.00    +0.000 C 
BRANCH  15  16
ATOM     16  C   UNL     1       7.105   5.222  16.781  0.00  0.00    +0.000 A 
ATOM     17  C   UNL     1       7.533   4.743  18.033  0.00  0.00    +0.000 A 
ATOM     18  C   UNL     1       8.014   5.626  19.000  0.00  0.00    +0.000 A 
ATOM     19  C   UNL     1       8.074   6.995  18.727  0.00  0.00    +0.000 A 
ATOM     20  C   UNL     1       7.651   7.481  17.486  0.00  0.00    +0.000 A 
ATOM     21  C   UNL     1       7.167   6.598  16.515  0.00  0.00    +0.000 A 
ENDBRANCH  15  16
ENDBRANCH  13  15
ENDBRANCH   9  13
TORSDOF 4
ENDMDL
MODEL 2
REMARK VINA RESULT:      -7.5      2.042      3.773
REMARK  Name = 
REMARK  5 active torsions:
REMARK  status: ('A' for Active; 'I' for Inactive)
REMARK    1  A    between atoms: C_1  and  O_2
REMARK    2  A    between atoms: O_2  and  C_3
REMARK    3  A    between atoms: C_11  and  N_12
REMARK    4  A    between atoms: N_12  and  C_13
REMARK    5  A    between atoms: C_13  and  C_14
REMARK                            x       y       z     vdW  Elec       q    Type
REMARK                         _______ _______ _______ _____ _____    ______ ____
ROOT
ATOM      1  C   UNL     1       1.904   4.993  20.299  0.00  0.00    +0.000 A 
ATOM      2  C   UNL     1       0.792   4.123  20.353  0.00  0.00    +0.000 A 
ATOM      3  C   UNL     1       0.763   2.957  19.594  0.00  0.00    +0.000 A 
ATOM      4  C   UNL     1       1.825   2.647  18.752  0.00  0.00    +0.000 A 
ATOM      5  C   UNL     1       2.935   3.497  18.664  0.00  0.00    +0.000 A 
ATOM      6  C   UNL     1       2.995   4.665  19.461  0.00  0.00    +0.000 A 
ATOM      7  C   UNL     1       4.218   5.561  19.427  0.00  0.00    +0.000 C 
ATOM      8  C   UNL     1       5.436   4.902  18.751  0.00  0.00    +0.000 C 
ATOM      9  C   UNL     1       5.026   4.283  17.417  0.00  0.00    +0.000 C 
ATOM     10  C   UNL     1       4.024   3.134  17.693  0.00  0.00    +0.000 C 
ENDROOT
BRANCH   1  12
ATOM     11  C   UNL     1       1.379   7.340  20.685  0.00  0.00    +0.000 C 
ATOM     12  O   UNL     1       1.953   6.133  21.036  0.00  0.00    +0.000 OA
ENDBRANCH   1  12
BRANCH   9  13
ATOM     13  N   UNL     1       6.216   3.800  16.684  0.00  0.00    +0.000 NA
ATOM     14  H   UNL     1       5.933   3.054  16.005  0.00  0.00    +0.000 HD
BRANCH  13  15
ATOM     15  C   UNL     1       6.907   4.881  15.963  0.00  0.00    +0.000 C 
BRANCH  15  16
ATOM     16  C   UNL     1       6.919   4.621  14.482  0.00  0.00    +0.000 A 
ATOM     17  C   UNL     1       6.063   3.651  13.927  0.00  0.00    +0.000 A 
ATOM     18  C   UNL     1       6.060   3.416  12.551  0.00  0.00    +0.000 A 
ATOM     19  C   UNL     1       6.909   4.146  11.716  0.00  0.00    +0.000 A 
ATOM     20  C   UNL     1       7.763   5.111  12.258  0.00  0.00    +0.000 A 
ATOM     21  C   UNL     1       7.770   5.348  13.636  0.00  0.00    +0.000 A 
ENDBRANCH  15  16
ENDBRANCH  13  15
ENDBRANCH   9  13
TORSDOF 4
ENDMDL
MODEL 3
REMARK VINA RESULT:      -7.3      3.532      5.891
REMARK  Name = 
REMARK  5 active torsions:
REMARK  status: ('A' for Active; 'I' for Inactive)
REMARK    1  A    between atoms: C_1  and  O_2
REMARK    2  A    between atoms: O_2  and  C_3
REMARK    3  A    between atoms: C_11  and  N_12
REMARK    4  A    between atoms: N_12  and  C_13
REMARK    5  A    between atoms: C_13  and  C_14
REMARK                            x       y       z     vdW  Elec       q    Type
REMARK                         _______ _______ _______ _____ _____    ______ ____
ROOT
ATOM      1  C   UNL     1       0.096  10.253  19.629  0.00  0.00    +0.000 A 
ATOM      2  C   UNL     1      -0.349  10.308  20.969  0.00  0.00    +0.000 A 
ATOM      3  C   UNL     1       0.126   9.403  21.914  0.00  0.00    +0.000 A 
ATOM      4  C   UNL     1       1.030   8.416  21.540  0.00  0.00    +0.000 A 
ATOM      5  C   UNL     1       1.477   8.324  20.216  0.00  0.00    +0.000 A 
ATOM      6  C   UNL     1       1.034   9.263  19.254  0.00  0.00    +0.000 A 
ATOM      7  C   UNL     1       1.559   9.218  17.833  0.00  0.00    +0.000 C 
ATOM      8  C   UNL     1       2.807   8.329  17.673  0.00  0.00    +0.000 C 
ATOM      9  C   UNL     1       2.576   6.975  18.341  0.00  0.00    +0.000 C 
ATOM     10  C   UNL     1       2.410   7.198  19.864  0.00  0.00    +0.000 C 
ENDROOT
BRANCH   1  12
ATOM     11  C   UNL     1      -1.592  11.740  18.694  0.00  0.00    +0.000 C 
ATOM     12  O   UNL     1      -0.352  11.130  18.693  0.00  0.00    +0.000 OA
ENDBRANCH   1  12
BRANCH   9  13
ATOM     13  N   UNL     1       3.697   6.056  18.047  0.00  0.00    +0.000 NA
ATOM     14  H   UNL     1       4.304   5.958  18.895  0.00  0.00    +0.000 HD
BRANCH  13  15
ATOM     15  C   UNL     1       3.233   4.726  17.620  0.00  0.00    +0.000 C 
BRANCH  15  16
ATOM     16  C   UNL     1       2.605   3.980  18.766  0.00  0.00    +0.000 A 
ATOM     17  C   UNL     1       3.371   3.644  19.897  0.00  0.00    +0.000 A 
ATOM     18  C   UNL     1       2.789   2.965  20.968  0.00  0.00    +0.000 A 
ATOM     19  C   UNL     1       1.438   2.617  20.922  0.00  0.00    +0.000 A 
ATOM     20  C   UNL     1       0.667   2.945  19.802  0.00  0.00    +0.000 A 
ATOM     21  C   UNL     1       1.248   3.624  18.726  0.00  0.00    +0.000 A 
ENDBRANCH  15  16
ENDBRANCH  13  15
ENDBRANCH   9  13
TORSDOF 4
ENDMDL
MODEL 4
REMARK VINA RESULT:      -7.2      1.949      3.388
REMARK  Name = 
REMARK  5 active torsions:
REMARK  status: ('A' for Active; 'I' for Inactive)
REMARK    1  A    between atoms: C_1  and  O_2
REMARK    2  A    between atoms: O_2  and  C_3
REMARK    3  A    between atoms: C_11  and  N_12
REMARK    4  A    between atoms: N_12  and  C_13
REMARK    5  A    between atoms: C_13  and  C_14
REMARK                            x       y       z     vdW  Elec       q    Type
REMARK                         _______ _______ _______ _____ _____    ______ ____
ROOT
ATOM      1  C   UNL     1       2.406   4.545  20.299  0.00  0.00    +0.000 A 
ATOM      2  C   UNL     1       1.634   5.517  20.975  0.00  0.00    +0.000 A 
ATOM      3  C   UNL     1       1.610   6.837  20.535  0.00  0.00    +0.000 A 
ATOM      4  C   UNL     1       2.368   7.219  19.435  0.00  0.00    +0.000 A 
ATOM      5  C   UNL     1       3.156   6.282  18.754  0.00  0.00    +0.000 A 
ATOM      6  C   UNL     1       3.158   4.928  19.165  0.00  0.00    +0.000 A 
ATOM      7  C   UNL     1       3.953   3.890  18.398  0.00  0.00    +0.000 C 
ATOM      8  C   UNL     1       4.423   4.382  17.016  0.00  0.00    +0.000 C 
ATOM      9  C   UNL     1       5.072   5.759  17.142  0.00  0.00    +0.000 C 
ATOM     10  C   UNL     1       3.996   6.771  17.606  0.00  0.00    +0.000 C 
ENDROOT
BRANCH   1  12
ATOM     11  C   UNL     1       1.572   2.676  21.621  0.00  0.00    +0.000 C 
ATOM     12  O   UNL     1       2.438   3.250  20.710  0.00  0.00    +0.000 OA
ENDBRANCH   1  12
BRANCH   9  13
ATOM     13  N   UNL     1       5.679   6.164  15.855  0.00  0.00    +0.000 NA
ATOM     14  H   UNL     1       5.942   7.177  15.893  0.00  0.00    +0.000 HD
BRANCH  13  15
ATOM     15  C   UNL     1       6.866   5.362  15.518  0.00  0.00    +0.000 C 
BRANCH  15  16
ATOM     16  C   UNL     1       6.739   4.759  14.147  0.00  0.00    +0.000 A 
ATOM     17  C   UNL     1       7.662   5.092  13.138  0.00  0.00    +0.000 A 
ATOM     18  C   UNL     1       7.557   4.524  11.868  0.00  0.00    +0.000 A 
ATOM     19  C   UNL     1       6.531   3.617  11.592  0.00  0.00    +0.000 A 
ATOM     20  C   UNL     1       5.608   3.280  12.587  0.00  0.00    +0.000 A 
ATOM     21  C   UNL     1       5.709   3.849  13.860  0.00  0.00    +0.000 A 
ENDBRANCH  15  16
ENDBRANCH  13  15
ENDBRANCH   9  13
TORSDOF 4
ENDMDL
MODEL 5
REMARK VINA RESULT:      -7.2      2.429      3.662
REMARK  Name = 
REMARK  5 active torsions:
REMARK  status: ('A' for Active; 'I' for Inactive)
REMARK    1  A    between atoms: C_1  and  O_2
REMARK    2  A    between atoms: O_2  and  C_3
REMARK    3  A    between atoms: C_11  and  N_12
REMARK    4  A    between atoms: N_12  and  C_13
REMARK    5  A    between atoms: C_13  and  C_14
REMARK                            x       y       z     vdW  Elec       q    Type
REMARK                         _______ _______ _______ _____ _____    ______ ____
ROOT
ATOM      1  C   UNL     1       1.025   9.007  20.698  0.00  0.00    +0.000 A 
ATOM      2  C   UNL     1       0.744  10.194  19.986  0.00  0.00    +0.000 A 
ATOM      3  C   UNL     1       1.060  10.305  18.635  0.00  0.00    +0.000 A 
ATOM      4  C   UNL     1       1.681   9.251  17.976  0.00  0.00    +0.000 A 
ATOM      5  C   UNL     1       1.988   8.067  18.658  0.00  0.00    +0.000 A 
ATOM      6  C   UNL     1       1.635   7.925  20.021  0.00  0.00    +0.000 A 
ATOM      7  C   UNL     1       1.900   6.626  20.756  0.00  0.00    +0.000 C 
ATOM      8  C   UNL     1       2.237   5.453  19.816  0.00  0.00    +0.000 C 
ATOM      9  C   UNL     1       3.302   5.877  18.808  0.00  0.00    +0.000 C 
ATOM     10  C   UNL     1       2.711   6.986  17.902  0.00  0.00    +0.000 C 
ENDROOT
BRANCH   1  12
ATOM     11  C   UNL     1      -0.296   9.547  22.673  0.00  0.00    +0.000 C 
ATOM     12  O   UNL     1       0.719   8.877  22.016  0.00  0.00    +0.000 OA
ENDBRANCH   1  12
BRANCH   9  13
ATOM     13  N   UNL     1       3.755   4.714  18.014  0.00  0.00    +0.000 NA
ATOM     14  H   UNL     1       2.926   4.235  17.587  0.00  0.00    +0.000 HD
BRANCH  13  15
ATOM     15  C   UNL     1       4.701   5.094  16.953  0.00  0.00    +0.000 C 
BRANCH  15  16
ATOM     16  C   UNL     1       5.925   5.750  17.530  0.00  0.00    +0.000 A 
ATOM     17  C   UNL     1       6.348   7.005  17.054  0.00  0.00    +0.000 A 
ATOM     18  C   UNL     1       7.475   7.623  17.596  0.00  0.00    +0.000 A 
ATOM     19  C   UNL     1       8.190   6.998  18.620  0.00  0.00    +0.000 A 
ATOM     20  C   UNL     1       7.779   5.751  19.100  0.00  0.00    +0.000 A 
ATOM     21  C   UNL     1       6.651   5.127  18.557  0.00  0.00    +0.000 A 
ENDBRANCH  15  16
ENDBRANCH  13  15
ENDBRANCH   9  13
TORSDOF 4
ENDMDL
MODEL 6
REMARK VINA RESULT:      -7.2      3.628      6.162
REMARK  Name = 
REMARK  5 active torsions:
REMARK  status: ('A' for Active; 'I' for Inactive)
REMARK    1  A    between atoms: C_1  and  O_2
REMARK    2  A    between atoms: O_2  and  C_3
REMARK    3  A    between atoms: C_11  and  N_12
REMARK    4  A    between atoms: N_12  and  C_13
REMARK    5  A    between atoms: C_13  and  C_14
REMARK                            x       y       z     vdW  Elec       q    Type
REMARK                         _______ _______ _______ _____ _____    ______ ____
ROOT
ATOM      1  C   UNL     1      -0.122  10.583  19.562  0.00  0.00    +0.000 A 
ATOM      2  C   UNL     1      -0.659  10.653  20.868  0.00  0.00    +0.000 A 
ATOM      3  C   UNL     1      -0.248   9.761  21.853  0.00  0.00    +0.000 A 
ATOM      4  C   UNL     1       0.681   8.771  21.555  0.00  0.00    +0.000 A 
ATOM      5  C   UNL     1       1.219   8.666  20.266  0.00  0.00    +0.000 A 
ATOM      6  C   UNL     1       0.841   9.592  19.265  0.00  0.00    +0.000 A 
ATOM      7  C   UNL     1       1.464   9.532  17.884  0.00  0.00    +0.000 C 
ATOM      8  C   UNL     1       2.722   8.645  17.821  0.00  0.00    +0.000 C 
ATOM      9  C   UNL     1       2.448   7.298  18.487  0.00  0.00    +0.000 C 
ATOM     10  C   UNL     1       2.177   7.539  19.993  0.00  0.00    +0.000 C 
ENDROOT
BRANCH   1  12
ATOM     11  C   UNL     1      -1.810  11.811  18.305  0.00  0.00    +0.000 C 
ATOM     12  O   UNL     1      -0.506  11.448  18.587  0.00  0.00    +0.000 OA
ENDBRANCH   1  12
BRANCH   9  13
ATOM     13  N   UNL     1       3.589   6.379  18.282  0.00  0.00    +0.000 NA
ATOM     14  H   UNL     1       4.099   6.243  19.188  0.00  0.00    +0.000 HD
BRANCH  13  15
ATOM     15  C   UNL     1       3.167   5.071  17.756  0.00  0.00    +0.000 C 
BRANCH  15  16
ATOM     16  C   UNL     1       2.489   4.254  18.822  0.00  0.00    +0.000 A 
ATOM     17  C   UNL     1       1.266   3.613  18.552  0.00  0.00    +0.000 A 
ATOM     18  C   UNL     1       0.641   2.842  19.533  0.00  0.00    +0.000 A 
ATOM     19  C   UNL     1       1.230   2.702  20.791  0.00  0.00    +0.000 A 
ATOM     20  C   UNL     1       2.445   3.334  21.070  0.00  0.00    +0.000 A 
ATOM     21  C   UNL     1       3.074   4.109  20.090  0.00  0.00    +0.000 A 
ENDBRANCH  15  16
ENDBRANCH  13  15
ENDBRANCH   9  13
TORSDOF 4
ENDMDL
MODEL 7
REMARK VINA RESULT:      -7.2      3.416      5.238
REMARK  Name = 
REMARK  5 active torsions:
REMARK  status: ('A' for Active; 'I' for Inactive)
REMARK    1  A    between atoms: C_1  and  O_2
REMARK    2  A    between atoms: O_2  and  C_3
REMARK    3  A    between atoms: C_11  and  N_12
REMARK    4  A    between atoms: N_12  and  C_13
REMARK    5  A    between atoms: C_13  and  C_14
REMARK                            x       y       z     vdW  Elec       q    Type
REMARK                         _______ _______ _______ _____ _____    ______ ____
ROOT
ATOM      1  C   UNL     1       5.158   3.970  18.420  0.00  0.00    +0.000 A 
ATOM      2  C   UNL     1       4.351   3.543  17.341  0.00  0.00    +0.000 A 
ATOM      3  C   UNL     1       4.420   4.181  16.106  0.00  0.00    +0.000 A 
ATOM      4  C   UNL     1       5.271   5.265  15.928  0.00  0.00    +0.000 A 
ATOM      5  C   UNL     1       6.072   5.722  16.983  0.00  0.00    +0.000 A 
ATOM      6  C   UNL     1       6.042   5.058  18.232  0.00  0.00    +0.000 A 
ATOM      7  C   UNL     1       6.950   5.498  19.363  0.00  0.00    +0.000 C 
ATOM      8  C   UNL     1       8.078   6.443  18.905  0.00  0.00    +0.000 C 
ATOM      9  C   UNL     1       7.505   7.561  18.036  0.00  0.00    +0.000 C 
ATOM     10  C   UNL     1       6.929   6.935  16.742  0.00  0.00    +0.000 C 
ENDROOT
BRANCH   1  12
ATOM     11  C   UNL     1       4.136   2.463  20.039  0.00  0.00    +0.000 C 
ATOM     12  O   UNL     1       5.109   3.357  19.632  0.00  0.00    +0.000 OA
ENDBRANCH   1  12
BRANCH   9  13
ATOM     13  N   UNL     1       8.547   8.566  17.734  0.00  0.00    +0.000 NA
ATOM     14  H   UNL     1       8.764   8.551  16.709  0.00  0.00    +0.000 HD
BRANCH  13  15
ATOM     15  C   UNL     1       8.146   9.925  18.130  0.00  0.00    +0.000 C 
BRANCH  15  16
ATOM     16  C   UNL     1       9.308  10.683  18.711  0.00  0.00    +0.000 A 
ATOM     17  C   UNL     1       9.384  10.909  20.098  0.00  0.00    +0.000 A 
ATOM     18  C   UNL     1      10.467  11.599  20.644  0.00  0.00    +0.000 A 
ATOM     19  C   UNL     1      11.486  12.069  19.812  0.00  0.00    +0.000 A 
ATOM     20  C   UNL     1      11.420  11.851  18.432  0.00  0.00    +0.000 A 
ATOM     21  C   UNL     1      10.335  11.161  17.882  0.00  0.00    +0.000 A 
ENDBRANCH  15  16
ENDBRANCH  13  15
ENDBRANCH   9  13
TORSDOF 4
ENDMDL
MODEL 8
REMARK VINA RESULT:      -7.1      3.593      6.251
REMARK  Name = 
REMARK  5 active torsions:
REMARK  status: ('A' for Active; 'I' for Inactive)
REMARK    1  A    between atoms: C_1  and  O_2
REMARK    2  A    between atoms: O_2  and  C_3
REMARK    3  A    between atoms: C_11  and  N_12
REMARK    4  A    between atoms: N_12  and  C_13
REMARK    5  A    between atoms: C_13  and  C_14
REMARK                            x       y       z     vdW  Elec       q    Type
REMARK                         _______ _______ _______ _____ _____    ______ ____
ROOT
ATOM      1  C   UNL     1      -0.293  10.770  19.898  0.00  0.00    +0.000 A 
ATOM      2  C   UNL     1      -0.698  10.821  21.251  0.00  0.00    +0.000 A 
ATOM      3  C   UNL     1      -0.187   9.922  22.181  0.00  0.00    +0.000 A 
ATOM      4  C   UNL     1       0.716   8.943  21.781  0.00  0.00    +0.000 A 
ATOM      5  C   UNL     1       1.124   8.856  20.444  0.00  0.00    +0.000 A 
ATOM      6  C   UNL     1       0.643   9.789  19.496  0.00  0.00    +0.000 A 
ATOM      7  C   UNL     1       1.127   9.749  18.059  0.00  0.00    +0.000 C 
ATOM      8  C   UNL     1       2.378   8.873  17.863  0.00  0.00    +0.000 C 
ATOM      9  C   UNL     1       2.181   7.517  18.537  0.00  0.00    +0.000 C 
ATOM     10  C   UNL     1       2.058   7.739  20.065  0.00  0.00    +0.000 C 
ENDROOT
BRANCH   1  12
ATOM     11  C   UNL     1      -2.040  11.598  18.416  0.00  0.00    +0.000 C 
ATOM     12  O   UNL     1      -0.777  11.643  18.976  0.00  0.00    +0.000 OA
ENDBRANCH   1  12
BRANCH   9  13
ATOM     13  N   UNL     1       3.302   6.609  18.210  0.00  0.00    +0.000 NA
ATOM     14  H   UNL     1       4.168   7.170  18.030  0.00  0.00    +0.000 HD
BRANCH  13  15
ATOM     15  C   UNL     1       3.564   5.634  19.282  0.00  0.00    +0.000 C 
BRANCH  15  16
ATOM     16  C   UNL     1       2.714   4.405  19.113  0.00  0.00    +0.000 A 
ATOM     17  C   UNL     1       1.681   4.127  20.027  0.00  0.00    +0.000 A 
ATOM     18  C   UNL     1       0.881   2.995  19.866  0.00  0.00    +0.000 A 
ATOM     19  C   UNL     1       1.102   2.131  18.792  0.00  0.00    +0.000 A 
ATOM     20  C   UNL     1       2.126   2.397  17.878  0.00  0.00    +0.000 A 
ATOM     21  C   UNL     1       2.931   3.530  18.037  0.00  0.00    +0.000 A 
ENDBRANCH  15  16
ENDBRANCH  13  15
ENDBRANCH   9  13
TORSDOF 4
ENDMDL
MODEL 9
REMARK VINA RESULT:      -7.1      1.932      3.230
REMARK  Name = 
REMARK  5 active torsions:
REMARK  status: ('A' for Active; 'I' for Inactive)
REMARK    1  A    between atoms: C_1  and  O_2
REMARK    2  A    between atoms: O_2  and  C_3
REMARK    3  A    between atoms: C_11  and  N_12
REMARK    4  A    between atoms: N_12  and  C_13
REMARK    5  A    between atoms: C_13  and  C_14
REMARK                            x       y       z     vdW  Elec       q    Type
REMARK                         _______ _______ _______ _____ _____    ______ ____
ROOT
ATOM      1  C   UNL     1       2.208   4.388  20.057  0.00  0.00    +0.000 A 
ATOM      2  C   UNL     1       1.463   5.382  20.732  0.00  0.00    +0.000 A 
ATOM      3  C   UNL     1       1.592   6.723  20.387  0.00  0.00    +0.000 A 
ATOM      4  C   UNL     1       2.478   7.104  19.386  0.00  0.00    +0.000 A 
ATOM      5  C   UNL     1       3.243   6.144  18.711  0.00  0.00    +0.000 A 
ATOM      6  C   UNL     1       3.092   4.772  19.023  0.00  0.00    +0.000 A 
ATOM      7  C   UNL     1       3.863   3.716  18.255  0.00  0.00    +0.000 C 
ATOM      8  C   UNL     1       4.499   4.250  16.958  0.00  0.00    +0.000 C 
ATOM      9  C   UNL     1       5.249   5.551  17.237  0.00  0.00    +0.000 C 
ATOM     10  C   UNL     1       4.225   6.626  17.678  0.00  0.00    +0.000 C 
ENDROOT
BRANCH   1  12
ATOM     11  C   UNL     1       1.968   2.565  21.655  0.00  0.00    +0.000 C 
ATOM     12  O   UNL     1       2.092   3.072  20.376  0.00  0.00    +0.000 OA
ENDBRANCH   1  12
BRANCH   9  13
ATOM     13  N   UNL     1       6.004   5.980  16.040  0.00  0.00    +0.000 NA
ATOM     14  H   UNL     1       6.433   6.920  16.212  0.00  0.00    +0.000 HD
BRANCH  13  15
ATOM     15  C   UNL     1       7.058   5.021  15.669  0.00  0.00    +0.000 C 
BRANCH  15  16
ATOM     16  C   UNL     1       6.973   4.664  14.211  0.00  0.00    +0.000 A 
ATOM     17  C   UNL     1       6.113   3.636  13.783  0.00  0.00    +0.000 A 
ATOM     18  C   UNL     1       6.020   3.310  12.429  0.00  0.00    +0.000 A 
ATOM     19  C   UNL     1       6.783   4.006  11.490  0.00  0.00    +0.000 A 
ATOM     20  C   UNL     1       7.641   5.029  11.904  0.00  0.00    +0.000 A 
ATOM     21  C   UNL     1       7.738   5.357  13.261  0.00  0.00    +0.000 A 
ENDBRANCH  15  16
ENDBRANCH  13  15
ENDBRANCH   9  13
TORSDOF 4
ENDMDL
