MODEL 1
REMARK VINA RESULT:      -8.3      0.000      0.000
REMARK  Name = 
REMARK  8 active torsions:
REMARK  status: ('A' for Active; 'I' for Inactive)
REMARK    1  A    between atoms: C_2  and  O_3
REMARK    2  A    between atoms: C_2  and  C_4
REMARK    3  A    between atoms: C_6  and  N_7
REMARK    4  A    between atoms: C_8  and  C_10
REMARK    5  A    between atoms: C_14  and  N_15
REMARK    6  A    between atoms: C_18  and  O_19
REMARK    7  A    between atoms: C_20  and  O_21
REMARK    8  A    between atoms: C_28  and  O_29
REMARK                            x       y       z     vdW  Elec       q    Type
REMARK                         _______ _______ _______ _____ _____    ______ ____
ROOT
ATOM      1  C   UNL     1       2.984   7.214  18.657  0.00  0.00    +0.000 A 
ATOM      2  C   UNL     1       3.851   7.654  17.733  0.00  0.00    +0.000 A 
ATOM      3  C   UNL     1       4.908   6.746  17.354  0.00  0.00    +0.000 A 
ATOM      4  C   UNL     1       5.253   6.489  16.037  0.00  0.00    +0.000 A 
ATOM      5  C   UNL     1       6.200   5.486  15.784  0.00  0.00    +0.000 A 
ATOM      6  C   UNL     1       6.976   4.958  16.827  0.00  0.00    +0.000 A 
ATOM      7  C   UNL     1       6.604   5.231  18.142  0.00  0.00    +0.000 A 
ATOM      8  C   UNL     1       5.446   5.959  18.365  0.00  0.00    +0.000 A 
ATOM      9  O   UNL     1       4.599   5.624  19.453  0.00  0.00    +0.000 OA
ATOM     10  C   UNL     1       3.237   5.878  19.224  0.00  0.00    +0.000 A 
ATOM     11  O   UNL     1       2.326   5.114  19.524  0.00  0.00    +0.000 OA
ENDROOT
BRANCH   1  13
ATOM     12  N   UNL     1       1.443   8.992  18.027  0.00  0.00    +0.000 N 
ATOM     13  C   UNL     1       1.859   8.107  19.004  0.00  0.00    +0.000 C 
ATOM     14  O   UNL     1       1.393   8.027  20.139  0.00  0.00    +0.000 OA
ATOM     15  H   UNL     1       1.977   9.024  17.158  0.00  0.00    +0.000 HD
BRANCH  12  18
ATOM     16  C   UNL     1      -1.961  10.591  17.846  0.00  0.00    +0.000 A 
ATOM     17  C   UNL     1      -0.913   9.676  17.663  0.00  0.00    +0.000 A 
ATOM     18  C   UNL     1       0.374   9.917  18.163  0.00  0.00    +0.000 A 
ATOM     19  C   UNL     1       0.608  11.121  18.838  0.00  0.00    +0.000 A 
ATOM     20  C   UNL     1      -0.428  12.052  19.018  0.00  0.00    +0.000 A 
ATOM     21  C   UNL     1      -1.709  11.774  18.540  0.00  0.00    +0.000 A 
BRANCH  16  23
ATOM     22  O   UNL     1      -4.331  10.373  17.873  0.00  0.00    +0.000 OA
ATOM     23  C   UNL     1      -3.292  10.235  17.258  0.00  0.00    +0.000 C 
BRANCH  23  24
ATOM     24  O   UNL     1      -3.246   9.832  15.974  0.00  0.00    +0.000 OA
ATOM     25  H   UNL     1      -2.383  10.031  15.553  0.00  0.00    +0.000 HD
ENDBRANCH  23  24
ENDBRANCH  16  23
BRANCH  21  26
ATOM     26  O   UNL     1      -2.725  12.668  18.758  0.00  0.00    +0.000 OA
ATOM     27  H   UNL     1      -3.078  12.960  17.896  0.00  0.00    +0.000 HD
ENDBRANCH  21  26
ENDBRANCH  12  18
ENDBRANCH   1  13
BRANCH   5  28
ATOM     28  N   UNL     1       6.217   4.871  14.458  0.00  0.00    +0.000 N 
ATOM     29  O   UNL     1       7.204   5.073  13.738  0.00  0.00    +0.000 OA
ATOM     30  O   UNL     1       5.207   4.237  14.113  0.00  0.00    +0.000 OA
ENDBRANCH   5  28
BRANCH   6  31
ATOM     31  O   UNL     1       8.040   4.108  16.672  0.00  0.00    +0.000 OA
ATOM     32  H   UNL     1       7.981   3.667  15.797  0.00  0.00    +0.000 HD
ENDBRANCH   6  31
BRANCH   7  33
ATOM     33  O   UNL     1       7.339   4.740  19.179  0.00  0.00    +0.000 OA
ATOM     34  H   UNL     1       7.413   5.475  19.821  0.00  0.00    +0.000 HD
ENDBRANCH   7  33
TORSDOF 8
ENDMDL
MODEL 2
REMARK VINA RESULT:      -8.1      1.320      1.490
REMARK  Name = 
REMARK  8 active torsions:
REMARK  status: ('A' for Active; 'I' for Inactive)
REMARK    1  A    between atoms: C_2  and  O_3
REMARK    2  A    between atoms: C_2  and  C_4
REMARK    3  A    between atoms: C_6  and  N_7
REMARK    4  A    between atoms: C_8  and  C_10
REMARK    5  A    between atoms: C_14  and  N_15
REMARK    6  A    between atoms: C_18  and  O_19
REMARK    7  A    between atoms: C_20  and  O_21
REMARK    8  A    between atoms: C_28  and  O_29
REMARK                            x       y       z     vdW  Elec       q    Type
REMARK                         _______ _______ _______ _____ _____    ______ ____
ROOT
ATOM      1  C   UNL     1       2.957   7.542  18.217  0.00  0.00    +0.000 A 
ATOM      2  C   UNL     1       4.023   7.860  17.469  0.00  0.00    +0.000 A 
ATOM      3  C   UNL     1       5.075   6.873  17.391  0.00  0.00    +0.000 A 
ATOM      4  C   UNL     1       5.669   6.489  16.200  0.00  0.00    +0.000 A 
ATOM      5  C   UNL     1       6.581   5.424  16.228  0.00  0.00    +0.000 A 
ATOM      6  C   UNL     1       7.086   4.949  17.448  0.00  0.00    +0.000 A 
ATOM      7  C   UNL     1       6.467   5.349  18.630  0.00  0.00    +0.000 A 
ATOM      8  C   UNL     1       5.338   6.149  18.548  0.00  0.00    +0.000 A 
ATOM      9  O   UNL     1       4.262   5.949  19.452  0.00  0.00    +0.000 OA
ATOM     10  C   UNL     1       2.997   6.248  18.920  0.00  0.00    +0.000 A 
ATOM     11  O   UNL     1       1.997   5.557  19.074  0.00  0.00    +0.000 OA
ENDROOT
BRANCH   1  13
ATOM     12  N   UNL     1       1.416   8.927  19.498  0.00  0.00    +0.000 N 
ATOM     13  C   UNL     1       1.844   8.515  18.251  0.00  0.00    +0.000 C 
ATOM     14  O   UNL     1       1.356   8.864  17.177  0.00  0.00    +0.000 OA
ATOM     15  H   UNL     1       1.843   8.490  20.315  0.00  0.00    +0.000 HD
BRANCH  12  18
ATOM     16  C   UNL     1      -1.567  11.175  19.021  0.00  0.00    +0.000 A 
ATOM     17  C   UNL     1      -0.523  10.278  18.746  0.00  0.00    +0.000 A 
ATOM     18  C   UNL     1       0.375   9.864  19.738  0.00  0.00    +0.000 A 
ATOM     19  C   UNL     1       0.227  10.389  21.027  0.00  0.00    +0.000 A 
ATOM     20  C   UNL     1      -0.805  11.296  21.316  0.00  0.00    +0.000 A 
ATOM     21  C   UNL     1      -1.707  11.668  20.318  0.00  0.00    +0.000 A 
BRANCH  16  23
ATOM     22  O   UNL     1      -3.671  11.565  17.979  0.00  0.00    +0.000 OA
ATOM     23  C   UNL     1      -2.460  11.559  17.880  0.00  0.00    +0.000 C 
BRANCH  23  24
ATOM     24  O   UNL     1      -1.809  11.969  16.776  0.00  0.00    +0.000 OA
ATOM     25  H   UNL     1      -1.398  11.225  16.288  0.00  0.00    +0.000 HD
ENDBRANCH  23  24
ENDBRANCH  16  23
BRANCH  21  26
ATOM     26  O   UNL     1      -2.738  12.520  20.617  0.00  0.00    +0.000 OA
ATOM     27  H   UNL     1      -3.150  12.237  21.455  0.00  0.00    +0.000 HD
ENDBRANCH  21  26
ENDBRANCH  12  18
ENDBRANCH   1  13
BRANCH   5  28
ATOM     28  N   UNL     1       6.833   4.698  14.984  0.00  0.00    +0.000 N 
ATOM     29  O   UNL     1       6.332   3.572  14.859  0.00  0.00    +0.000 OA
ATOM     30  O   UNL     1       7.592   5.231  14.159  0.00  0.00    +0.000 OA
ENDBRANCH   5  28
BRANCH   6  31
ATOM     31  O   UNL     1       8.102   4.038  17.585  0.00  0.00    +0.000 OA
ATOM     32  H   UNL     1       7.724   3.133  17.634  0.00  0.00    +0.000 HD
ENDBRANCH   6  31
BRANCH   7  33
ATOM     33  O   UNL     1       6.936   4.913  19.833  0.00  0.00    +0.000 OA
ATOM     34  H   UNL     1       7.294   4.017  19.668  0.00  0.00    +0.000 HD
ENDBRANCH   7  33
TORSDOF 8
ENDMDL
MODEL 3
REMARK VINA RESULT:      -8.0      3.009      9.704
REMARK  Name = 
REMARK  8 active torsions:
REMARK  status: ('A' for Active; 'I' for Inactive)
REMARK    1  A    between atoms: C_2  and  O_3
REMARK    2  A    between atoms: C_2  and  C_4
REMARK    3  A    between atoms: C_6  and  N_7
REMARK    4  A    between atoms: C_8  and  C_10
REMARK    5  A    between atoms: C_14  and  N_15
REMARK    6  A    between atoms: C_18  and  O_19
REMARK    7  A    between atoms: C_20  and  O_21
REMARK    8  A    between atoms: C_28  and  O_29
REMARK                            x       y       z     vdW  Elec       q    Type
REMARK                         _______ _______ _______ _____ _____    ______ ____
ROOT
ATOM      1  C   UNL     1       1.159   9.020  20.255  0.00  0.00    +0.000 A 
ATOM      2  C   UNL     1       0.836   9.353  21.513  0.00  0.00    +0.000 A 
ATOM      3  C   UNL     1       0.240  10.654  21.704  0.00  0.00    +0.000 A 
ATOM      4  C   UNL     1      -0.894  10.865  22.472  0.00  0.00    +0.000 A 
ATOM      5  C   UNL     1      -1.464  12.146  22.474  0.00  0.00    +0.000 A 
ATOM      6  C   UNL     1      -0.761  13.240  21.947  0.00  0.00    +0.000 A 
ATOM      7  C   UNL     1       0.373  12.999  21.176  0.00  0.00    +0.000 A 
ATOM      8  C   UNL     1       0.724  11.685  20.908  0.00  0.00    +0.000 A 
ATOM      9  O   UNL     1       1.242  11.338  19.633  0.00  0.00    +0.000 OA
ATOM     10  C   UNL     1       0.922  10.036  19.215  0.00  0.00    +0.000 A 
ATOM     11  O   UNL     1       0.553   9.739  18.084  0.00  0.00    +0.000 OA
ENDROOT
BRANCH   1  13
ATOM     12  N   UNL     1       2.314   7.427  18.818  0.00  0.00    +0.000 N 
ATOM     13  C   UNL     1       1.708   7.664  20.037  0.00  0.00    +0.000 C 
ATOM     14  O   UNL     1       1.561   6.836  20.934  0.00  0.00    +0.000 OA
ATOM     15  H   UNL     1       2.286   8.173  18.122  0.00  0.00    +0.000 HD
BRANCH  12  18
ATOM     16  C   UNL     1       4.851   4.730  18.132  0.00  0.00    +0.000 A 
ATOM     17  C   UNL     1       4.291   5.967  18.489  0.00  0.00    +0.000 A 
ATOM     18  C   UNL     1       2.911   6.200  18.426  0.00  0.00    +0.000 A 
ATOM     19  C   UNL     1       2.085   5.166  17.968  0.00  0.00    +0.000 A 
ATOM     20  C   UNL     1       2.631   3.927  17.596  0.00  0.00    +0.000 A 
ATOM     21  C   UNL     1       4.005   3.709  17.699  0.00  0.00    +0.000 A 
BRANCH  16  23
ATOM     22  O   UNL     1       6.948   4.835  19.251  0.00  0.00    +0.000 OA
ATOM     23  C   UNL     1       6.340   4.598  18.227  0.00  0.00    +0.000 C 
BRANCH  23  24
ATOM     24  O   UNL     1       6.929   4.121  17.114  0.00  0.00    +0.000 OA
ATOM     25  H   UNL     1       6.539   4.496  16.296  0.00  0.00    +0.000 HD
ENDBRANCH  23  24
ENDBRANCH  16  23
BRANCH  21  26
ATOM     26  O   UNL     1       4.526   2.483  17.375  0.00  0.00    +0.000 OA
ATOM     27  H   UNL     1       4.740   2.003  18.198  0.00  0.00    +0.000 HD
ENDBRANCH  21  26
ENDBRANCH  12  18
ENDBRANCH   1  13
BRANCH   5  28
ATOM     28  N   UNL     1      -2.871  12.275  22.849  0.00  0.00    +0.000 N 
ATOM     29  O   UNL     1      -3.261  11.664  23.853  0.00  0.00    +0.000 OA
ATOM     30  O   UNL     1      -3.602  12.937  22.095  0.00  0.00    +0.000 OA
ENDBRANCH   5  28
BRANCH   6  31
ATOM     31  O   UNL     1      -1.144  14.553  22.051  0.00  0.00    +0.000 OA
ATOM     32  H   UNL     1      -2.124  14.609  22.040  0.00  0.00    +0.000 HD
ENDBRANCH   6  31
BRANCH   7  33
ATOM     33  O   UNL     1       1.085  14.039  20.656  0.00  0.00    +0.000 OA
ATOM     34  H   UNL     1       1.809  13.630  20.140  0.00  0.00    +0.000 HD
ENDBRANCH   7  33
TORSDOF 8
ENDMDL
MODEL 4
REMARK VINA RESULT:      -8.0      0.856      1.998
REMARK  Name = 
REMARK  8 active torsions:
REMARK  status: ('A' for Active; 'I' for Inactive)
REMARK    1  A    between atoms: C_2  and  O_3
REMARK    2  A    between atoms: C_2  and  C_4
REMARK    3  A    between atoms: C_6  and  N_7
REMARK    4  A    between atoms: C_8  and  C_10
REMARK    5  A    between atoms: C_14  and  N_15
REMARK    6  A    between atoms: C_18  and  O_19
REMARK    7  A    between atoms: C_20  and  O_21
REMARK    8  A    between atoms: C_28  and  O_29
REMARK                            x       y       z     vdW  Elec       q    Type
REMARK                         _______ _______ _______ _____ _____    ______ ____
ROOT
ATOM      1  C   UNL     1       2.965   7.233  18.637  0.00  0.00    +0.000 A 
ATOM      2  C   UNL     1       3.818   7.647  17.689  0.00  0.00    +0.000 A 
ATOM      3  C   UNL     1       4.874   6.730  17.324  0.00  0.00    +0.000 A 
ATOM      4  C   UNL     1       5.203   6.435  16.011  0.00  0.00    +0.000 A 
ATOM      5  C   UNL     1       6.149   5.427  15.777  0.00  0.00    +0.000 A 
ATOM      6  C   UNL     1       6.940   4.933  16.825  0.00  0.00    +0.000 A 
ATOM      7  C   UNL     1       6.584   5.244  18.136  0.00  0.00    +0.000 A 
ATOM      8  C   UNL     1       5.427   5.976  18.351  0.00  0.00    +0.000 A 
ATOM      9  O   UNL     1       4.595   5.672  19.461  0.00  0.00    +0.000 OA
ATOM     10  C   UNL     1       3.229   5.915  19.241  0.00  0.00    +0.000 A 
ATOM     11  O   UNL     1       2.325   5.158  19.576  0.00  0.00    +0.000 OA
ENDROOT
BRANCH   1  13
ATOM     12  N   UNL     1       1.340   8.909  17.944  0.00  0.00    +0.000 N 
ATOM     13  C   UNL     1       1.841   8.133  18.972  0.00  0.00    +0.000 C 
ATOM     14  O   UNL     1       1.453   8.155  20.138  0.00  0.00    +0.000 OA
ATOM     15  H   UNL     1       1.814   8.866  17.042  0.00  0.00    +0.000 HD
BRANCH  12  18
ATOM     16  C   UNL     1      -0.706  11.961  18.767  0.00  0.00    +0.000 A 
ATOM     17  C   UNL     1       0.370  11.063  18.700  0.00  0.00    +0.000 A 
ATOM     18  C   UNL     1       0.257   9.821  18.061  0.00  0.00    +0.000 A 
ATOM     19  C   UNL     1      -0.978   9.473  17.502  0.00  0.00    +0.000 A 
ATOM     20  C   UNL     1      -2.068  10.356  17.571  0.00  0.00    +0.000 A 
ATOM     21  C   UNL     1      -1.921  11.601  18.183  0.00  0.00    +0.000 A 
BRANCH  16  23
ATOM     22  O   UNL     1       0.048  13.305  20.580  0.00  0.00    +0.000 OA
ATOM     23  C   UNL     1      -0.476  13.256  19.486  0.00  0.00    +0.000 C 
BRANCH  23  24
ATOM     24  O   UNL     1      -0.822  14.352  18.785  0.00  0.00    +0.000 OA
ATOM     25  H   UNL     1      -1.673  14.238  18.312  0.00  0.00    +0.000 HD
ENDBRANCH  23  24
ENDBRANCH  16  23
BRANCH  21  26
ATOM     26  O   UNL     1      -2.976  12.476  18.209  0.00  0.00    +0.000 OA
ATOM     27  H   UNL     1      -3.676  12.144  17.615  0.00  0.00    +0.000 HD
ENDBRANCH  21  26
ENDBRANCH  12  18
ENDBRANCH   1  13
BRANCH   5  28
ATOM     28  N   UNL     1       6.151   4.772  14.470  0.00  0.00    +0.000 N 
ATOM     29  O   UNL     1       7.177   4.857  13.781  0.00  0.00    +0.000 OA
ATOM     30  O   UNL     1       5.097   4.227  14.106  0.00  0.00    +0.000 OA
ENDBRANCH   5  28
BRANCH   6  31
ATOM     31  O   UNL     1       8.005   4.082  16.682  0.00  0.00    +0.000 OA
ATOM     32  H   UNL     1       8.792   4.591  16.388  0.00  0.00    +0.000 HD
ENDBRANCH   6  31
BRANCH   7  33
ATOM     33  O   UNL     1       7.334   4.788  19.178  0.00  0.00    +0.000 OA
ATOM     34  H   UNL     1       7.308   5.497  19.852  0.00  0.00    +0.000 HD
ENDBRANCH   7  33
TORSDOF 8
ENDMDL
MODEL 5
REMARK VINA RESULT:      -7.9      1.080      2.254
REMARK  Name = 
REMARK  8 active torsions:
REMARK  status: ('A' for Active; 'I' for Inactive)
REMARK    1  A    between atoms: C_2  and  O_3
REMARK    2  A    between atoms: C_2  and  C_4
REMARK    3  A    between atoms: C_6  and  N_7
REMARK    4  A    between atoms: C_8  and  C_10
REMARK    5  A    between atoms: C_14  and  N_15
REMARK    6  A    between atoms: C_18  and  O_19
REMARK    7  A    between atoms: C_20  and  O_21
REMARK    8  A    between atoms: C_28  and  O_29
REMARK                            x       y       z     vdW  Elec       q    Type
REMARK                         _______ _______ _______ _____ _____    ______ ____
ROOT
ATOM      1  C   UNL     1       3.065   7.075  18.800  0.00  0.00    +0.000 A 
ATOM      2  C   UNL     1       3.871   7.555  17.841  0.00  0.00    +0.000 A 
ATOM      3  C   UNL     1       4.942   6.691  17.404  0.00  0.00    +0.000 A 
ATOM      4  C   UNL     1       5.235   6.459  16.070  0.00  0.00    +0.000 A 
ATOM      5  C   UNL     1       6.205   5.495  15.762  0.00  0.00    +0.000 A 
ATOM      6  C   UNL     1       7.047   4.986  16.762  0.00  0.00    +0.000 A 
ATOM      7  C   UNL     1       6.728   5.232  18.095  0.00  0.00    +0.000 A 
ATOM      8  C   UNL     1       5.555   5.915  18.380  0.00  0.00    +0.000 A 
ATOM      9  O   UNL     1       4.772   5.539  19.503  0.00  0.00    +0.000 OA
ATOM     10  C   UNL     1       3.392   5.743  19.339  0.00  0.00    +0.000 A 
ATOM     11  O   UNL     1       2.526   4.943  19.672  0.00  0.00    +0.000 OA
ENDROOT
BRANCH   1  13
ATOM     12  N   UNL     1       1.580   8.953  18.356  0.00  0.00    +0.000 N 
ATOM     13  C   UNL     1       1.925   7.922  19.208  0.00  0.00    +0.000 C 
ATOM     14  O   UNL     1       1.385   7.675  20.285  0.00  0.00    +0.000 OA
ATOM     15  H   UNL     1       2.169   9.110  17.538  0.00  0.00    +0.000 HD
BRANCH  12  18
ATOM     16  C   UNL     1      -0.529  11.760  19.719  0.00  0.00    +0.000 A 
ATOM     17  C   UNL     1       0.526  10.848  19.561  0.00  0.00    +0.000 A 
ATOM     18  C   UNL     1       0.509   9.864  18.564  0.00  0.00    +0.000 A 
ATOM     19  C   UNL     1      -0.611   9.786  17.728  0.00  0.00    +0.000 A 
ATOM     20  C   UNL     1      -1.680  10.684  17.881  0.00  0.00    +0.000 A 
ATOM     21  C   UNL     1      -1.625  11.677  18.860  0.00  0.00    +0.000 A 
BRANCH  16  23
ATOM     22  O   UNL     1      -0.865  13.885  20.737  0.00  0.00    +0.000 OA
ATOM     23  C   UNL     1      -0.409  12.762  20.826  0.00  0.00    +0.000 C 
BRANCH  23  24
ATOM     24  O   UNL     1       0.168  12.289  21.947  0.00  0.00    +0.000 OA
ATOM     25  H   UNL     1      -0.164  11.398  22.189  0.00  0.00    +0.000 HD
ENDBRANCH  23  24
ENDBRANCH  16  23
BRANCH  21  26
ATOM     26  O   UNL     1      -2.652  12.577  18.975  0.00  0.00    +0.000 OA
ATOM     27  H   UNL     1      -3.414  12.134  19.396  0.00  0.00    +0.000 HD
ENDBRANCH  21  26
ENDBRANCH  12  18
ENDBRANCH   1  13
BRANCH   5  28
ATOM     28  N   UNL     1       6.182   4.893  14.430  0.00  0.00    +0.000 N 
ATOM     29  O   UNL     1       5.225   4.163  14.141  0.00  0.00    +0.000 OA
ATOM     30  O   UNL     1       7.162   5.100  13.696  0.00  0.00    +0.000 OA
ENDBRANCH   5  28
BRANCH   6  31
ATOM     31  O   UNL     1       8.134   4.178  16.549  0.00  0.00    +0.000 OA
ATOM     32  H   UNL     1       7.847   3.361  16.085  0.00  0.00    +0.000 HD
ENDBRANCH   6  31
BRANCH   7  33
ATOM     33  O   UNL     1       7.528   4.760  19.093  0.00  0.00    +0.000 OA
ATOM     34  H   UNL     1       6.997   4.829  19.912  0.00  0.00    +0.000 HD
ENDBRANCH   7  33
TORSDOF 8
ENDMDL
MODEL 6
REMARK VINA RESULT:      -7.9      1.676      2.061
REMARK  Name = 
REMARK  8 active torsions:
REMARK  status: ('A' for Active; 'I' for Inactive)
REMARK    1  A    between atoms: C_2  and  O_3
REMARK    2  A    between atoms: C_2  and  C_4
REMARK    3  A    between atoms: C_6  and  N_7
REMARK    4  A    between atoms: C_8  and  C_10
REMARK    5  A    between atoms: C_14  and  N_15
REMARK    6  A    between atoms: C_18  and  O_19
REMARK    7  A    between atoms: C_20  and  O_21
REMARK    8  A    between atoms: C_28  and  O_29
REMARK                            x       y       z     vdW  Elec       q    Type
REMARK                         _______ _______ _______ _____ _____    ______ ____
ROOT
ATOM      1  C   UNL     1       2.974   7.362  18.235  0.00  0.00    +0.000 A 
ATOM      2  C   UNL     1       3.976   7.727  17.422  0.00  0.00    +0.000 A 
ATOM      3  C   UNL     1       5.037   6.766  17.230  0.00  0.00    +0.000 A 
ATOM      4  C   UNL     1       5.547   6.437  15.985  0.00  0.00    +0.000 A 
ATOM      5  C   UNL     1       6.477   5.391  15.906  0.00  0.00    +0.000 A 
ATOM      6  C   UNL     1       7.081   4.884  17.067  0.00  0.00    +0.000 A 
ATOM      7  C   UNL     1       6.545   5.229  18.305  0.00  0.00    +0.000 A 
ATOM      8  C   UNL     1       5.399   6.008  18.336  0.00  0.00    +0.000 A 
ATOM      9  O   UNL     1       4.397   5.754  19.310  0.00  0.00    +0.000 OA
ATOM     10  C   UNL     1       3.091   6.044  18.885  0.00  0.00    +0.000 A 
ATOM     11  O   UNL     1       2.118   5.327  19.087  0.00  0.00    +0.000 OA
ENDROOT
BRANCH   1  13
ATOM     12  N   UNL     1       1.761   8.981  19.591  0.00  0.00    +0.000 N 
ATOM     13  C   UNL     1       1.849   8.309  18.386  0.00  0.00    +0.000 C 
ATOM     14  O   UNL     1       1.057   8.411  17.452  0.00  0.00    +0.000 OA
ATOM     15  H   UNL     1       2.429   8.736  20.321  0.00  0.00    +0.000 HD
BRANCH  12  18
ATOM     16  C   UNL     1      -0.550  11.951  19.445  0.00  0.00    +0.000 A 
ATOM     17  C   UNL     1       0.467  11.042  19.112  0.00  0.00    +0.000 A 
ATOM     18  C   UNL     1       0.765   9.938  19.922  0.00  0.00    +0.000 A 
ATOM     19  C   UNL     1       0.036   9.768  21.105  0.00  0.00    +0.000 A 
ATOM     20  C   UNL     1      -0.977  10.675  21.458  0.00  0.00    +0.000 A 
ATOM     21  C   UNL     1      -1.277  11.747  20.618  0.00  0.00    +0.000 A 
BRANCH  16  23
ATOM     22  O   UNL     1      -0.569  14.253  18.841  0.00  0.00    +0.000 OA
ATOM     23  C   UNL     1      -0.773  13.101  18.512  0.00  0.00    +0.000 C 
BRANCH  23  24
ATOM     24  O   UNL     1      -1.137  12.746  17.265  0.00  0.00    +0.000 OA
ATOM     25  H   UNL     1      -1.817  12.039  17.264  0.00  0.00    +0.000 HD
ENDBRANCH  23  24
ENDBRANCH  16  23
BRANCH  21  26
ATOM     26  O   UNL     1      -2.295  12.605  20.947  0.00  0.00    +0.000 OA
ATOM     27  H   UNL     1      -1.927  13.351  21.456  0.00  0.00    +0.000 HD
ENDBRANCH  21  26
ENDBRANCH  12  18
ENDBRANCH   1  13
BRANCH   5  28
ATOM     28  N   UNL     1       6.649   4.715  14.621  0.00  0.00    +0.000 N 
ATOM     29  O   UNL     1       6.161   3.584  14.492  0.00  0.00    +0.000 OA
ATOM     30  O   UNL     1       7.334   5.292  13.762  0.00  0.00    +0.000 OA
ENDBRANCH   5  28
BRANCH   6  31
ATOM     31  O   UNL     1       8.121   3.991  17.095  0.00  0.00    +0.000 OA
ATOM     32  H   UNL     1       7.784   3.106  17.357  0.00  0.00    +0.000 HD
ENDBRANCH   6  31
BRANCH   7  33
ATOM     33  O   UNL     1       7.111   4.761  19.454  0.00  0.00    +0.000 OA
ATOM     34  H   UNL     1       8.077   4.858  19.330  0.00  0.00    +0.000 HD
ENDBRANCH   7  33
TORSDOF 8
ENDMDL
MODEL 7
REMARK VINA RESULT:      -7.9      2.704      3.914
REMARK  Name = 
REMARK  8 active torsions:
REMARK  status: ('A' for Active; 'I' for Inactive)
REMARK    1  A    between atoms: C_2  and  O_3
REMARK    2  A    between atoms: C_2  and  C_4
REMARK    3  A    between atoms: C_6  and  N_7
REMARK    4  A    between atoms: C_8  and  C_10
REMARK    5  A    between atoms: C_14  and  N_15
REMARK    6  A    between atoms: C_18  and  O_19
REMARK    7  A    between atoms: C_20  and  O_21
REMARK    8  A    between atoms: C_28  and  O_29
REMARK                            x       y       z     vdW  Elec       q    Type
REMARK                         _______ _______ _______ _____ _____    ______ ____
ROOT
ATOM      1  C   UNL     1       2.769   7.039  18.046  0.00  0.00    +0.000 A 
ATOM      2  C   UNL     1       1.979   6.068  18.528  0.00  0.00    +0.000 A 
ATOM      3  C   UNL     1       2.585   4.769  18.703  0.00  0.00    +0.000 A 
ATOM      4  C   UNL     1       2.440   4.013  19.855  0.00  0.00    +0.000 A 
ATOM      5  C   UNL     1       3.185   2.830  19.969  0.00  0.00    +0.000 A 
ATOM      6  C   UNL     1       3.835   2.286  18.850  0.00  0.00    +0.000 A 
ATOM      7  C   UNL     1       3.968   3.070  17.706  0.00  0.00    +0.000 A 
ATOM      8  C   UNL     1       3.509   4.377  17.743  0.00  0.00    +0.000 A 
ATOM      9  O   UNL     1       4.238   5.401  17.082  0.00  0.00    +0.000 OA
ATOM     10  C   UNL     1       4.150   6.661  17.696  0.00  0.00    +0.000 A 
ATOM     11  O   UNL     1       5.097   7.420  17.868  0.00  0.00    +0.000 OA
ENDROOT
BRANCH   1  13
ATOM     12  N   UNL     1       1.154   8.700  18.798  0.00  0.00    +0.000 N 
ATOM     13  C   UNL     1       2.180   8.389  17.926  0.00  0.00    +0.000 C 
ATOM     14  O   UNL     1       2.617   9.128  17.044  0.00  0.00    +0.000 OA
ATOM     15  H   UNL     1       0.821   7.963  19.420  0.00  0.00    +0.000 HD
BRANCH  12  18
ATOM     16  C   UNL     1      -1.379  11.429  18.235  0.00  0.00    +0.000 A 
ATOM     17  C   UNL     1      -0.705  10.202  18.135  0.00  0.00    +0.000 A 
ATOM     18  C   UNL     1       0.473   9.945  18.849  0.00  0.00    +0.000 A 
ATOM     19  C   UNL     1       0.992  10.962  19.659  0.00  0.00    +0.000 A 
ATOM     20  C   UNL     1       0.336  12.200  19.761  0.00  0.00    +0.000 A 
ATOM     21  C   UNL     1      -0.854  12.419  19.066  0.00  0.00    +0.000 A 
BRANCH  16  23
ATOM     22  O   UNL     1      -3.710  11.794  17.923  0.00  0.00    +0.000 OA
ATOM     23  C   UNL     1      -2.623  11.597  17.418  0.00  0.00    +0.000 C 
BRANCH  23  24
ATOM     24  O   UNL     1      -2.420  11.594  16.086  0.00  0.00    +0.000 OA
ATOM     25  H   UNL     1      -3.108  11.086  15.607  0.00  0.00    +0.000 HD
ENDBRANCH  23  24
ENDBRANCH  16  23
BRANCH  21  26
ATOM     26  O   UNL     1      -1.512  13.614  19.203  0.00  0.00    +0.000 OA
ATOM     27  H   UNL     1      -2.273  13.627  18.593  0.00  0.00    +0.000 HD
ENDBRANCH  21  26
ENDBRANCH  12  18
ENDBRANCH   1  13
BRANCH   5  28
ATOM     28  N   UNL     1       3.432   2.295  21.306  0.00  0.00    +0.000 N 
ATOM     29  O   UNL     1       2.576   2.497  22.178  0.00  0.00    +0.000 OA
ATOM     30  O   UNL     1       4.520   1.729  21.500  0.00  0.00    +0.000 OA
ENDBRANCH   5  28
BRANCH   6  31
ATOM     31  O   UNL     1       4.440   1.057  18.805  0.00  0.00    +0.000 OA
ATOM     32  H   UNL     1       3.768   0.356  18.953  0.00  0.00    +0.000 HD
ENDBRANCH   6  31
BRANCH   7  33
ATOM     33  O   UNL     1       4.586   2.570  16.599  0.00  0.00    +0.000 OA
ATOM     34  H   UNL     1       4.492   1.598  16.660  0.00  0.00    +0.000 HD
ENDBRANCH   7  33
TORSDOF 8
ENDMDL
MODEL 8
REMARK VINA RESULT:      -7.8      2.745      9.422
REMARK  Name = 
REMARK  8 active torsions:
REMARK  status: ('A' for Active; 'I' for Inactive)
REMARK    1  A    between atoms: C_2  and  O_3
REMARK    2  A    between atoms: C_2  and  C_4
REMARK    3  A    between atoms: C_6  and  N_7
REMARK    4  A    between atoms: C_8  and  C_10
REMARK    5  A    between atoms: C_14  and  N_15
REMARK    6  A    between atoms: C_18  and  O_19
REMARK    7  A    between atoms: C_20  and  O_21
REMARK    8  A    between atoms: C_28  and  O_29
REMARK                            x       y       z     vdW  Elec       q    Type
REMARK                         _______ _______ _______ _____ _____    ______ ____
ROOT
ATOM      1  C   UNL     1       1.337   9.481  18.944  0.00  0.00    +0.000 A 
ATOM      2  C   UNL     1       1.645  10.606  18.280  0.00  0.00    +0.000 A 
ATOM      3  C   UNL     1       0.916  11.796  18.652  0.00  0.00    +0.000 A 
ATOM      4  C   UNL     1       1.526  13.017  18.889  0.00  0.00    +0.000 A 
ATOM      5  C   UNL     1       0.738  14.067  19.379  0.00  0.00    +0.000 A 
ATOM      6  C   UNL     1      -0.662  13.975  19.364  0.00  0.00    +0.000 A 
ATOM      7  C   UNL     1      -1.249  12.734  19.126  0.00  0.00    +0.000 A 
ATOM      8  C   UNL     1      -0.424  11.630  18.977  0.00  0.00    +0.000 A 
ATOM      9  O   UNL     1      -0.815  10.377  19.518  0.00  0.00    +0.000 OA
ATOM     10  C   UNL     1       0.254   9.570  19.939  0.00  0.00    +0.000 A 
ATOM     11  O   UNL     1       0.277   8.936  20.987  0.00  0.00    +0.000 OA
ENDROOT
BRANCH   1  13
ATOM     12  N   UNL     1       2.246   7.325  19.618  0.00  0.00    +0.000 N 
ATOM     13  C   UNL     1       2.123   8.272  18.619  0.00  0.00    +0.000 C 
ATOM     14  O   UNL     1       2.636   8.204  17.504  0.00  0.00    +0.000 OA
ATOM     15  H   UNL     1       1.850   7.545  20.532  0.00  0.00    +0.000 HD
BRANCH  12  18
ATOM     16  C   UNL     1       5.006   4.786  19.270  0.00  0.00    +0.000 A 
ATOM     17  C   UNL     1       4.337   6.017  19.348  0.00  0.00    +0.000 A 
ATOM     18  C   UNL     1       2.946   6.094  19.497  0.00  0.00    +0.000 A 
ATOM     19  C   UNL     1       2.217   4.900  19.542  0.00  0.00    +0.000 A 
ATOM     20  C   UNL     1       2.871   3.660  19.453  0.00  0.00    +0.000 A 
ATOM     21  C   UNL     1       4.260   3.609  19.338  0.00  0.00    +0.000 A 
BRANCH  16  23
ATOM     22  O   UNL     1       7.225   5.372  19.900  0.00  0.00    +0.000 OA
ATOM     23  C   UNL     1       6.494   4.824  19.099  0.00  0.00    +0.000 C 
BRANCH  23  24
ATOM     24  O   UNL     1       6.951   4.135  18.037  0.00  0.00    +0.000 OA
ATOM     25  H   UNL     1       7.144   3.198  18.256  0.00  0.00    +0.000 HD
ENDBRANCH  23  24
ENDBRANCH  16  23
BRANCH  21  26
ATOM     26  O   UNL     1       4.896   2.396  19.296  0.00  0.00    +0.000 OA
ATOM     27  H   UNL     1       5.663   2.420  19.898  0.00  0.00    +0.000 HD
ENDBRANCH  21  26
ENDBRANCH  12  18
ENDBRANCH   1  13
BRANCH   5  28
ATOM     28  N   UNL     1       1.404  15.162  20.082  0.00  0.00    +0.000 N 
ATOM     29  O   UNL     1       0.936  15.521  21.172  0.00  0.00    +0.000 OA
ATOM     30  O   UNL     1       2.360  15.708  19.508  0.00  0.00    +0.000 OA
ENDBRANCH   5  28
BRANCH   6  31
ATOM     31  O   UNL     1      -1.528  14.998  19.653  0.00  0.00    +0.000 OA
ATOM     32  H   UNL     1      -1.255  15.429  20.493  0.00  0.00    +0.000 HD
ENDBRANCH   6  31
BRANCH   7  33
ATOM     33  O   UNL     1      -2.606  12.610  19.096  0.00  0.00    +0.000 OA
ATOM     34  H   UNL     1      -2.882  12.940  18.217  0.00  0.00    +0.000 HD
ENDBRANCH   7  33
TORSDOF 8
ENDMDL
MODEL 9
REMARK VINA RESULT:      -7.8      2.671      9.071
REMARK  Name = 
REMARK  8 active torsions:
REMARK  status: ('A' for Active; 'I' for Inactive)
REMARK    1  A    between atoms: C_2  and  O_3
REMARK    2  A    between atoms: C_2  and  C_4
REMARK    3  A    between atoms: C_6  and  N_7
REMARK    4  A    between atoms: C_8  and  C_10
REMARK    5  A    between atoms: C_14  and  N_15
REMARK    6  A    between atoms: C_18  and  O_19
REMARK    7  A    between atoms: C_20  and  O_21
REMARK    8  A    between atoms: C_28  and  O_29
REMARK                            x       y       z     vdW  Elec       q    Type
REMARK                         _______ _______ _______ _____ _____    ______ ____
ROOT
ATOM      1  C   UNL     1       1.254   9.249  19.497  0.00  0.00    +0.000 A 
ATOM      2  C   UNL     1       1.665  10.080  18.528  0.00  0.00    +0.000 A 
ATOM      3  C   UNL     1       1.153  11.429  18.572  0.00  0.00    +0.000 A 
ATOM      4  C   UNL     1       1.953  12.551  18.426  0.00  0.00    +0.000 A 
ATOM      5  C   UNL     1       1.370  13.810  18.625  0.00  0.00    +0.000 A 
ATOM      6  C   UNL     1      -0.024  13.949  18.693  0.00  0.00    +0.000 A 
ATOM      7  C   UNL     1      -0.804  12.805  18.843  0.00  0.00    +0.000 A 
ATOM      8  C   UNL     1      -0.165  11.582  18.984  0.00  0.00    +0.000 A 
ATOM      9  O   UNL     1      -0.688  10.610  19.876  0.00  0.00    +0.000 OA
ATOM     10  C   UNL     1       0.284   9.786  20.467  0.00  0.00    +0.000 A 
ATOM     11  O   UNL     1       0.302   9.471  21.651  0.00  0.00    +0.000 OA
ENDROOT
BRANCH   1  13
ATOM     12  N   UNL     1       2.276   7.396  18.291  0.00  0.00    +0.000 N 
ATOM     13  C   UNL     1       1.824   7.885  19.502  0.00  0.00    +0.000 C 
ATOM     14  O   UNL     1       1.826   7.269  20.566  0.00  0.00    +0.000 OA
ATOM     15  H   UNL     1       2.130   7.973  17.462  0.00  0.00    +0.000 HD
BRANCH  12  18
ATOM     16  C   UNL     1       4.806   4.626  17.960  0.00  0.00    +0.000 A 
ATOM     17  C   UNL     1       4.251   5.906  18.119  0.00  0.00    +0.000 A 
ATOM     18  C   UNL     1       2.867   6.119  18.094  0.00  0.00    +0.000 A 
ATOM     19  C   UNL     1       2.030   5.018  17.877  0.00  0.00    +0.000 A 
ATOM     20  C   UNL     1       2.570   3.733  17.704  0.00  0.00    +0.000 A 
ATOM     21  C   UNL     1       3.951   3.541  17.767  0.00  0.00    +0.000 A 
BRANCH  16  23
ATOM     22  O   UNL     1       6.948   4.776  18.987  0.00  0.00    +0.000 OA
ATOM     23  C   UNL     1       6.300   4.517  17.993  0.00  0.00    +0.000 C 
BRANCH  23  24
ATOM     24  O   UNL     1       6.849   4.034  16.862  0.00  0.00    +0.000 OA
ATOM     25  H   UNL     1       6.207   3.522  16.326  0.00  0.00    +0.000 HD
ENDBRANCH  23  24
ENDBRANCH  16  23
BRANCH  21  26
ATOM     26  O   UNL     1       4.469   2.278  17.640  0.00  0.00    +0.000 OA
ATOM     27  H   UNL     1       4.192   1.745  18.409  0.00  0.00    +0.000 HD
ENDBRANCH  21  26
ENDBRANCH  12  18
ENDBRANCH   1  13
BRANCH   5  28
ATOM     28  N   UNL     1       2.247  14.932  18.958  0.00  0.00    +0.000 N 
ATOM     29  O   UNL     1       2.114  15.982  18.315  0.00  0.00    +0.000 OA
ATOM     30  O   UNL     1       3.116  14.737  19.823  0.00  0.00    +0.000 OA
ENDBRANCH   5  28
BRANCH   6  31
ATOM     31  O   UNL     1      -0.703  15.140  18.711  0.00  0.00    +0.000 OA
ATOM     32  H   UNL     1      -0.481  15.629  19.533  0.00  0.00    +0.000 HD
ENDBRANCH   6  31
BRANCH   7  33
ATOM     33  O   UNL     1      -2.162  12.901  18.904  0.00  0.00    +0.000 OA
ATOM     34  H   UNL     1      -2.444  12.239  19.567  0.00  0.00    +0.000 HD
ENDBRANCH   7  33
TORSDOF 8
ENDMDL
