MODEL 1
REMARK VINA RESULT:      -8.6      0.000      0.000
REMARK  Name = 
REMARK  11 active torsions:
REMARK  status: ('A' for Active; 'I' for Inactive)
REMARK    1  A    between atoms: C_1  and  O_2
REMARK    2  A    between atoms: O_2  and  C_3
REMARK    3  A    between atoms: C_5  and  N_6
REMARK    4  A    between atoms: N_6  and  C_7
REMARK    5  A    between atoms: C_7  and  C_8
REMARK    6  A    between atoms: C_7  and  C_9
REMARK    7  A    between atoms: C_9  and  C_10
REMARK    8  A    between atoms: C_10  and  C_11
REMARK    9  A    between atoms: C_11  and  N_12
REMARK   10  A    between atoms: C_15  and  C_16
REMARK   11  A    between atoms: C_16  and  C_17
REMARK                            x       y       z     vdW  Elec       q    Type
REMARK                         _______ _______ _______ _____ _____    ______ ____
ROOT
ATOM      1  C   UNL     1       2.738   6.927  19.080  0.00  0.00    +0.000 C 
ENDROOT
BRANCH   1   2
ATOM      2  N   UNL     1       3.431   5.806  18.438  0.00  0.00    +0.000 N 
ATOM      3  C   UNL     1       4.630   5.904  17.748  0.00  0.00    +0.000 C 
ATOM      4  O   UNL     1       5.298   6.889  17.530  0.00  0.00    +0.000 OA
ATOM      5  C   UNL     1       4.924   4.493  17.269  0.00  0.00    +0.000 C 
ATOM      6  N   UNL     1       4.228   3.650  18.273  0.00  0.00    +0.000 NA
ATOM      7  C   UNL     1       3.094   4.447  18.778  0.00  0.00    +0.000 C 
ATOM      8  C   UNL     1       3.009   4.248  20.315  0.00  0.00    +0.000 C 
ATOM      9  C   UNL     1       2.511   2.864  20.706  0.00  0.00    +0.000 C 
ATOM     10  C   UNL     1       1.202   2.532  19.992  0.00  0.00    +0.000 C 
ATOM     11  C   UNL     1       1.359   2.593  18.483  0.00  0.00    +0.000 C 
ATOM     12  C   UNL     1       1.796   3.993  18.068  0.00  0.00    +0.000 C 
ATOM     13  H   UNL     1       4.888   3.519  19.041  0.00  0.00    +0.000 HD
BRANCH   5  14
ATOM     14  C   UNL     1       4.385   4.281  15.840  0.00  0.00    +0.000 C 
BRANCH  14  15
ATOM     15  C   UNL     1       5.465   4.299  14.779  0.00  0.00    +0.000 A 
ATOM     16  C   UNL     1       6.662   5.009  14.963  0.00  0.00    +0.000 A 
ATOM     17  C   UNL     1       7.603   5.116  13.930  0.00  0.00    +0.000 A 
ATOM     18  C   UNL     1       7.383   4.464  12.724  0.00  0.00    +0.000 A 
ATOM     19  C   UNL     1       6.221   3.720  12.547  0.00  0.00    +0.000 A 
ATOM     20  C   UNL     1       5.261   3.649  13.563  0.00  0.00    +0.000 A 
ENDBRANCH  14  15
ENDBRANCH   5  14
ENDBRANCH   1   2
BRANCH   1  21
ATOM     21  C   UNL     1       1.965   7.781  18.086  0.00  0.00    +0.000 C 
BRANCH  21  22
ATOM     22  C   UNL     1       2.579   9.162  17.826  0.00  0.00    +0.000 C 
BRANCH  22  23
ATOM     23  C   UNL     1       1.536  10.280  17.867  0.00  0.00    +0.000 C 
ATOM     24  C   UNL     1       2.163  11.620  18.235  0.00  0.00    +0.000 C 
BRANCH  23  25
ATOM     25  N   UNL     1       0.495   9.944  18.820  0.00  0.00    +0.000 N 
ATOM     26  H   UNL     1       0.591   9.134  19.433  0.00  0.00    +0.000 HD
BRANCH  25  29
ATOM     27  C   UNL     1      -2.821  11.273  17.841  0.00  0.00    +0.000 A 
ATOM     28  C   UNL     1      -1.635  10.555  17.839  0.00  0.00    +0.000 A 
ATOM     29  C   UNL     1      -0.746  10.574  18.918  0.00  0.00    +0.000 A 
ATOM     30  C   UNL     1      -1.090  11.277  20.088  0.00  0.00    +0.000 A 
ATOM     31  N   UNL     1      -0.255  11.272  21.156  0.00  0.00    +0.000 NA
ATOM     32  C   UNL     1      -0.630  11.941  22.267  0.00  0.00    +0.000 A 
ATOM     33  C   UNL     1      -1.802  12.662  22.371  0.00  0.00    +0.000 A 
ATOM     34  C   UNL     1      -2.651  12.691  21.272  0.00  0.00    +0.000 A 
ATOM     35  C   UNL     1      -2.315  11.987  20.108  0.00  0.00    +0.000 A 
ATOM     36  C   UNL     1      -3.160  11.992  18.979  0.00  0.00    +0.000 A 
BRANCH  27  38
ATOM     37  C   UNL     1      -4.998  11.796  17.068  0.00  0.00    +0.000 C 
ATOM     38  O   UNL     1      -3.676  11.340  16.772  0.00  0.00    +0.000 OA
ENDBRANCH  27  38
ENDBRANCH  25  29
ENDBRANCH  23  25
ENDBRANCH  22  23
ENDBRANCH  21  22
ENDBRANCH   1  21
TORSDOF 9
ENDMDL
MODEL 2
REMARK VINA RESULT:      -8.6      1.500      2.639
REMARK  Name = 
REMARK  11 active torsions:
REMARK  status: ('A' for Active; 'I' for Inactive)
REMARK    1  A    between atoms: C_1  and  O_2
REMARK    2  A    between atoms: O_2  and  C_3
REMARK    3  A    between atoms: C_5  and  N_6
REMARK    4  A    between atoms: N_6  and  C_7
REMARK    5  A    between atoms: C_7  and  C_8
REMARK    6  A    between atoms: C_7  and  C_9
REMARK    7  A    between atoms: C_9  and  C_10
REMARK    8  A    between atoms: C_10  and  C_11
REMARK    9  A    between atoms: C_11  and  N_12
REMARK   10  A    between atoms: C_15  and  C_16
REMARK   11  A    between atoms: C_16  and  C_17
REMARK                            x       y       z     vdW  Elec       q    Type
REMARK                         _______ _______ _______ _____ _____    ______ ____
ROOT
ATOM      1  C   UNL     1       3.484   6.725  18.747  0.00  0.00    +0.000 C 
ENDROOT
BRANCH   1   2
ATOM      2  N   UNL     1       4.111   5.626  18.005  0.00  0.00    +0.000 N 
ATOM      3  C   UNL     1       5.261   5.740  17.238  0.00  0.00    +0.000 C 
ATOM      4  O   UNL     1       5.930   6.725  17.023  0.00  0.00    +0.000 OA
ATOM      5  C   UNL     1       5.496   4.350  16.673  0.00  0.00    +0.000 C 
ATOM      6  N   UNL     1       4.855   3.469  17.682  0.00  0.00    +0.000 NA
ATOM      7  C   UNL     1       3.773   4.258  18.302  0.00  0.00    +0.000 C 
ATOM      8  C   UNL     1       3.791   3.984  19.830  0.00  0.00    +0.000 C 
ATOM      9  C   UNL     1       3.296   2.589  20.187  0.00  0.00    +0.000 C 
ATOM     10  C   UNL     1       1.935   2.313  19.552  0.00  0.00    +0.000 C 
ATOM     11  C   UNL     1       1.989   2.447  18.039  0.00  0.00    +0.000 C 
ATOM     12  C   UNL     1       2.421   3.858  17.663  0.00  0.00    +0.000 C 
ATOM     13  H   UNL     1       5.564   3.291  18.394  0.00  0.00    +0.000 HD
BRANCH   5  14
ATOM     14  C   UNL     1       4.856   4.217  15.276  0.00  0.00    +0.000 C 
BRANCH  14  15
ATOM     15  C   UNL     1       5.865   4.226  14.148  0.00  0.00    +0.000 A 
ATOM     16  C   UNL     1       6.993   5.060  14.179  0.00  0.00    +0.000 A 
ATOM     17  C   UNL     1       7.856   5.147  13.078  0.00  0.00    +0.000 A 
ATOM     18  C   UNL     1       7.632   4.356  11.959  0.00  0.00    +0.000 A 
ATOM     19  C   UNL     1       6.542   3.492  11.936  0.00  0.00    +0.000 A 
ATOM     20  C   UNL     1       5.655   3.437  13.017  0.00  0.00    +0.000 A 
ENDBRANCH  14  15
ENDBRANCH   5  14
ENDBRANCH   1   2
BRANCH   1  21
ATOM     21  C   UNL     1       2.960   7.822  17.833  0.00  0.00    +0.000 C 
BRANCH  21  22
ATOM     22  C   UNL     1       1.530   8.276  18.145  0.00  0.00    +0.000 C 
BRANCH  22  23
ATOM     23  C   UNL     1       1.494   9.523  19.029  0.00  0.00    +0.000 C 
ATOM     24  C   UNL     1       0.742   9.268  20.330  0.00  0.00    +0.000 C 
BRANCH  23  25
ATOM     25  N   UNL     1       0.873  10.618  18.307  0.00  0.00    +0.000 N 
ATOM     26  H   UNL     1       1.292  10.984  17.452  0.00  0.00    +0.000 HD
BRANCH  25  29
ATOM     27  C   UNL     1      -1.189  12.983  20.276  0.00  0.00    +0.000 A 
ATOM     28  C   UNL     1      -0.100  12.327  19.724  0.00  0.00    +0.000 A 
ATOM     29  C   UNL     1      -0.237  11.345  18.738  0.00  0.00    +0.000 A 
ATOM     30  C   UNL     1      -1.514  11.056  18.221  0.00  0.00    +0.000 A 
ATOM     31  N   UNL     1      -1.659  10.133  17.238  0.00  0.00    +0.000 NA
ATOM     32  C   UNL     1      -2.897   9.900  16.753  0.00  0.00    +0.000 A 
ATOM     33  C   UNL     1      -4.036  10.522  17.222  0.00  0.00    +0.000 A 
ATOM     34  C   UNL     1      -3.898  11.451  18.246  0.00  0.00    +0.000 A 
ATOM     35  C   UNL     1      -2.627  11.746  18.759  0.00  0.00    +0.000 A 
ATOM     36  C   UNL     1      -2.457  12.690  19.793  0.00  0.00    +0.000 A 
BRANCH  27  38
ATOM     37  C   UNL     1      -0.753  13.354  22.575  0.00  0.00    +0.000 C 
ATOM     38  O   UNL     1      -1.096  13.894  21.296  0.00  0.00    +0.000 OA
ENDBRANCH  27  38
ENDBRANCH  25  29
ENDBRANCH  23  25
ENDBRANCH  22  23
ENDBRANCH  21  22
ENDBRANCH   1  21
TORSDOF 9
ENDMDL
MODEL 3
REMARK VINA RESULT:      -8.5      2.974      9.984
REMARK  Name = 
REMARK  11 active torsions:
REMARK  status: ('A' for Active; 'I' for Inactive)
REMARK    1  A    between atoms: C_1  and  O_2
REMARK    2  A    between atoms: O_2  and  C_3
REMARK    3  A    between atoms: C_5  and  N_6
REMARK    4  A    between atoms: N_6  and  C_7
REMARK    5  A    between atoms: C_7  and  C_8
REMARK    6  A    between atoms: C_7  and  C_9
REMARK    7  A    between atoms: C_9  and  C_10
REMARK    8  A    between atoms: C_10  and  C_11
REMARK    9  A    between atoms: C_11  and  N_12
REMARK   10  A    between atoms: C_15  and  C_16
REMARK   11  A    between atoms: C_16  and  C_17
REMARK                            x       y       z     vdW  Elec       q    Type
REMARK                         _______ _______ _______ _____ _____    ______ ____
ROOT
ATOM      1  C   UNL     1      -0.322  10.258  21.087  0.00  0.00    +0.000 C 
ENDROOT
BRANCH   1   2
ATOM      2  N   UNL     1      -0.216  11.351  20.115  0.00  0.00    +0.000 N 
ATOM      3  C   UNL     1       0.818  12.274  20.069  0.00  0.00    +0.000 C 
ATOM      4  O   UNL     1       1.780  12.368  20.798  0.00  0.00    +0.000 OA
ATOM      5  C   UNL     1       0.471  13.196  18.913  0.00  0.00    +0.000 C 
ATOM      6  N   UNL     1      -0.351  12.329  18.033  0.00  0.00    +0.000 NA
ATOM      7  C   UNL     1      -1.004  11.338  18.910  0.00  0.00    +0.000 C 
ATOM      8  C   UNL     1      -0.946   9.956  18.206  0.00  0.00    +0.000 C 
ATOM      9  C   UNL     1      -1.884   9.861  17.010  0.00  0.00    +0.000 C 
ATOM     10  C   UNL     1      -3.304  10.270  17.396  0.00  0.00    +0.000 C 
ATOM     11  C   UNL     1      -3.346  11.685  17.946  0.00  0.00    +0.000 C 
ATOM     12  C   UNL     1      -2.462  11.781  19.184  0.00  0.00    +0.000 C 
ATOM     13  H   UNL     1       0.305  11.831  17.430  0.00  0.00    +0.000 HD
BRANCH   5  14
ATOM     14  C   UNL     1      -0.300  14.432  19.417  0.00  0.00    +0.000 C 
BRANCH  14  15
ATOM     15  C   UNL     1       0.184  15.733  18.812  0.00  0.00    +0.000 A 
ATOM     16  C   UNL     1      -0.716  16.711  18.362  0.00  0.00    +0.000 A 
ATOM     17  C   UNL     1      -0.261  17.858  17.697  0.00  0.00    +0.000 A 
ATOM     18  C   UNL     1       1.101  18.066  17.529  0.00  0.00    +0.000 A 
ATOM     19  C   UNL     1       2.004  17.124  18.013  0.00  0.00    +0.000 A 
ATOM     20  C   UNL     1       1.548  15.958  18.638  0.00  0.00    +0.000 A 
ENDBRANCH  14  15
ENDBRANCH   5  14
ENDBRANCH   1   2
BRANCH   1  21
ATOM     21  C   UNL     1       0.985   9.500  21.258  0.00  0.00    +0.000 C 
BRANCH  21  22
ATOM     22  C   UNL     1       0.989   8.095  20.645  0.00  0.00    +0.000 C 
BRANCH  22  23
ATOM     23  C   UNL     1       2.241   7.829  19.808  0.00  0.00    +0.000 C 
ATOM     24  C   UNL     1       1.923   7.800  18.317  0.00  0.00    +0.000 C 
BRANCH  23  25
ATOM     25  N   UNL     1       2.838   6.569  20.209  0.00  0.00    +0.000 N 
ATOM     26  H   UNL     1       3.035   6.373  21.191  0.00  0.00    +0.000 HD
BRANCH  25  29
ATOM     27  C   UNL     1       4.948   4.877  17.677  0.00  0.00    +0.000 A 
ATOM     28  C   UNL     1       4.507   5.766  18.645  0.00  0.00    +0.000 A 
ATOM     29  C   UNL     1       3.308   5.583  19.340  0.00  0.00    +0.000 A 
ATOM     30  C   UNL     1       2.548   4.419  19.118  0.00  0.00    +0.000 A 
ATOM     31  N   UNL     1       1.403   4.209  19.812  0.00  0.00    +0.000 NA
ATOM     32  C   UNL     1       0.715   3.070  19.586  0.00  0.00    +0.000 A 
ATOM     33  C   UNL     1       1.088   2.116  18.661  0.00  0.00    +0.000 A 
ATOM     34  C   UNL     1       2.248   2.337  17.929  0.00  0.00    +0.000 A 
ATOM     35  C   UNL     1       3.010   3.491  18.153  0.00  0.00    +0.000 A 
ATOM     36  C   UNL     1       4.195   3.737  17.429  0.00  0.00    +0.000 A 
BRANCH  27  38
ATOM     37  C   UNL     1       7.307   4.701  17.554  0.00  0.00    +0.000 C 
ATOM     38  O   UNL     1       6.077   5.067  16.923  0.00  0.00    +0.000 OA
ENDBRANCH  27  38
ENDBRANCH  25  29
ENDBRANCH  23  25
ENDBRANCH  22  23
ENDBRANCH  21  22
ENDBRANCH   1  21
TORSDOF 9
ENDMDL
MODEL 4
REMARK VINA RESULT:      -8.4      1.343      1.816
REMARK  Name = 
REMARK  11 active torsions:
REMARK  status: ('A' for Active; 'I' for Inactive)
REMARK    1  A    between atoms: C_1  and  O_2
REMARK    2  A    between atoms: O_2  and  C_3
REMARK    3  A    between atoms: C_5  and  N_6
REMARK    4  A    between atoms: N_6  and  C_7
REMARK    5  A    between atoms: C_7  and  C_8
REMARK    6  A    between atoms: C_7  and  C_9
REMARK    7  A    between atoms: C_9  and  C_10
REMARK    8  A    between atoms: C_10  and  C_11
REMARK    9  A    between atoms: C_11  and  N_12
REMARK   10  A    between atoms: C_15  and  C_16
REMARK   11  A    between atoms: C_16  and  C_17
REMARK                            x       y       z     vdW  Elec       q    Type
REMARK                         _______ _______ _______ _____ _____    ______ ____
ROOT
ATOM      1  C   UNL     1       1.965   7.229  17.899  0.00  0.00    +0.000 C 
ENDROOT
BRANCH   1   2
ATOM      2  N   UNL     1       2.885   6.087  17.887  0.00  0.00    +0.000 N 
ATOM      3  C   UNL     1       4.189   6.123  17.417  0.00  0.00    +0.000 C 
ATOM      4  O   UNL     1       4.791   7.053  16.929  0.00  0.00    +0.000 OA
ATOM      5  C   UNL     1       4.715   4.711  17.607  0.00  0.00    +0.000 C 
ATOM      6  N   UNL     1       3.903   4.205  18.741  0.00  0.00    +0.000 NA
ATOM      7  C   UNL     1       2.615   4.923  18.690  0.00  0.00    +0.000 C 
ATOM      8  C   UNL     1       2.220   5.310  20.141  0.00  0.00    +0.000 C 
ATOM      9  C   UNL     1       1.785   4.113  20.975  0.00  0.00    +0.000 C 
ATOM     10  C   UNL     1       0.699   3.312  20.259  0.00  0.00    +0.000 C 
ATOM     11  C   UNL     1       1.172   2.824  18.900  0.00  0.00    +0.000 C 
ATOM     12  C   UNL     1       1.550   4.015  18.029  0.00  0.00    +0.000 C 
ATOM     13  H   UNL     1       4.391   4.491  19.590  0.00  0.00    +0.000 HD
BRANCH   5  14
ATOM     14  C   UNL     1       4.520   3.883  16.320  0.00  0.00    +0.000 C 
BRANCH  14  15
ATOM     15  C   UNL     1       5.586   4.134  15.275  0.00  0.00    +0.000 A 
ATOM     16  C   UNL     1       6.760   4.840  15.579  0.00  0.00    +0.000 A 
ATOM     17  C   UNL     1       7.684   5.168  14.577  0.00  0.00    +0.000 A 
ATOM     18  C   UNL     1       7.471   4.742  13.273  0.00  0.00    +0.000 A 
ATOM     19  C   UNL     1       6.333   4.002  12.970  0.00  0.00    +0.000 A 
ATOM     20  C   UNL     1       5.388   3.712  13.961  0.00  0.00    +0.000 A 
ENDBRANCH  14  15
ENDBRANCH   5  14
ENDBRANCH   1   2
BRANCH   1  21
ATOM     21  C   UNL     1       2.490   8.394  18.723  0.00  0.00    +0.000 C 
BRANCH  21  22
ATOM     22  C   UNL     1       1.413   9.149  19.510  0.00  0.00    +0.000 C 
BRANCH  22  23
ATOM     23  C   UNL     1       0.730  10.230  18.672  0.00  0.00    +0.000 C 
ATOM     24  C   UNL     1       1.546  11.518  18.643  0.00  0.00    +0.000 C 
BRANCH  23  25
ATOM     25  N   UNL     1      -0.594  10.498  19.202  0.00  0.00    +0.000 N 
ATOM     26  H   UNL     1      -0.749  10.562  20.209  0.00  0.00    +0.000 HD
BRANCH  25  29
ATOM     27  C   UNL     1      -2.972  10.002  16.405  0.00  0.00    +0.000 A 
ATOM     28  C   UNL     1      -1.880   9.864  17.248  0.00  0.00    +0.000 A 
ATOM     29  C   UNL     1      -1.768  10.566  18.452  0.00  0.00    +0.000 A 
ATOM     30  C   UNL     1      -2.830  11.387  18.877  0.00  0.00    +0.000 A 
ATOM     31  N   UNL     1      -2.752  12.044  20.060  0.00  0.00    +0.000 NA
ATOM     32  C   UNL     1      -3.800  12.804  20.442  0.00  0.00    +0.000 A 
ATOM     33  C   UNL     1      -4.939  12.982  19.683  0.00  0.00    +0.000 A 
ATOM     34  C   UNL     1      -5.014  12.330  18.458  0.00  0.00    +0.000 A 
ATOM     35  C   UNL     1      -3.962  11.508  18.035  0.00  0.00    +0.000 A 
ATOM     36  C   UNL     1      -4.015  10.828  16.800  0.00  0.00    +0.000 A 
BRANCH  27  38
ATOM     37  C   UNL     1      -3.549  10.217  14.118  0.00  0.00    +0.000 C 
ATOM     38  O   UNL     1      -3.077   9.389  15.184  0.00  0.00    +0.000 OA
ENDBRANCH  27  38
ENDBRANCH  25  29
ENDBRANCH  23  25
ENDBRANCH  22  23
ENDBRANCH  21  22
ENDBRANCH   1  21
TORSDOF 9
ENDMDL
MODEL 5
REMARK VINA RESULT:      -8.4      1.789      2.231
REMARK  Name = 
REMARK  11 active torsions:
REMARK  status: ('A' for Active; 'I' for Inactive)
REMARK    1  A    between atoms: C_1  and  O_2
REMARK    2  A    between atoms: O_2  and  C_3
REMARK    3  A    between atoms: C_5  and  N_6
REMARK    4  A    between atoms: N_6  and  C_7
REMARK    5  A    between atoms: C_7  and  C_8
REMARK    6  A    between atoms: C_7  and  C_9
REMARK    7  A    between atoms: C_9  and  C_10
REMARK    8  A    between atoms: C_10  and  C_11
REMARK    9  A    between atoms: C_11  and  N_12
REMARK   10  A    between atoms: C_15  and  C_16
REMARK   11  A    between atoms: C_16  and  C_17
REMARK                            x       y       z     vdW  Elec       q    Type
REMARK                         _______ _______ _______ _____ _____    ______ ____
ROOT
ATOM      1  C   UNL     1       3.981   6.301  19.437  0.00  0.00    +0.000 C 
ENDROOT
BRANCH   1   2
ATOM      2  N   UNL     1       4.524   5.505  18.332  0.00  0.00    +0.000 N 
ATOM      3  C   UNL     1       5.590   5.883  17.530  0.00  0.00    +0.000 C 
ATOM      4  O   UNL     1       6.238   6.905  17.567  0.00  0.00    +0.000 OA
ATOM      5  C   UNL     1       5.761   4.744  16.540  0.00  0.00    +0.000 C 
ATOM      6  N   UNL     1       5.224   3.577  17.282  0.00  0.00    +0.000 NA
ATOM      7  C   UNL     1       4.213   4.103  18.220  0.00  0.00    +0.000 C 
ATOM      8  C   UNL     1       4.386   3.369  19.577  0.00  0.00    +0.000 C 
ATOM      9  C   UNL     1       3.925   1.919  19.530  0.00  0.00    +0.000 C 
ATOM     10  C   UNL     1       2.505   1.815  18.976  0.00  0.00    +0.000 C 
ATOM     11  C   UNL     1       2.405   2.413  17.583  0.00  0.00    +0.000 C 
ATOM     12  C   UNL     1       2.802   3.883  17.625  0.00  0.00    +0.000 C 
ATOM     13  H   UNL     1       6.001   3.206  17.830  0.00  0.00    +0.000 HD
BRANCH   5  14
ATOM     14  C   UNL     1       4.981   5.033  15.241  0.00  0.00    +0.000 C 
BRANCH  14  15
ATOM     15  C   UNL     1       5.691   4.555  13.992  0.00  0.00    +0.000 A 
ATOM     16  C   UNL     1       5.102   3.622  13.126  0.00  0.00    +0.000 A 
ATOM     17  C   UNL     1       5.813   3.098  12.038  0.00  0.00    +0.000 A 
ATOM     18  C   UNL     1       7.100   3.547  11.772  0.00  0.00    +0.000 A 
ATOM     19  C   UNL     1       7.677   4.506  12.599  0.00  0.00    +0.000 A 
ATOM     20  C   UNL     1       6.983   4.997  13.711  0.00  0.00    +0.000 A 
ENDBRANCH  14  15
ENDBRANCH   5  14
ENDBRANCH   1   2
BRANCH   1  21
ATOM     21  C   UNL     1       2.676   6.992  19.071  0.00  0.00    +0.000 C 
BRANCH  21  22
ATOM     22  C   UNL     1       1.728   7.221  20.254  0.00  0.00    +0.000 C 
BRANCH  22  23
ATOM     23  C   UNL     1       1.344   8.693  20.416  0.00  0.00    +0.000 C 
ATOM     24  C   UNL     1       0.054   8.852  21.213  0.00  0.00    +0.000 C 
BRANCH  23  25
ATOM     25  N   UNL     1       1.196   9.307  19.111  0.00  0.00    +0.000 N 
ATOM     26  H   UNL     1       1.876   9.129  18.370  0.00  0.00    +0.000 HD
BRANCH  25  29
ATOM     27  C   UNL     1      -1.885  10.789  17.684  0.00  0.00    +0.000 A 
ATOM     28  C   UNL     1      -0.960   9.871  18.159  0.00  0.00    +0.000 A 
ATOM     29  C   UNL     1       0.237  10.260  18.769  0.00  0.00    +0.000 A 
ATOM     30  C   UNL     1       0.491  11.627  18.988  0.00  0.00    +0.000 A 
ATOM     31  N   UNL     1       1.629  12.018  19.612  0.00  0.00    +0.000 NA
ATOM     32  C   UNL     1       1.826  13.336  19.823  0.00  0.00    +0.000 A 
ATOM     33  C   UNL     1       0.951  14.320  19.409  0.00  0.00    +0.000 A 
ATOM     34  C   UNL     1      -0.206  13.928  18.748  0.00  0.00    +0.000 A 
ATOM     35  C   UNL     1      -0.465  12.568  18.534  0.00  0.00    +0.000 A 
ATOM     36  C   UNL     1      -1.635  12.141  17.871  0.00  0.00    +0.000 A 
BRANCH  27  38
ATOM     37  C   UNL     1      -2.840   9.949  15.685  0.00  0.00    +0.000 C 
ATOM     38  O   UNL     1      -3.029  10.443  17.014  0.00  0.00    +0.000 OA
ENDBRANCH  27  38
ENDBRANCH  25  29
ENDBRANCH  23  25
ENDBRANCH  22  23
ENDBRANCH  21  22
ENDBRANCH   1  21
TORSDOF 9
ENDMDL
MODEL 6
REMARK VINA RESULT:      -8.3      1.175      1.612
REMARK  Name = 
REMARK  11 active torsions:
REMARK  status: ('A' for Active; 'I' for Inactive)
REMARK    1  A    between atoms: C_1  and  O_2
REMARK    2  A    between atoms: O_2  and  C_3
REMARK    3  A    between atoms: C_5  and  N_6
REMARK    4  A    between atoms: N_6  and  C_7
REMARK    5  A    between atoms: C_7  and  C_8
REMARK    6  A    between atoms: C_7  and  C_9
REMARK    7  A    between atoms: C_9  and  C_10
REMARK    8  A    between atoms: C_10  and  C_11
REMARK    9  A    between atoms: C_11  and  N_12
REMARK   10  A    between atoms: C_15  and  C_16
REMARK   11  A    between atoms: C_16  and  C_17
REMARK                            x       y       z     vdW  Elec       q    Type
REMARK                         _______ _______ _______ _____ _____    ______ ____
ROOT
ATOM      1  C   UNL     1       1.661   6.804  18.691  0.00  0.00    +0.000 C 
ENDROOT
BRANCH   1   2
ATOM      2  N   UNL     1       2.722   5.801  18.553  0.00  0.00    +0.000 N 
ATOM      3  C   UNL     1       3.958   6.029  17.967  0.00  0.00    +0.000 C 
ATOM      4  O   UNL     1       4.378   7.044  17.461  0.00  0.00    +0.000 OA
ATOM      5  C   UNL     1       4.687   4.699  18.055  0.00  0.00    +0.000 C 
ATOM      6  N   UNL     1       4.063   4.057  19.239  0.00  0.00    +0.000 NA
ATOM      7  C   UNL     1       2.691   4.591  19.334  0.00  0.00    +0.000 C 
ATOM      8  C   UNL     1       2.388   4.884  20.828  0.00  0.00    +0.000 C 
ATOM      9  C   UNL     1       2.202   3.618  21.653  0.00  0.00    +0.000 C 
ATOM     10  C   UNL     1       1.171   2.693  21.010  0.00  0.00    +0.000 C 
ATOM     11  C   UNL     1       1.573   2.308  19.596  0.00  0.00    +0.000 C 
ATOM     12  C   UNL     1       1.701   3.561  18.739  0.00  0.00    +0.000 C 
ATOM     13  H   UNL     1       4.587   4.388  20.050  0.00  0.00    +0.000 HD
BRANCH   5  14
ATOM     14  C   UNL     1       4.483   3.884  16.761  0.00  0.00    +0.000 C 
BRANCH  14  15
ATOM     15  C   UNL     1       5.462   4.241  15.663  0.00  0.00    +0.000 A 
ATOM     16  C   UNL     1       5.250   3.842  14.334  0.00  0.00    +0.000 A 
ATOM     17  C   UNL     1       6.218   4.076  13.348  0.00  0.00    +0.000 A 
ATOM     18  C   UNL     1       7.381   4.763  13.669  0.00  0.00    +0.000 A 
ATOM     19  C   UNL     1       7.580   5.203  14.974  0.00  0.00    +0.000 A 
ATOM     20  C   UNL     1       6.634   4.931  15.969  0.00  0.00    +0.000 A 
ENDBRANCH  14  15
ENDBRANCH   5  14
ENDBRANCH   1   2
BRANCH   1  21
ATOM     21  C   UNL     1       2.018   7.897  19.686  0.00  0.00    +0.000 C 
BRANCH  21  22
ATOM     22  C   UNL     1       1.023   9.063  19.729  0.00  0.00    +0.000 C 
BRANCH  22  23
ATOM     23  C   UNL     1       0.837   9.721  18.360  0.00  0.00    +0.000 C 
ATOM     24  C   UNL     1       2.176  10.004  17.688  0.00  0.00    +0.000 C 
BRANCH  23  25
ATOM     25  N   UNL     1       0.088  10.954  18.507  0.00  0.00    +0.000 N 
ATOM     26  H   UNL     1       0.540  11.801  18.854  0.00  0.00    +0.000 HD
BRANCH  25  29
ATOM     27  C   UNL     1      -3.228  10.902  16.858  0.00  0.00    +0.000 A 
ATOM     28  C   UNL     1      -1.891  10.669  17.137  0.00  0.00    +0.000 A 
ATOM     29  C   UNL     1      -1.288  11.092  18.326  0.00  0.00    +0.000 A 
ATOM     30  C   UNL     1      -2.072  11.707  19.320  0.00  0.00    +0.000 A 
ATOM     31  N   UNL     1      -1.510  12.088  20.494  0.00  0.00    +0.000 NA
ATOM     32  C   UNL     1      -2.300  12.654  21.430  0.00  0.00    +0.000 A 
ATOM     33  C   UNL     1      -3.646  12.903  21.252  0.00  0.00    +0.000 A 
ATOM     34  C   UNL     1      -4.223  12.537  20.043  0.00  0.00    +0.000 A 
ATOM     35  C   UNL     1      -3.447  11.919  19.054  0.00  0.00    +0.000 A 
ATOM     36  C   UNL     1      -4.008  11.531  17.820  0.00  0.00    +0.000 A 
BRANCH  27  38
ATOM     37  C   UNL     1      -2.952  10.111  14.642  0.00  0.00    +0.000 C 
ATOM     38  O   UNL     1      -3.830  10.571  15.672  0.00  0.00    +0.000 OA
ENDBRANCH  27  38
ENDBRANCH  25  29
ENDBRANCH  23  25
ENDBRANCH  22  23
ENDBRANCH  21  22
ENDBRANCH   1  21
TORSDOF 9
ENDMDL
MODEL 7
REMARK VINA RESULT:      -8.3      1.411      2.505
REMARK  Name = 
REMARK  11 active torsions:
REMARK  status: ('A' for Active; 'I' for Inactive)
REMARK    1  A    between atoms: C_1  and  O_2
REMARK    2  A    between atoms: O_2  and  C_3
REMARK    3  A    between atoms: C_5  and  N_6
REMARK    4  A    between atoms: N_6  and  C_7
REMARK    5  A    between atoms: C_7  and  C_8
REMARK    6  A    between atoms: C_7  and  C_9
REMARK    7  A    between atoms: C_9  and  C_10
REMARK    8  A    between atoms: C_10  and  C_11
REMARK    9  A    between atoms: C_11  and  N_12
REMARK   10  A    between atoms: C_15  and  C_16
REMARK   11  A    between atoms: C_16  and  C_17
REMARK                            x       y       z     vdW  Elec       q    Type
REMARK                         _______ _______ _______ _____ _____    ______ ____
ROOT
ATOM      1  C   UNL     1       2.757   6.816  19.290  0.00  0.00    +0.000 C 
ENDROOT
BRANCH   1   2
ATOM      2  N   UNL     1       3.453   5.633  18.773  0.00  0.00    +0.000 N 
ATOM      3  C   UNL     1       4.680   5.654  18.126  0.00  0.00    +0.000 C 
ATOM      4  O   UNL     1       5.375   6.606  17.854  0.00  0.00    +0.000 OA
ATOM      5  C   UNL     1       4.966   4.203  17.779  0.00  0.00    +0.000 C 
ATOM      6  N   UNL     1       4.215   3.459  18.820  0.00  0.00    +0.000 NA
ATOM      7  C   UNL     1       3.077   4.314  19.211  0.00  0.00    +0.000 C 
ATOM      8  C   UNL     1       2.928   4.246  20.755  0.00  0.00    +0.000 C 
ATOM      9  C   UNL     1       2.389   2.907  21.239  0.00  0.00    +0.000 C 
ATOM     10  C   UNL     1       1.103   2.537  20.503  0.00  0.00    +0.000 C 
ATOM     11  C   UNL     1       1.320   2.469  19.001  0.00  0.00    +0.000 C 
ATOM     12  C   UNL     1       1.799   3.822  18.489  0.00  0.00    +0.000 C 
ATOM     13  H   UNL     1       4.841   3.382  19.622  0.00  0.00    +0.000 HD
BRANCH   5  14
ATOM     14  C   UNL     1       4.479   3.881  16.351  0.00  0.00    +0.000 C 
BRANCH  14  15
ATOM     15  C   UNL     1       5.532   4.111  15.289  0.00  0.00    +0.000 A 
ATOM     16  C   UNL     1       6.734   4.776  15.579  0.00  0.00    +0.000 A 
ATOM     17  C   UNL     1       7.649   5.087  14.564  0.00  0.00    +0.000 A 
ATOM     18  C   UNL     1       7.398   4.685  13.259  0.00  0.00    +0.000 A 
ATOM     19  C   UNL     1       6.231   3.986  12.968  0.00  0.00    +0.000 A 
ATOM     20  C   UNL     1       5.297   3.713  13.974  0.00  0.00    +0.000 A 
ENDBRANCH  14  15
ENDBRANCH   5  14
ENDBRANCH   1   2
BRANCH   1  21
ATOM     21  C   UNL     1       1.960   7.540  18.216  0.00  0.00    +0.000 C 
BRANCH  21  22
ATOM     22  C   UNL     1       2.531   8.905  17.816  0.00  0.00    +0.000 C 
BRANCH  22  23
ATOM     23  C   UNL     1       1.510  10.033  17.977  0.00  0.00    +0.000 C 
ATOM     24  C   UNL     1       2.191  11.383  18.172  0.00  0.00    +0.000 C 
BRANCH  23  25
ATOM     25  N   UNL     1       0.643   9.751  19.106  0.00  0.00    +0.000 N 
ATOM     26  H   UNL     1       0.543   8.800  19.462  0.00  0.00    +0.000 HD
BRANCH  25  29
ATOM     27  C   UNL     1      -0.730  12.049  21.666  0.00  0.00    +0.000 A 
ATOM     28  C   UNL     1       0.137  11.235  20.954  0.00  0.00    +0.000 A 
ATOM     29  C   UNL     1      -0.207  10.670  19.722  0.00  0.00    +0.000 A 
ATOM     30  C   UNL     1      -1.443  10.993  19.132  0.00  0.00    +0.000 A 
ATOM     31  N   UNL     1      -1.774  10.483  17.920  0.00  0.00    +0.000 NA
ATOM     32  C   UNL     1      -2.959  10.834  17.378  0.00  0.00    +0.000 A 
ATOM     33  C   UNL     1      -3.876  11.658  17.999  0.00  0.00    +0.000 A 
ATOM     34  C   UNL     1      -3.553  12.165  19.252  0.00  0.00    +0.000 A 
ATOM     35  C   UNL     1      -2.320  11.850  19.840  0.00  0.00    +0.000 A 
ATOM     36  C   UNL     1      -1.963  12.356  21.107  0.00  0.00    +0.000 A 
BRANCH  27  38
ATOM     37  C   UNL     1      -1.341  13.581  23.367  0.00  0.00    +0.000 C 
ATOM     38  O   UNL     1      -0.455  12.556  22.909  0.00  0.00    +0.000 OA
ENDBRANCH  27  38
ENDBRANCH  25  29
ENDBRANCH  23  25
ENDBRANCH  22  23
ENDBRANCH  21  22
ENDBRANCH   1  21
TORSDOF 9
ENDMDL
MODEL 8
REMARK VINA RESULT:      -8.3      1.330      2.655
REMARK  Name = 
REMARK  11 active torsions:
REMARK  status: ('A' for Active; 'I' for Inactive)
REMARK    1  A    between atoms: C_1  and  O_2
REMARK    2  A    between atoms: O_2  and  C_3
REMARK    3  A    between atoms: C_5  and  N_6
REMARK    4  A    between atoms: N_6  and  C_7
REMARK    5  A    between atoms: C_7  and  C_8
REMARK    6  A    between atoms: C_7  and  C_9
REMARK    7  A    between atoms: C_9  and  C_10
REMARK    8  A    between atoms: C_10  and  C_11
REMARK    9  A    between atoms: C_11  and  N_12
REMARK   10  A    between atoms: C_15  and  C_16
REMARK   11  A    between atoms: C_16  and  C_17
REMARK                            x       y       z     vdW  Elec       q    Type
REMARK                         _______ _______ _______ _____ _____    ______ ____
ROOT
ATOM      1  C   UNL     1       2.464   7.031  19.089  0.00  0.00    +0.000 C 
ENDROOT
BRANCH   1   2
ATOM      2  N   UNL     1       3.234   5.860  18.658  0.00  0.00    +0.000 N 
ATOM      3  C   UNL     1       4.472   5.908  18.036  0.00  0.00    +0.000 C 
ATOM      4  O   UNL     1       5.122   6.880  17.722  0.00  0.00    +0.000 OA
ATOM      5  C   UNL     1       4.842   4.457  17.782  0.00  0.00    +0.000 C 
ATOM      6  N   UNL     1       4.107   3.736  18.851  0.00  0.00    +0.000 NA
ATOM      7  C   UNL     1       2.917   4.550  19.166  0.00  0.00    +0.000 C 
ATOM      8  C   UNL     1       2.736   4.565  20.709  0.00  0.00    +0.000 C 
ATOM      9  C   UNL     1       2.258   3.230  21.261  0.00  0.00    +0.000 C 
ATOM     10  C   UNL     1       1.010   2.748  20.523  0.00  0.00    +0.000 C 
ATOM     11  C   UNL     1       1.266   2.604  19.032  0.00  0.00    +0.000 C 
ATOM     12  C   UNL     1       1.684   3.948  18.450  0.00  0.00    +0.000 C 
ATOM     13  H   UNL     1       4.718   3.741  19.669  0.00  0.00    +0.000 HD
BRANCH   5  14
ATOM     14  C   UNL     1       4.407   4.026  16.367  0.00  0.00    +0.000 C 
BRANCH  14  15
ATOM     15  C   UNL     1       5.490   4.197  15.324  0.00  0.00    +0.000 A 
ATOM     16  C   UNL     1       6.702   4.838  15.624  0.00  0.00    +0.000 A 
ATOM     17  C   UNL     1       7.649   5.096  14.623  0.00  0.00    +0.000 A 
ATOM     18  C   UNL     1       7.418   4.662  13.325  0.00  0.00    +0.000 A 
ATOM     19  C   UNL     1       6.240   3.986  13.026  0.00  0.00    +0.000 A 
ATOM     20  C   UNL     1       5.275   3.766  14.016  0.00  0.00    +0.000 A 
ENDBRANCH  14  15
ENDBRANCH   5  14
ENDBRANCH   1   2
BRANCH   1  21
ATOM     21  C   UNL     1       1.999   7.887  17.921  0.00  0.00    +0.000 C 
BRANCH  21  22
ATOM     22  C   UNL     1       2.324   9.379  18.060  0.00  0.00    +0.000 C 
BRANCH  22  23
ATOM     23  C   UNL     1       1.223  10.149  18.790  0.00  0.00    +0.000 C 
ATOM     24  C   UNL     1       0.924   9.541  20.156  0.00  0.00    +0.000 C 
BRANCH  23  25
ATOM     25  N   UNL     1       0.018  10.163  17.982  0.00  0.00    +0.000 N 
ATOM     26  H   UNL     1      -0.009   9.693  17.077  0.00  0.00    +0.000 HD
BRANCH  25  29
ATOM     27  C   UNL     1      -2.410  12.252  19.842  0.00  0.00    +0.000 A 
ATOM     28  C   UNL     1      -1.238  11.625  19.453  0.00  0.00    +0.000 A 
ATOM     29  C   UNL     1      -1.140  10.887  18.269  0.00  0.00    +0.000 A 
ATOM     30  C   UNL     1      -2.239  10.835  17.391  0.00  0.00    +0.000 A 
ATOM     31  N   UNL     1      -2.147  10.156  16.222  0.00  0.00    +0.000 NA
ATOM     32  C   UNL     1      -3.216  10.148  15.398  0.00  0.00    +0.000 A 
ATOM     33  C   UNL     1      -4.416  10.764  15.689  0.00  0.00    +0.000 A 
ATOM     34  C   UNL     1      -4.525  11.442  16.896  0.00  0.00    +0.000 A 
ATOM     35  C   UNL     1      -3.430  11.501  17.769  0.00  0.00    +0.000 A 
ATOM     36  C   UNL     1      -3.511  12.188  18.998  0.00  0.00    +0.000 A 
BRANCH  27  38
ATOM     37  C   UNL     1      -3.817  12.725  21.689  0.00  0.00    +0.000 C 
ATOM     38  O   UNL     1      -2.563  12.917  21.031  0.00  0.00    +0.000 OA
ENDBRANCH  27  38
ENDBRANCH  25  29
ENDBRANCH  23  25
ENDBRANCH  22  23
ENDBRANCH  21  22
ENDBRANCH   1  21
TORSDOF 9
ENDMDL
MODEL 9
REMARK VINA RESULT:      -8.2      2.132      4.521
REMARK  Name = 
REMARK  11 active torsions:
REMARK  status: ('A' for Active; 'I' for Inactive)
REMARK    1  A    between atoms: C_1  and  O_2
REMARK    2  A    between atoms: O_2  and  C_3
REMARK    3  A    between atoms: C_5  and  N_6
REMARK    4  A    between atoms: N_6  and  C_7
REMARK    5  A    between atoms: C_7  and  C_8
REMARK    6  A    between atoms: C_7  and  C_9
REMARK    7  A    between atoms: C_9  and  C_10
REMARK    8  A    between atoms: C_10  and  C_11
REMARK    9  A    between atoms: C_11  and  N_12
REMARK   10  A    between atoms: C_15  and  C_16
REMARK   11  A    between atoms: C_16  and  C_17
REMARK                            x       y       z     vdW  Elec       q    Type
REMARK                         _______ _______ _______ _____ _____    ______ ____
ROOT
ATOM      1  C   UNL     1       3.057   6.934  19.067  0.00  0.00    +0.000 C 
ENDROOT
BRANCH   1   2
ATOM      2  N   UNL     1       3.577   5.779  18.329  0.00  0.00    +0.000 N 
ATOM      3  C   UNL     1       2.797   4.846  17.662  0.00  0.00    +0.000 C 
ATOM      4  O   UNL     1       1.591   4.791  17.579  0.00  0.00    +0.000 OA
ATOM      5  C   UNL     1       3.786   3.854  17.074  0.00  0.00    +0.000 C 
ATOM      6  N   UNL     1       5.015   4.670  16.911  0.00  0.00    +0.000 NA
ATOM      7  C   UNL     1       4.964   5.721  17.945  0.00  0.00    +0.000 C 
ATOM      8  C   UNL     1       5.434   7.054  17.303  0.00  0.00    +0.000 C 
ATOM      9  C   UNL     1       6.930   7.079  17.020  0.00  0.00    +0.000 C 
ATOM     10  C   UNL     1       7.728   6.709  18.269  0.00  0.00    +0.000 C 
ATOM     11  C   UNL     1       7.345   5.332  18.786  0.00  0.00    +0.000 C 
ATOM     12  C   UNL     1       5.863   5.309  19.135  0.00  0.00    +0.000 C 
ATOM     13  H   UNL     1       4.937   5.121  15.998  0.00  0.00    +0.000 HD
BRANCH   5  14
ATOM     14  C   UNL     1       3.988   2.660  18.029  0.00  0.00    +0.000 C 
BRANCH  14  15
ATOM     15  C   UNL     1       3.012   2.640  19.186  0.00  0.00    +0.000 A 
ATOM     16  C   UNL     1       1.670   2.271  19.006  0.00  0.00    +0.000 A 
ATOM     17  C   UNL     1       0.748   2.370  20.058  0.00  0.00    +0.000 A 
ATOM     18  C   UNL     1       1.173   2.781  21.314  0.00  0.00    +0.000 A 
ATOM     19  C   UNL     1       2.511   3.106  21.514  0.00  0.00    +0.000 A 
ATOM     20  C   UNL     1       3.422   3.049  20.454  0.00  0.00    +0.000 A 
ENDBRANCH  14  15
ENDBRANCH   5  14
ENDBRANCH   1   2
BRANCH   1  21
ATOM     21  C   UNL     1       1.888   7.601  18.359  0.00  0.00    +0.000 C 
BRANCH  21  22
ATOM     22  C   UNL     1       2.075   9.101  18.102  0.00  0.00    +0.000 C 
BRANCH  22  23
ATOM     23  C   UNL     1       1.385   9.963  19.159  0.00  0.00    +0.000 C 
ATOM     24  C   UNL     1       0.516   9.123  20.090  0.00  0.00    +0.000 C 
BRANCH  23  25
ATOM     25  N   UNL     1       0.574  10.977  18.511  0.00  0.00    +0.000 N 
ATOM     26  H   UNL     1       0.966  11.892  18.285  0.00  0.00    +0.000 HD
BRANCH  25  29
ATOM     27  C   UNL     1      -2.589  10.065  16.813  0.00  0.00    +0.000 A 
ATOM     28  C   UNL     1      -1.255  10.093  17.190  0.00  0.00    +0.000 A 
ATOM     29  C   UNL     1      -0.793  10.877  18.251  0.00  0.00    +0.000 A 
ATOM     30  C   UNL     1      -1.714  11.608  19.026  0.00  0.00    +0.000 A 
ATOM     31  N   UNL     1      -1.285  12.342  20.082  0.00  0.00    +0.000 NA
ATOM     32  C   UNL     1      -2.201  13.012  20.812  0.00  0.00    +0.000 A 
ATOM     33  C   UNL     1      -3.552  13.023  20.529  0.00  0.00    +0.000 A 
ATOM     34  C   UNL     1      -3.995  12.292  19.434  0.00  0.00    +0.000 A 
ATOM     35  C   UNL     1      -3.082  11.558  18.665  0.00  0.00    +0.000 A 
ATOM     36  C   UNL     1      -3.504  10.801  17.552  0.00  0.00    +0.000 A 
BRANCH  27  38
ATOM     37  C   UNL     1      -3.547  10.168  14.648  0.00  0.00    +0.000 C 
ATOM     38  O   UNL     1      -3.062   9.369  15.731  0.00  0.00    +0.000 OA
ENDBRANCH  27  38
ENDBRANCH  25  29
ENDBRANCH  23  25
ENDBRANCH  22  23
ENDBRANCH  21  22
ENDBRANCH   1  21
TORSDOF 9
ENDMDL
