MODEL 1
REMARK VINA RESULT:      -7.7      0.000      0.000
REMARK  Name = 
REMARK  7 active torsions:
REMARK  status: ('A' for Active; 'I' for Inactive)
REMARK    1  A    between atoms: C_1  and  O_2
REMARK    2  A    between atoms: O_2  and  C_3
REMARK    3  A    between atoms: C_8  and  C_9
REMARK    4  A    between atoms: C_9  and  N_10
REMARK    5  A    between atoms: N_10  and  S_11
REMARK    6  A    between atoms: S_11  and  C_14
REMARK    7  A    between atoms: N_23  and  C_24
REMARK                            x       y       z     vdW  Elec       q    Type
REMARK                         _______ _______ _______ _____ _____    ______ ____
ROOT
ATOM      1  S   UNL     1       2.580   4.380  18.148  0.00  0.00    +0.000 S 
ATOM      2  O   UNL     1       1.275   4.132  17.563  0.00  0.00    +0.000 OA
ATOM      3  O   UNL     1       3.062   3.598  19.260  0.00  0.00    +0.000 OA
ENDROOT
BRANCH   1   4
ATOM      4  C   UNL     1       2.617   6.099  18.580  0.00  0.00    +0.000 A 
ATOM      5  C   UNL     1       2.830   7.095  17.598  0.00  0.00    +0.000 A 
ATOM      6  C   UNL     1       2.493   8.437  17.863  0.00  0.00    +0.000 A 
ATOM      7  C   UNL     1       1.912   8.701  19.088  0.00  0.00    +0.000 A 
ATOM      8  C   UNL     1       1.867   7.731  20.092  0.00  0.00    +0.000 A 
ATOM      9  C   UNL     1       2.244   6.428  19.877  0.00  0.00    +0.000 A 
ATOM     10  C   UNL     1       1.179   8.301  21.286  0.00  0.00    +0.000 C 
ATOM     11  C   UNL     1       0.366   9.408  20.646  0.00  0.00    +0.000 C 
ATOM     12  O   UNL     1      -0.624   9.943  21.112  0.00  0.00    +0.000 OA
ATOM     13  N   UNL     1       1.053   9.744  19.466  0.00  0.00    +0.000 N 
ATOM     14  C   UNL     1       1.184  11.121  19.109  0.00  0.00    +0.000 C 
ENDBRANCH   1   4
BRANCH   1  15
ATOM     15  N   UNL     1       3.689   4.268  16.874  0.00  0.00    +0.000 NA
ATOM     16  H   UNL     1       3.254   3.874  16.039  0.00  0.00    +0.000 HD
BRANCH  15  17
ATOM     17  C   UNL     1       5.041   3.738  17.180  0.00  0.00    +0.000 C 
BRANCH  17  23
ATOM     18  C   UNL     1       6.472   5.816  16.632  0.00  0.00    +0.000 A 
ATOM     19  C   UNL     1       7.312   6.857  17.058  0.00  0.00    +0.000 A 
ATOM     20  C   UNL     1       7.846   6.860  18.343  0.00  0.00    +0.000 A 
ATOM     21  C   UNL     1       7.511   5.840  19.224  0.00  0.00    +0.000 A 
ATOM     22  C   UNL     1       6.594   4.854  18.840  0.00  0.00    +0.000 A 
ATOM     23  C   UNL     1       6.032   4.838  17.549  0.00  0.00    +0.000 A 
BRANCH  18  25
ATOM     24  C   UNL     1       6.931   4.933  14.483  0.00  0.00    +0.000 C 
ATOM     25  O   UNL     1       6.065   5.702  15.325  0.00  0.00    +0.000 OA
ENDBRANCH  18  25
ENDBRANCH  17  23
ENDBRANCH  15  17
ENDBRANCH   1  15
TORSDOF 5
ENDMDL
MODEL 2
REMARK VINA RESULT:      -7.7      1.364      2.183
REMARK  Name = 
REMARK  7 active torsions:
REMARK  status: ('A' for Active; 'I' for Inactive)
REMARK    1  A    between atoms: C_1  and  O_2
REMARK    2  A    between atoms: O_2  and  C_3
REMARK    3  A    between atoms: C_8  and  C_9
REMARK    4  A    between atoms: C_9  and  N_10
REMARK    5  A    between atoms: N_10  and  S_11
REMARK    6  A    between atoms: S_11  and  C_14
REMARK    7  A    between atoms: N_23  and  C_24
REMARK                            x       y       z     vdW  Elec       q    Type
REMARK                         _______ _______ _______ _____ _____    ______ ____
ROOT
ATOM      1  S   UNL     1       1.827   3.984  19.040  0.00  0.00    +0.000 S 
ATOM      2  O   UNL     1       1.309   3.744  17.706  0.00  0.00    +0.000 OA
ATOM      3  O   UNL     1       1.113   3.539  20.212  0.00  0.00    +0.000 OA
ENDROOT
BRANCH   1   4
ATOM      4  C   UNL     1       2.116   5.729  19.159  0.00  0.00    +0.000 A 
ATOM      5  C   UNL     1       2.374   6.507  18.006  0.00  0.00    +0.000 A 
ATOM      6  C   UNL     1       2.232   7.908  18.048  0.00  0.00    +0.000 A 
ATOM      7  C   UNL     1       1.790   8.451  19.238  0.00  0.00    +0.000 A 
ATOM      8  C   UNL     1       1.703   7.680  20.399  0.00  0.00    +0.000 A 
ATOM      9  C   UNL     1       1.893   6.319  20.397  0.00  0.00    +0.000 A 
ATOM     10  C   UNL     1       1.191   8.532  21.511  0.00  0.00    +0.000 C 
ATOM     11  C   UNL     1       0.477   9.618  20.732  0.00  0.00    +0.000 C 
ATOM     12  O   UNL     1      -0.397  10.355  21.153  0.00  0.00    +0.000 OA
ATOM     13  N   UNL     1       1.103   9.653  19.474  0.00  0.00    +0.000 N 
ATOM     14  C   UNL     1       1.378  10.918  18.873  0.00  0.00    +0.000 C 
ENDBRANCH   1   4
BRANCH   1  15
ATOM     15  N   UNL     1       3.385   3.322  19.060  0.00  0.00    +0.000 NA
ATOM     16  H   UNL     1       3.438   2.519  19.687  0.00  0.00    +0.000 HD
BRANCH  15  17
ATOM     17  C   UNL     1       4.532   4.260  19.154  0.00  0.00    +0.000 C 
BRANCH  17  23
ATOM     18  C   UNL     1       6.717   4.627  17.829  0.00  0.00    +0.000 A 
ATOM     19  C   UNL     1       7.422   4.585  16.615  0.00  0.00    +0.000 A 
ATOM     20  C   UNL     1       6.752   4.401  15.409  0.00  0.00    +0.000 A 
ATOM     21  C   UNL     1       5.375   4.221  15.413  0.00  0.00    +0.000 A 
ATOM     22  C   UNL     1       4.679   4.160  16.627  0.00  0.00    +0.000 A 
ATOM     23  C   UNL     1       5.338   4.331  17.860  0.00  0.00    +0.000 A 
BRANCH  18  25
ATOM     24  C   UNL     1       7.968   6.249  19.017  0.00  0.00    +0.000 C 
ATOM     25  O   UNL     1       7.329   4.968  19.010  0.00  0.00    +0.000 OA
ENDBRANCH  18  25
ENDBRANCH  17  23
ENDBRANCH  15  17
ENDBRANCH   1  15
TORSDOF 5
ENDMDL
MODEL 3
REMARK VINA RESULT:      -7.7      0.994      1.041
REMARK  Name = 
REMARK  7 active torsions:
REMARK  status: ('A' for Active; 'I' for Inactive)
REMARK    1  A    between atoms: C_1  and  O_2
REMARK    2  A    between atoms: O_2  and  C_3
REMARK    3  A    between atoms: C_8  and  C_9
REMARK    4  A    between atoms: C_9  and  N_10
REMARK    5  A    between atoms: N_10  and  S_11
REMARK    6  A    between atoms: S_11  and  C_14
REMARK    7  A    between atoms: N_23  and  C_24
REMARK                            x       y       z     vdW  Elec       q    Type
REMARK                         _______ _______ _______ _____ _____    ______ ____
ROOT
ATOM      1  S   UNL     1       1.831   4.058  18.931  0.00  0.00    +0.000 S 
ATOM      2  O   UNL     1       1.468   3.838  17.543  0.00  0.00    +0.000 OA
ATOM      3  O   UNL     1       0.982   3.610  20.007  0.00  0.00    +0.000 OA
ENDROOT
BRANCH   1   4
ATOM      4  C   UNL     1       2.123   5.799  19.102  0.00  0.00    +0.000 A 
ATOM      5  C   UNL     1       2.442   6.600  17.980  0.00  0.00    +0.000 A 
ATOM      6  C   UNL     1       2.306   8.000  18.045  0.00  0.00    +0.000 A 
ATOM      7  C   UNL     1       1.807   8.521  19.223  0.00  0.00    +0.000 A 
ATOM      8  C   UNL     1       1.658   7.725  20.361  0.00  0.00    +0.000 A 
ATOM      9  C   UNL     1       1.841   6.364  20.339  0.00  0.00    +0.000 A 
ATOM     10  C   UNL     1       1.095   8.556  21.464  0.00  0.00    +0.000 C 
ATOM     11  C   UNL     1       0.426   9.663  20.674  0.00  0.00    +0.000 C 
ATOM     12  O   UNL     1      -0.464  10.397  21.066  0.00  0.00    +0.000 OA
ATOM     13  N   UNL     1       1.116   9.721  19.450  0.00  0.00    +0.000 N 
ATOM     14  C   UNL     1       1.427  10.998  18.890  0.00  0.00    +0.000 C 
ENDBRANCH   1   4
BRANCH   1  15
ATOM     15  N   UNL     1       3.369   3.379  19.123  0.00  0.00    +0.000 NA
ATOM     16  H   UNL     1       3.849   3.772  19.934  0.00  0.00    +0.000 HD
BRANCH  15  17
ATOM     17  C   UNL     1       4.215   3.232  17.913  0.00  0.00    +0.000 C 
BRANCH  17  23
ATOM     18  C   UNL     1       5.747   4.836  16.592  0.00  0.00    +0.000 A 
ATOM     19  C   UNL     1       6.678   5.888  16.577  0.00  0.00    +0.000 A 
ATOM     20  C   UNL     1       7.282   6.320  17.755  0.00  0.00    +0.000 A 
ATOM     21  C   UNL     1       6.931   5.727  18.960  0.00  0.00    +0.000 A 
ATOM     22  C   UNL     1       5.930   4.748  18.996  0.00  0.00    +0.000 A 
ATOM     23  C   UNL     1       5.297   4.304  17.819  0.00  0.00    +0.000 A 
BRANCH  18  25
ATOM     24  C   UNL     1       6.244   4.018  14.427  0.00  0.00    +0.000 C 
ATOM     25  O   UNL     1       5.261   4.284  15.433  0.00  0.00    +0.000 OA
ENDBRANCH  18  25
ENDBRANCH  17  23
ENDBRANCH  15  17
ENDBRANCH   1  15
TORSDOF 5
ENDMDL
MODEL 4
REMARK VINA RESULT:      -7.6      1.752      6.380
REMARK  Name = 
REMARK  7 active torsions:
REMARK  status: ('A' for Active; 'I' for Inactive)
REMARK    1  A    between atoms: C_1  and  O_2
REMARK    2  A    between atoms: O_2  and  C_3
REMARK    3  A    between atoms: C_8  and  C_9
REMARK    4  A    between atoms: C_9  and  N_10
REMARK    5  A    between atoms: N_10  and  S_11
REMARK    6  A    between atoms: S_11  and  C_14
REMARK    7  A    between atoms: N_23  and  C_24
REMARK                            x       y       z     vdW  Elec       q    Type
REMARK                         _______ _______ _______ _____ _____    ______ ____
ROOT
ATOM      1  S   UNL     1       2.412   3.833  20.378  0.00  0.00    +0.000 S 
ATOM      2  O   UNL     1       2.896   2.905  21.384  0.00  0.00    +0.000 OA
ATOM      3  O   UNL     1       1.060   3.760  19.882  0.00  0.00    +0.000 OA
ENDROOT
BRANCH   1   4
ATOM      4  C   UNL     1       3.542   3.727  19.015  0.00  0.00    +0.000 A 
ATOM      5  C   UNL     1       3.077   3.516  17.696  0.00  0.00    +0.000 A 
ATOM      6  C   UNL     1       3.910   3.801  16.596  0.00  0.00    +0.000 A 
ATOM      7  C   UNL     1       5.153   4.331  16.880  0.00  0.00    +0.000 A 
ATOM      8  C   UNL     1       5.642   4.373  18.187  0.00  0.00    +0.000 A 
ATOM      9  C   UNL     1       4.869   4.045  19.275  0.00  0.00    +0.000 A 
ATOM     10  C   UNL     1       6.994   5.001  18.180  0.00  0.00    +0.000 C 
ATOM     11  C   UNL     1       6.931   5.800  16.894  0.00  0.00    +0.000 C 
ATOM     12  O   UNL     1       7.625   6.756  16.599  0.00  0.00    +0.000 OA
ATOM     13  N   UNL     1       5.982   5.143  16.090  0.00  0.00    +0.000 N 
ATOM     14  C   UNL     1       6.249   4.981  14.696  0.00  0.00    +0.000 C 
ENDBRANCH   1   4
BRANCH   1  15
ATOM     15  N   UNL     1       2.689   5.382  21.002  0.00  0.00    +0.000 NA
ATOM     16  H   UNL     1       3.185   5.338  21.893  0.00  0.00    +0.000 HD
BRANCH  15  17
ATOM     17  C   UNL     1       1.566   6.352  20.962  0.00  0.00    +0.000 C 
BRANCH  17  23
ATOM     18  C   UNL     1       1.128   8.685  19.949  0.00  0.00    +0.000 A 
ATOM     19  C   UNL     1       1.415   9.662  18.980  0.00  0.00    +0.000 A 
ATOM     20  C   UNL     1       2.198   9.355  17.871  0.00  0.00    +0.000 A 
ATOM     21  C   UNL     1       2.729   8.078  17.742  0.00  0.00    +0.000 A 
ATOM     22  C   UNL     1       2.532   7.130  18.754  0.00  0.00    +0.000 A 
ATOM     23  C   UNL     1       1.754   7.422  19.891  0.00  0.00    +0.000 A 
BRANCH  18  25
ATOM     24  C   UNL     1       0.443  10.119  21.704  0.00  0.00    +0.000 C 
ATOM     25  O   UNL     1       0.229   8.914  20.962  0.00  0.00    +0.000 OA
ENDBRANCH  18  25
ENDBRANCH  17  23
ENDBRANCH  15  17
ENDBRANCH   1  15
TORSDOF 5
ENDMDL
MODEL 5
REMARK VINA RESULT:      -7.5      2.659      4.333
REMARK  Name = 
REMARK  7 active torsions:
REMARK  status: ('A' for Active; 'I' for Inactive)
REMARK    1  A    between atoms: C_1  and  O_2
REMARK    2  A    between atoms: O_2  and  C_3
REMARK    3  A    between atoms: C_8  and  C_9
REMARK    4  A    between atoms: C_9  and  N_10
REMARK    5  A    between atoms: N_10  and  S_11
REMARK    6  A    between atoms: S_11  and  C_14
REMARK    7  A    between atoms: N_23  and  C_24
REMARK                            x       y       z     vdW  Elec       q    Type
REMARK                         _______ _______ _______ _____ _____    ______ ____
ROOT
ATOM      1  S   UNL     1       4.447   5.965  17.630  0.00  0.00    +0.000 S 
ATOM      2  O   UNL     1       5.294   5.495  18.711  0.00  0.00    +0.000 OA
ATOM      3  O   UNL     1       4.967   6.814  16.586  0.00  0.00    +0.000 OA
ENDROOT
BRANCH   1   4
ATOM      4  C   UNL     1       3.056   6.758  18.391  0.00  0.00    +0.000 A 
ATOM      5  C   UNL     1       2.673   6.447  19.717  0.00  0.00    +0.000 A 
ATOM      6  C   UNL     1       1.832   7.318  20.437  0.00  0.00    +0.000 A 
ATOM      7  C   UNL     1       1.458   8.485  19.800  0.00  0.00    +0.000 A 
ATOM      8  C   UNL     1       1.716   8.685  18.443  0.00  0.00    +0.000 A 
ATOM      9  C   UNL     1       2.485   7.821  17.702  0.00  0.00    +0.000 A 
ATOM     10  C   UNL     1       1.206  10.029  18.044  0.00  0.00    +0.000 C 
ATOM     11  C   UNL     1       1.197  10.738  19.383  0.00  0.00    +0.000 C 
ATOM     12  O   UNL     1       1.204  11.942  19.566  0.00  0.00    +0.000 OA
ATOM     13  N   UNL     1       1.077   9.721  20.347  0.00  0.00    +0.000 N 
ATOM     14  C   UNL     1       0.209   9.923  21.463  0.00  0.00    +0.000 C 
ENDBRANCH   1   4
BRANCH   1  15
ATOM     15  N   UNL     1       3.776   4.578  16.929  0.00  0.00    +0.000 NA
ATOM     16  H   UNL     1       2.819   4.746  16.618  0.00  0.00    +0.000 HD
BRANCH  15  17
ATOM     17  C   UNL     1       3.985   3.283  17.624  0.00  0.00    +0.000 C 
BRANCH  17  23
ATOM     18  C   UNL     1       3.521   2.775  20.112  0.00  0.00    +0.000 A 
ATOM     19  C   UNL     1       2.624   2.716  21.192  0.00  0.00    +0.000 A 
ATOM     20  C   UNL     1       1.253   2.831  20.985  0.00  0.00    +0.000 A 
ATOM     21  C   UNL     1       0.771   3.042  19.700  0.00  0.00    +0.000 A 
ATOM     22  C   UNL     1       1.664   3.203  18.633  0.00  0.00    +0.000 A 
ATOM     23  C   UNL     1       3.056   3.104  18.821  0.00  0.00    +0.000 A 
BRANCH  18  25
ATOM     24  C   UNL     1       5.156   1.267  20.923  0.00  0.00    +0.000 C 
ATOM     25  O   UNL     1       4.857   2.503  20.266  0.00  0.00    +0.000 OA
ENDBRANCH  18  25
ENDBRANCH  17  23
ENDBRANCH  15  17
ENDBRANCH   1  15
TORSDOF 5
ENDMDL
MODEL 6
REMARK VINA RESULT:      -7.4      1.318      2.232
REMARK  Name = 
REMARK  7 active torsions:
REMARK  status: ('A' for Active; 'I' for Inactive)
REMARK    1  A    between atoms: C_1  and  O_2
REMARK    2  A    between atoms: O_2  and  C_3
REMARK    3  A    between atoms: C_8  and  C_9
REMARK    4  A    between atoms: C_9  and  N_10
REMARK    5  A    between atoms: N_10  and  S_11
REMARK    6  A    between atoms: S_11  and  C_14
REMARK    7  A    between atoms: N_23  and  C_24
REMARK                            x       y       z     vdW  Elec       q    Type
REMARK                         _______ _______ _______ _____ _____    ______ ____
ROOT
ATOM      1  S   UNL     1       2.304   4.042  19.452  0.00  0.00    +0.000 S 
ATOM      2  O   UNL     1       0.892   3.744  19.616  0.00  0.00    +0.000 OA
ATOM      3  O   UNL     1       3.294   3.489  20.343  0.00  0.00    +0.000 OA
ENDROOT
BRANCH   1   4
ATOM      4  C   UNL     1       2.445   5.809  19.443  0.00  0.00    +0.000 A 
ATOM      5  C   UNL     1       2.851   6.504  18.279  0.00  0.00    +0.000 A 
ATOM      6  C   UNL     1       2.608   7.885  18.155  0.00  0.00    +0.000 A 
ATOM      7  C   UNL     1       1.922   8.490  19.191  0.00  0.00    +0.000 A 
ATOM      8  C   UNL     1       1.682   7.817  20.390  0.00  0.00    +0.000 A 
ATOM      9  C   UNL     1       1.963   6.483  20.558  0.00  0.00    +0.000 A 
ATOM     10  C   UNL     1       0.921   8.715  21.307  0.00  0.00    +0.000 C 
ATOM     11  C   UNL     1       0.285   9.664  20.311  0.00  0.00    +0.000 C 
ATOM     12  O   UNL     1      -0.699  10.357  20.498  0.00  0.00    +0.000 OA
ATOM     13  N   UNL     1       1.123   9.644  19.183  0.00  0.00    +0.000 N 
ATOM     14  C   UNL     1       1.413  10.872  18.514  0.00  0.00    +0.000 C 
ENDBRANCH   1   4
BRANCH   1  15
ATOM     15  N   UNL     1       2.688   3.606  17.862  0.00  0.00    +0.000 NA
ATOM     16  H   UNL     1       1.873   3.234  17.373  0.00  0.00    +0.000 HD
BRANCH  15  17
ATOM     17  C   UNL     1       3.945   2.849  17.639  0.00  0.00    +0.000 C 
BRANCH  17  23
ATOM     18  C   UNL     1       6.083   4.290  17.521  0.00  0.00    +0.000 A 
ATOM     19  C   UNL     1       7.066   4.944  16.759  0.00  0.00    +0.000 A 
ATOM     20  C   UNL     1       6.906   5.115  15.387  0.00  0.00    +0.000 A 
ATOM     21  C   UNL     1       5.778   4.598  14.762  0.00  0.00    +0.000 A 
ATOM     22  C   UNL     1       4.845   3.856  15.497  0.00  0.00    +0.000 A 
ATOM     23  C   UNL     1       4.993   3.661  16.884  0.00  0.00    +0.000 A 
BRANCH  18  25
ATOM     24  C   UNL     1       6.585   5.460  19.518  0.00  0.00    +0.000 C 
ATOM     25  O   UNL     1       6.138   4.252  18.892  0.00  0.00    +0.000 OA
ENDBRANCH  18  25
ENDBRANCH  17  23
ENDBRANCH  15  17
ENDBRANCH   1  15
TORSDOF 5
ENDMDL
MODEL 7
REMARK VINA RESULT:      -7.4      1.566      2.431
REMARK  Name = 
REMARK  7 active torsions:
REMARK  status: ('A' for Active; 'I' for Inactive)
REMARK    1  A    between atoms: C_1  and  O_2
REMARK    2  A    between atoms: O_2  and  C_3
REMARK    3  A    between atoms: C_8  and  C_9
REMARK    4  A    between atoms: C_9  and  N_10
REMARK    5  A    between atoms: N_10  and  S_11
REMARK    6  A    between atoms: S_11  and  C_14
REMARK    7  A    between atoms: N_23  and  C_24
REMARK                            x       y       z     vdW  Elec       q    Type
REMARK                         _______ _______ _______ _____ _____    ______ ____
ROOT
ATOM      1  S   UNL     1       2.364   5.522  19.440  0.00  0.00    +0.000 S 
ATOM      2  O   UNL     1       1.857   5.010  18.180  0.00  0.00    +0.000 OA
ATOM      3  O   UNL     1       1.866   5.030  20.702  0.00  0.00    +0.000 OA
ENDROOT
BRANCH   1   4
ATOM      4  C   UNL     1       2.170   7.283  19.381  0.00  0.00    +0.000 A 
ATOM      5  C   UNL     1       2.239   7.985  18.154  0.00  0.00    +0.000 A 
ATOM      6  C   UNL     1       1.725   9.292  18.054  0.00  0.00    +0.000 A 
ATOM      7  C   UNL     1       1.121   9.810  19.183  0.00  0.00    +0.000 A 
ATOM      8  C   UNL     1       1.215   9.161  20.416  0.00  0.00    +0.000 A 
ATOM      9  C   UNL     1       1.764   7.910  20.552  0.00  0.00    +0.000 A 
ATOM     10  C   UNL     1       0.464   9.948  21.437  0.00  0.00    +0.000 C 
ATOM     11  C   UNL     1      -0.496  10.719  20.553  0.00  0.00    +0.000 C 
ATOM     12  O   UNL     1      -1.546  11.230  20.897  0.00  0.00    +0.000 OA
ATOM     13  N   UNL     1       0.131  10.798  19.297  0.00  0.00    +0.000 N 
ATOM     14  C   UNL     1       0.071  12.026  18.569  0.00  0.00    +0.000 C 
ENDBRANCH   1   4
BRANCH   1  15
ATOM     15  N   UNL     1       4.042   5.306  19.387  0.00  0.00    +0.000 NA
ATOM     16  H   UNL     1       4.512   6.145  19.044  0.00  0.00    +0.000 HD
BRANCH  15  17
ATOM     17  C   UNL     1       4.557   4.032  18.828  0.00  0.00    +0.000 C 
BRANCH  17  23
ATOM     18  C   UNL     1       6.730   4.550  17.533  0.00  0.00    +0.000 A 
ATOM     19  C   UNL     1       7.428   4.633  16.317  0.00  0.00    +0.000 A 
ATOM     20  C   UNL     1       6.753   4.557  15.102  0.00  0.00    +0.000 A 
ATOM     21  C   UNL     1       5.378   4.361  15.097  0.00  0.00    +0.000 A 
ATOM     22  C   UNL     1       4.690   4.176  16.302  0.00  0.00    +0.000 A 
ATOM     23  C   UNL     1       5.355   4.236  17.543  0.00  0.00    +0.000 A 
BRANCH  18  25
ATOM     24  C   UNL     1       7.802   6.126  18.938  0.00  0.00    +0.000 C 
ATOM     25  O   UNL     1       7.346   4.784  18.738  0.00  0.00    +0.000 OA
ENDBRANCH  18  25
ENDBRANCH  17  23
ENDBRANCH  15  17
ENDBRANCH   1  15
TORSDOF 5
ENDMDL
MODEL 8
REMARK VINA RESULT:      -7.3      1.966      6.241
REMARK  Name = 
REMARK  7 active torsions:
REMARK  status: ('A' for Active; 'I' for Inactive)
REMARK    1  A    between atoms: C_1  and  O_2
REMARK    2  A    between atoms: O_2  and  C_3
REMARK    3  A    between atoms: C_8  and  C_9
REMARK    4  A    between atoms: C_9  and  N_10
REMARK    5  A    between atoms: N_10  and  S_11
REMARK    6  A    between atoms: S_11  and  C_14
REMARK    7  A    between atoms: N_23  and  C_24
REMARK                            x       y       z     vdW  Elec       q    Type
REMARK                         _______ _______ _______ _____ _____    ______ ____
ROOT
ATOM      1  S   UNL     1       2.177   4.529  20.425  0.00  0.00    +0.000 S 
ATOM      2  O   UNL     1       2.612   3.883  21.650  0.00  0.00    +0.000 OA
ATOM      3  O   UNL     1       0.831   4.368  19.932  0.00  0.00    +0.000 OA
ENDROOT
BRANCH   1   4
ATOM      4  C   UNL     1       3.325   4.040  19.166  0.00  0.00    +0.000 A 
ATOM      5  C   UNL     1       2.875   3.517  17.931  0.00  0.00    +0.000 A 
ATOM      6  C   UNL     1       3.737   3.483  16.818  0.00  0.00    +0.000 A 
ATOM      7  C   UNL     1       4.996   4.023  16.992  0.00  0.00    +0.000 A 
ATOM      8  C   UNL     1       5.463   4.379  18.259  0.00  0.00    +0.000 A 
ATOM      9  C   UNL     1       4.659   4.366  19.372  0.00  0.00    +0.000 A 
ATOM     10  C   UNL     1       6.841   4.936  18.130  0.00  0.00    +0.000 C 
ATOM     11  C   UNL     1       6.833   5.383  16.682  0.00  0.00    +0.000 C 
ATOM     12  O   UNL     1       7.571   6.207  16.173  0.00  0.00    +0.000 OA
ATOM     13  N   UNL     1       5.872   4.578  16.045  0.00  0.00    +0.000 N 
ATOM     14  C   UNL     1       6.156   4.057  14.746  0.00  0.00    +0.000 C 
ENDBRANCH   1   4
BRANCH   1  15
ATOM     15  N   UNL     1       2.494   6.179  20.632  0.00  0.00    +0.000 NA
ATOM     16  H   UNL     1       3.296   6.327  21.246  0.00  0.00    +0.000 HD
BRANCH  15  17
ATOM     17  C   UNL     1       1.341   7.077  20.888  0.00  0.00    +0.000 C 
BRANCH  17  23
ATOM     18  C   UNL     1       1.936   8.375  18.738  0.00  0.00    +0.000 A 
ATOM     19  C   UNL     1       1.858   9.546  17.965  0.00  0.00    +0.000 A 
ATOM     20  C   UNL     1       1.371  10.729  18.514  0.00  0.00    +0.000 A 
ATOM     21  C   UNL     1       0.924  10.739  19.829  0.00  0.00    +0.000 A 
ATOM     22  C   UNL     1       0.904   9.552  20.573  0.00  0.00    +0.000 A 
ATOM     23  C   UNL     1       1.381   8.341  20.034  0.00  0.00    +0.000 A 
BRANCH  18  25
ATOM     24  C   UNL     1       3.667   7.475  17.395  0.00  0.00    +0.000 C 
ATOM     25  O   UNL     1       2.561   7.244  18.274  0.00  0.00    +0.000 OA
ENDBRANCH  18  25
ENDBRANCH  17  23
ENDBRANCH  15  17
ENDBRANCH   1  15
TORSDOF 5
ENDMDL
MODEL 9
REMARK VINA RESULT:      -7.3      2.088      5.959
REMARK  Name = 
REMARK  7 active torsions:
REMARK  status: ('A' for Active; 'I' for Inactive)
REMARK    1  A    between atoms: C_1  and  O_2
REMARK    2  A    between atoms: O_2  and  C_3
REMARK    3  A    between atoms: C_8  and  C_9
REMARK    4  A    between atoms: C_9  and  N_10
REMARK    5  A    between atoms: N_10  and  S_11
REMARK    6  A    between atoms: S_11  and  C_14
REMARK    7  A    between atoms: N_23  and  C_24
REMARK                            x       y       z     vdW  Elec       q    Type
REMARK                         _______ _______ _______ _____ _____    ______ ____
ROOT
ATOM      1  S   UNL     1       2.385   3.181  19.922  0.00  0.00    +0.000 S 
ATOM      2  O   UNL     1       2.940   3.114  21.262  0.00  0.00    +0.000 OA
ATOM      3  O   UNL     1       1.490   2.162  19.431  0.00  0.00    +0.000 OA
ENDROOT
BRANCH   1   4
ATOM      4  C   UNL     1       3.763   3.332  18.816  0.00  0.00    +0.000 A 
ATOM      5  C   UNL     1       3.639   3.000  17.446  0.00  0.00    +0.000 A 
ATOM      6  C   UNL     1       4.589   3.462  16.515  0.00  0.00    +0.000 A 
ATOM      7  C   UNL     1       5.591   4.278  17.004  0.00  0.00    +0.000 A 
ATOM      8  C   UNL     1       5.779   4.451  18.377  0.00  0.00    +0.000 A 
ATOM      9  C   UNL     1       4.898   3.961  19.310  0.00  0.00    +0.000 A 
ATOM     10  C   UNL     1       6.921   5.385  18.596  0.00  0.00    +0.000 C 
ATOM     11  C   UNL     1       6.938   6.129  17.276  0.00  0.00    +0.000 C 
ATOM     12  O   UNL     1       7.437   7.220  17.066  0.00  0.00    +0.000 OA
ATOM     13  N   UNL     1       6.352   5.255  16.344  0.00  0.00    +0.000 N 
ATOM     14  C   UNL     1       6.928   5.145  15.042  0.00  0.00    +0.000 C 
ENDBRANCH   1   4
BRANCH   1  15
ATOM     15  N   UNL     1       1.621   4.687  19.810  0.00  0.00    +0.000 NA
ATOM     16  H   UNL     1       1.587   5.014  18.844  0.00  0.00    +0.000 HD
BRANCH  15  17
ATOM     17  C   UNL     1       1.992   5.725  20.804  0.00  0.00    +0.000 C 
BRANCH  17  23
ATOM     18  C   UNL     1       2.202   7.634  19.080  0.00  0.00    +0.000 A 
ATOM     19  C   UNL     1       1.830   8.914  18.634  0.00  0.00    +0.000 A 
ATOM     20  C   UNL     1       1.102   9.770  19.456  0.00  0.00    +0.000 A 
ATOM     21  C   UNL     1       0.708   9.336  20.715  0.00  0.00    +0.000 A 
ATOM     22  C   UNL     1       0.986   8.027  21.126  0.00  0.00    +0.000 A 
ATOM     23  C   UNL     1       1.711   7.140  20.307  0.00  0.00    +0.000 A 
BRANCH  18  25
ATOM     24  C   UNL     1       3.640   7.455  17.208  0.00  0.00    +0.000 C 
ATOM     25  O   UNL     1       3.055   6.836  18.358  0.00  0.00    +0.000 OA
ENDBRANCH  18  25
ENDBRANCH  17  23
ENDBRANCH  15  17
ENDBRANCH   1  15
TORSDOF 5
ENDMDL
