MODEL 1
REMARK VINA RESULT:      -7.1      0.000      0.000
REMARK  Name = 
REMARK  9 active torsions:
REMARK  status: ('A' for Active; 'I' for Inactive)
REMARK    1  A    between atoms: C_1  and  C_2
REMARK    2  A    between atoms: C_2  and  C_3
REMARK    3  A    between atoms: C_2  and  C_4
REMARK    4  A    between atoms: C_4  and  C_5
REMARK    5  A    between atoms: C_13  and  C_14
REMARK    6  A    between atoms: C_14  and  C_15
REMARK    7  A    between atoms: C_23  and  C_24
REMARK    8  A    between atoms: C_24  and  C_25
REMARK    9  A    between atoms: C_28  and  O_29
REMARK                            x       y       z     vdW  Elec       q    Type
REMARK                         _______ _______ _______ _____ _____    ______ ____
ROOT
ATOM      1  C   UNL     1       0.615  10.603  20.891  0.00  0.00    +0.000 C 
ATOM      2  C   UNL     1       0.088  11.837  20.106  0.00  0.00    +0.000 C 
ATOM      3  N   UNL     1      -1.152  12.173  20.807  0.00  0.00    +0.000 N 
ATOM      4  C   UNL     1      -1.199  11.588  22.059  0.00  0.00    +0.000 C 
ATOM      5  C   UNL     1      -1.934  11.960  23.119  0.00  0.00    +0.000 C 
ATOM      6  C   UNL     1      -2.951  13.048  23.110  0.00  0.00    +0.000 C 
ATOM      7  N   UNL     1      -3.314  13.653  24.221  0.00  0.00    +0.000 NA
ATOM      8  C   UNL     1      -4.267  14.715  23.754  0.00  0.00    +0.000 C 
ATOM      9  C   UNL     1      -4.773  14.246  22.388  0.00  0.00    +0.000 C 
ATOM     10  N   UNL     1      -3.612  13.474  21.971  0.00  0.00    +0.000 N 
ATOM     11  C   UNL     1      -2.783  14.005  20.901  0.00  0.00    +0.000 C 
ATOM     12  C   UNL     1      -2.213  12.852  20.066  0.00  0.00    +0.000 C 
ATOM     13  N   UNL     1      -0.255  10.575  22.081  0.00  0.00    +0.000 N 
ATOM     14  H   UNL     1       0.122  10.308  22.983  0.00  0.00    +0.000 HD
ENDROOT
BRANCH   1  15
ATOM     15  C   UNL     1       0.468   9.312  20.071  0.00  0.00    +0.000 C 
BRANCH  15  17
ATOM     16  C   UNL     1       2.160   7.420  19.708  0.00  0.00    +0.000 C 
ATOM     17  C   UNL     1       1.760   8.852  19.353  0.00  0.00    +0.000 C 
ATOM     18  C   UNL     1       1.595   8.996  17.840  0.00  0.00    +0.000 C 
ENDBRANCH  15  17
ENDBRANCH   1  15
BRANCH   9  19
ATOM     19  C   UNL     1      -6.005  13.315  22.464  0.00  0.00    +0.000 C 
BRANCH  19  20
ATOM     20  C   UNL     1      -6.537  12.901  21.110  0.00  0.00    +0.000 A 
ATOM     21  C   UNL     1      -6.862  11.567  20.848  0.00  0.00    +0.000 A 
ATOM     22  C   UNL     1      -7.250  11.178  19.564  0.00  0.00    +0.000 A 
ATOM     23  C   UNL     1      -7.347  12.128  18.542  0.00  0.00    +0.000 A 
ATOM     24  C   UNL     1      -7.085  13.469  18.813  0.00  0.00    +0.000 A 
ATOM     25  C   UNL     1      -6.687  13.853  20.093  0.00  0.00    +0.000 A 
ENDBRANCH  19  20
ENDBRANCH   9  19
BRANCH  12  26
ATOM     26  C   UNL     1      -3.305  11.849  19.600  0.00  0.00    +0.000 C 
BRANCH  26  27
ATOM     27  C   UNL     1      -3.191  11.387  18.155  0.00  0.00    +0.000 A 
ATOM     28  C   UNL     1      -4.136  11.739  17.176  0.00  0.00    +0.000 A 
ATOM     29  C   UNL     1      -4.089  11.170  15.902  0.00  0.00    +0.000 A 
ATOM     30  C   UNL     1      -3.057  10.302  15.576  0.00  0.00    +0.000 A 
ATOM     31  C   UNL     1      -2.059  10.012  16.496  0.00  0.00    +0.000 A 
ATOM     32  C   UNL     1      -2.123  10.556  17.781  0.00  0.00    +0.000 A 
BRANCH  30  33
ATOM     33  O   UNL     1      -2.992   9.706  14.351  0.00  0.00    +0.000 OA
ATOM     34  H   UNL     1      -3.813   9.208  14.206  0.00  0.00    +0.000 HD
ENDBRANCH  30  33
ENDBRANCH  26  27
ENDBRANCH  12  26
TORSDOF 7
ENDMDL
MODEL 2
REMARK VINA RESULT:      -6.6      0.940      1.489
REMARK  Name = 
REMARK  9 active torsions:
REMARK  status: ('A' for Active; 'I' for Inactive)
REMARK    1  A    between atoms: C_1  and  C_2
REMARK    2  A    between atoms: C_2  and  C_3
REMARK    3  A    between atoms: C_2  and  C_4
REMARK    4  A    between atoms: C_4  and  C_5
REMARK    5  A    between atoms: C_13  and  C_14
REMARK    6  A    between atoms: C_14  and  C_15
REMARK    7  A    between atoms: C_23  and  C_24
REMARK    8  A    between atoms: C_24  and  C_25
REMARK    9  A    between atoms: C_28  and  O_29
REMARK                            x       y       z     vdW  Elec       q    Type
REMARK                         _______ _______ _______ _____ _____    ______ ____
ROOT
ATOM      1  C   UNL     1      -0.095  10.813  21.724  0.00  0.00    +0.000 C 
ATOM      2  C   UNL     1      -0.398  11.984  20.748  0.00  0.00    +0.000 C 
ATOM      3  N   UNL     1      -1.681  12.497  21.232  0.00  0.00    +0.000 N 
ATOM      4  C   UNL     1      -1.943  12.069  22.520  0.00  0.00    +0.000 C 
ATOM      5  C   UNL     1      -2.769  12.620  23.423  0.00  0.00    +0.000 C 
ATOM      6  C   UNL     1      -3.669  13.777  23.158  0.00  0.00    +0.000 C 
ATOM      7  N   UNL     1      -4.113  14.535  24.138  0.00  0.00    +0.000 NA
ATOM      8  C   UNL     1      -4.894  15.607  23.435  0.00  0.00    +0.000 C 
ATOM      9  C   UNL     1      -5.263  15.023  22.069  0.00  0.00    +0.000 C 
ATOM     10  N   UNL     1      -4.136  14.118  21.901  0.00  0.00    +0.000 N 
ATOM     11  C   UNL     1      -3.130  14.451  20.905  0.00  0.00    +0.000 C 
ATOM     12  C   UNL     1      -2.569  13.166  20.283  0.00  0.00    +0.000 C 
ATOM     13  N   UNL     1      -1.109  10.994  22.779  0.00  0.00    +0.000 N 
ATOM     14  H   UNL     1      -0.878  10.805  23.748  0.00  0.00    +0.000 HD
ENDROOT
BRANCH   1  15
ATOM     15  C   UNL     1      -0.258   9.450  21.033  0.00  0.00    +0.000 C 
BRANCH  15  17
ATOM     16  C   UNL     1       1.681   8.013  20.167  0.00  0.00    +0.000 C 
ATOM     17  C   UNL     1       0.841   8.415  21.378  0.00  0.00    +0.000 C 
ATOM     18  C   UNL     1       1.740   8.961  22.489  0.00  0.00    +0.000 C 
ENDBRANCH  15  17
ENDBRANCH   1  15
BRANCH   9  19
ATOM     19  C   UNL     1      -6.576  14.207  22.073  0.00  0.00    +0.000 C 
BRANCH  19  20
ATOM     20  C   UNL     1      -6.946  13.646  20.718  0.00  0.00    +0.000 A 
ATOM     21  C   UNL     1      -7.222  12.285  20.560  0.00  0.00    +0.000 A 
ATOM     22  C   UNL     1      -7.457  11.759  19.288  0.00  0.00    +0.000 A 
ATOM     23  C   UNL     1      -7.449  12.599  18.169  0.00  0.00    +0.000 A 
ATOM     24  C   UNL     1      -7.236  13.966  18.328  0.00  0.00    +0.000 A 
ATOM     25  C   UNL     1      -6.991  14.486  19.598  0.00  0.00    +0.000 A 
ENDBRANCH  19  20
ENDBRANCH   9  19
BRANCH  12  26
ATOM     26  C   UNL     1      -3.682  12.206  19.780  0.00  0.00    +0.000 C 
BRANCH  26  27
ATOM     27  C   UNL     1      -3.419  11.553  18.432  0.00  0.00    +0.000 A 
ATOM     28  C   UNL     1      -2.304  10.730  18.200  0.00  0.00    +0.000 A 
ATOM     29  C   UNL     1      -2.006  10.277  16.913  0.00  0.00    +0.000 A 
ATOM     30  C   UNL     1      -2.861  10.582  15.864  0.00  0.00    +0.000 A 
ATOM     31  C   UNL     1      -4.020  11.314  16.085  0.00  0.00    +0.000 A 
ATOM     32  C   UNL     1      -4.300  11.795  17.366  0.00  0.00    +0.000 A 
BRANCH  30  33
ATOM     33  O   UNL     1      -2.591  10.180  14.589  0.00  0.00    +0.000 OA
ATOM     34  H   UNL     1      -1.785  10.630  14.288  0.00  0.00    +0.000 HD
ENDBRANCH  30  33
ENDBRANCH  26  27
ENDBRANCH  12  26
TORSDOF 7
ENDMDL
MODEL 3
REMARK VINA RESULT:      -6.5      6.517     11.373
REMARK  Name = 
REMARK  9 active torsions:
REMARK  status: ('A' for Active; 'I' for Inactive)
REMARK    1  A    between atoms: C_1  and  C_2
REMARK    2  A    between atoms: C_2  and  C_3
REMARK    3  A    between atoms: C_2  and  C_4
REMARK    4  A    between atoms: C_4  and  C_5
REMARK    5  A    between atoms: C_13  and  C_14
REMARK    6  A    between atoms: C_14  and  C_15
REMARK    7  A    between atoms: C_23  and  C_24
REMARK    8  A    between atoms: C_24  and  C_25
REMARK    9  A    between atoms: C_28  and  O_29
REMARK                            x       y       z     vdW  Elec       q    Type
REMARK                         _______ _______ _______ _____ _____    ______ ____
ROOT
ATOM      1  C   UNL     1       1.774   2.826  18.293  0.00  0.00    +0.000 C 
ATOM      2  C   UNL     1       1.737   4.140  17.464  0.00  0.00    +0.000 C 
ATOM      3  N   UNL     1       3.104   4.651  17.589  0.00  0.00    +0.000 N 
ATOM      4  C   UNL     1       3.975   3.666  18.013  0.00  0.00    +0.000 C 
ATOM      5  C   UNL     1       5.308   3.621  17.864  0.00  0.00    +0.000 C 
ATOM      6  C   UNL     1       6.138   4.715  17.287  0.00  0.00    +0.000 C 
ATOM      7  N   UNL     1       7.324   4.473  16.771  0.00  0.00    +0.000 NA
ATOM      8  C   UNL     1       7.761   5.806  16.239  0.00  0.00    +0.000 C 
ATOM      9  C   UNL     1       6.944   6.847  17.008  0.00  0.00    +0.000 C 
ATOM     10  N   UNL     1       5.761   6.046  17.282  0.00  0.00    +0.000 N 
ATOM     11  C   UNL     1       4.533   6.368  16.572  0.00  0.00    +0.000 C 
ATOM     12  C   UNL     1       3.324   6.092  17.475  0.00  0.00    +0.000 C 
ATOM     13  N   UNL     1       3.214   2.640  18.550  0.00  0.00    +0.000 N 
ATOM     14  H   UNL     1       3.618   1.711  18.550  0.00  0.00    +0.000 HD
ENDROOT
BRANCH   1  15
ATOM     15  C   UNL     1       0.995   2.972  19.609  0.00  0.00    +0.000 C 
BRANCH  15  17
ATOM     16  C   UNL     1       2.179   4.504  21.291  0.00  0.00    +0.000 C 
ATOM     17  C   UNL     1       1.880   3.063  20.877  0.00  0.00    +0.000 C 
ATOM     18  C   UNL     1       1.218   2.307  22.029  0.00  0.00    +0.000 C 
ENDBRANCH  15  17
ENDBRANCH   1  15
BRANCH   9  19
ATOM     19  C   UNL     1       7.587   7.283  18.344  0.00  0.00    +0.000 C 
BRANCH  19  20
ATOM     20  C   UNL     1       8.144   8.689  18.321  0.00  0.00    +0.000 A 
ATOM     21  C   UNL     1       9.109   9.090  19.248  0.00  0.00    +0.000 A 
ATOM     22  C   UNL     1       9.538  10.419  19.285  0.00  0.00    +0.000 A 
ATOM     23  C   UNL     1       9.026  11.347  18.372  0.00  0.00    +0.000 A 
ATOM     24  C   UNL     1       8.111  10.938  17.405  0.00  0.00    +0.000 A 
ATOM     25  C   UNL     1       7.677   9.614  17.377  0.00  0.00    +0.000 A 
ENDBRANCH  19  20
ENDBRANCH   9  19
BRANCH  12  26
ATOM     26  C   UNL     1       3.454   6.754  18.875  0.00  0.00    +0.000 C 
BRANCH  26  27
ATOM     27  C   UNL     1       2.361   7.750  19.229  0.00  0.00    +0.000 A 
ATOM     28  C   UNL     1       1.887   8.704  18.312  0.00  0.00    +0.000 A 
ATOM     29  C   UNL     1       0.999   9.703  18.716  0.00  0.00    +0.000 A 
ATOM     30  C   UNL     1       0.523   9.711  20.020  0.00  0.00    +0.000 A 
ATOM     31  C   UNL     1       0.904   8.724  20.919  0.00  0.00    +0.000 A 
ATOM     32  C   UNL     1       1.817   7.743  20.524  0.00  0.00    +0.000 A 
BRANCH  30  33
ATOM     33  O   UNL     1      -0.324  10.685  20.459  0.00  0.00    +0.000 OA
ATOM     34  H   UNL     1      -0.341  10.666  21.429  0.00  0.00    +0.000 HD
ENDBRANCH  30  33
ENDBRANCH  26  27
ENDBRANCH  12  26
TORSDOF 7
ENDMDL
MODEL 4
REMARK VINA RESULT:      -6.5      6.535     11.397
REMARK  Name = 
REMARK  9 active torsions:
REMARK  status: ('A' for Active; 'I' for Inactive)
REMARK    1  A    between atoms: C_1  and  C_2
REMARK    2  A    between atoms: C_2  and  C_3
REMARK    3  A    between atoms: C_2  and  C_4
REMARK    4  A    between atoms: C_4  and  C_5
REMARK    5  A    between atoms: C_13  and  C_14
REMARK    6  A    between atoms: C_14  and  C_15
REMARK    7  A    between atoms: C_23  and  C_24
REMARK    8  A    between atoms: C_24  and  C_25
REMARK    9  A    between atoms: C_28  and  O_29
REMARK                            x       y       z     vdW  Elec       q    Type
REMARK                         _______ _______ _______ _____ _____    ______ ____
ROOT
ATOM      1  C   UNL     1       1.850   2.801  18.248  0.00  0.00    +0.000 C 
ATOM      2  C   UNL     1       1.818   4.111  17.412  0.00  0.00    +0.000 C 
ATOM      3  N   UNL     1       3.183   4.624  17.545  0.00  0.00    +0.000 N 
ATOM      4  C   UNL     1       4.052   3.641  17.981  0.00  0.00    +0.000 C 
ATOM      5  C   UNL     1       5.386   3.597  17.842  0.00  0.00    +0.000 C 
ATOM      6  C   UNL     1       6.219   4.689  17.267  0.00  0.00    +0.000 C 
ATOM      7  N   UNL     1       7.410   4.446  16.761  0.00  0.00    +0.000 NA
ATOM      8  C   UNL     1       7.849   5.777  16.226  0.00  0.00    +0.000 C 
ATOM      9  C   UNL     1       7.025   6.821  16.983  0.00  0.00    +0.000 C 
ATOM     10  N   UNL     1       5.841   6.020  17.252  0.00  0.00    +0.000 N 
ATOM     11  C   UNL     1       4.618   6.338  16.532  0.00  0.00    +0.000 C 
ATOM     12  C   UNL     1       3.403   6.064  17.427  0.00  0.00    +0.000 C 
ATOM     13  N   UNL     1       3.288   2.617  18.517  0.00  0.00    +0.000 N 
ATOM     14  H   UNL     1       3.692   1.688  18.524  0.00  0.00    +0.000 HD
ENDROOT
BRANCH   1  15
ATOM     15  C   UNL     1       1.061   2.952  19.558  0.00  0.00    +0.000 C 
BRANCH  15  17
ATOM     16  C   UNL     1       2.122   4.632  21.178  0.00  0.00    +0.000 C 
ATOM     17  C   UNL     1       1.935   3.159  20.819  0.00  0.00    +0.000 C 
ATOM     18  C   UNL     1       1.333   2.398  22.000  0.00  0.00    +0.000 C 
ENDBRANCH  15  17
ENDBRANCH   1  15
BRANCH   9  19
ATOM     19  C   UNL     1       7.657   7.264  18.323  0.00  0.00    +0.000 C 
BRANCH  19  20
ATOM     20  C   UNL     1       8.106   8.708  18.335  0.00  0.00    +0.000 A 
ATOM     21  C   UNL     1       7.596   9.622  17.409  0.00  0.00    +0.000 A 
ATOM     22  C   UNL     1       8.096  10.925  17.360  0.00  0.00    +0.000 A 
ATOM     23  C   UNL     1       9.088  11.330  18.260  0.00  0.00    +0.000 A 
ATOM     24  C   UNL     1       9.556  10.442  19.225  0.00  0.00    +0.000 A 
ATOM     25  C   UNL     1       9.063   9.139  19.265  0.00  0.00    +0.000 A 
ENDBRANCH  19  20
ENDBRANCH   9  19
BRANCH  12  26
ATOM     26  C   UNL     1       3.522   6.733  18.825  0.00  0.00    +0.000 C 
BRANCH  26  27
ATOM     27  C   UNL     1       2.523   7.845  19.101  0.00  0.00    +0.000 A 
ATOM     28  C   UNL     1       1.872   7.982  20.339  0.00  0.00    +0.000 A 
ATOM     29  C   UNL     1       0.846   8.913  20.508  0.00  0.00    +0.000 A 
ATOM     30  C   UNL     1       0.514   9.765  19.464  0.00  0.00    +0.000 A 
ATOM     31  C   UNL     1       1.207   9.714  18.262  0.00  0.00    +0.000 A 
ATOM     32  C   UNL     1       2.211   8.760  18.082  0.00  0.00    +0.000 A 
BRANCH  30  33
ATOM     33  O   UNL     1      -0.498  10.670  19.582  0.00  0.00    +0.000 OA
ATOM     34  H   UNL     1      -1.340  10.189  19.629  0.00  0.00    +0.000 HD
ENDBRANCH  30  33
ENDBRANCH  26  27
ENDBRANCH  12  26
TORSDOF 7
ENDMDL
MODEL 5
REMARK VINA RESULT:      -6.5      1.140      1.731
REMARK  Name = 
REMARK  9 active torsions:
REMARK  status: ('A' for Active; 'I' for Inactive)
REMARK    1  A    between atoms: C_1  and  C_2
REMARK    2  A    between atoms: C_2  and  C_3
REMARK    3  A    between atoms: C_2  and  C_4
REMARK    4  A    between atoms: C_4  and  C_5
REMARK    5  A    between atoms: C_13  and  C_14
REMARK    6  A    between atoms: C_14  and  C_15
REMARK    7  A    between atoms: C_23  and  C_24
REMARK    8  A    between atoms: C_24  and  C_25
REMARK    9  A    between atoms: C_28  and  O_29
REMARK                            x       y       z     vdW  Elec       q    Type
REMARK                         _______ _______ _______ _____ _____    ______ ____
ROOT
ATOM      1  C   UNL     1      -0.457  10.742  22.386  0.00  0.00    +0.000 C 
ATOM      2  C   UNL     1      -0.524  11.862  21.310  0.00  0.00    +0.000 C 
ATOM      3  N   UNL     1      -1.811  12.505  21.579  0.00  0.00    +0.000 N 
ATOM      4  C   UNL     1      -2.280  12.189  22.840  0.00  0.00    +0.000 C 
ATOM      5  C   UNL     1      -3.169  12.865  23.585  0.00  0.00    +0.000 C 
ATOM      6  C   UNL     1      -3.923  14.066  23.130  0.00  0.00    +0.000 C 
ATOM      7  N   UNL     1      -4.428  14.923  23.992  0.00  0.00    +0.000 NA
ATOM      8  C   UNL     1      -5.012  16.000  23.125  0.00  0.00    +0.000 C 
ATOM      9  C   UNL     1      -5.243  15.352  21.758  0.00  0.00    +0.000 C 
ATOM     10  N   UNL     1      -4.185  14.353  21.802  0.00  0.00    +0.000 N 
ATOM     11  C   UNL     1      -3.029  14.538  20.939  0.00  0.00    +0.000 C 
ATOM     12  C   UNL     1      -2.502  13.173  20.478  0.00  0.00    +0.000 C 
ATOM     13  N   UNL     1      -1.584  11.074  23.276  0.00  0.00    +0.000 N 
ATOM     14  H   UNL     1      -1.503  10.936  24.277  0.00  0.00    +0.000 HD
ENDROOT
BRANCH   1  15
ATOM     15  C   UNL     1      -0.642   9.351  21.759  0.00  0.00    +0.000 C 
BRANCH  15  17
ATOM     16  C   UNL     1       1.093   9.022  19.899  0.00  0.00    +0.000 C 
ATOM     17  C   UNL     1       0.673   8.660  21.323  0.00  0.00    +0.000 C 
ATOM     18  C   UNL     1       1.792   9.000  22.308  0.00  0.00    +0.000 C 
ENDBRANCH  15  17
ENDBRANCH   1  15
BRANCH   9  19
ATOM     19  C   UNL     1      -6.610  14.643  21.625  0.00  0.00    +0.000 C 
BRANCH  19  20
ATOM     20  C   UNL     1      -6.824  13.985  20.280  0.00  0.00    +0.000 A 
ATOM     21  C   UNL     1      -6.663  14.710  19.096  0.00  0.00    +0.000 A 
ATOM     22  C   UNL     1      -6.968  14.123  17.866  0.00  0.00    +0.000 A 
ATOM     23  C   UNL     1      -7.404  12.795  17.811  0.00  0.00    +0.000 A 
ATOM     24  C   UNL     1      -7.506  12.048  18.982  0.00  0.00    +0.000 A 
ATOM     25  C   UNL     1      -7.212  12.640  20.210  0.00  0.00    +0.000 A 
ENDBRANCH  19  20
ENDBRANCH   9  19
BRANCH  12  26
ATOM     26  C   UNL     1      -3.616  12.269  19.881  0.00  0.00    +0.000 C 
BRANCH  26  27
ATOM     27  C   UNL     1      -3.296  11.647  18.530  0.00  0.00    +0.000 A 
ATOM     28  C   UNL     1      -4.144  11.784  17.419  0.00  0.00    +0.000 A 
ATOM     29  C   UNL     1      -3.902  11.070  16.243  0.00  0.00    +0.000 A 
ATOM     30  C   UNL     1      -2.770  10.273  16.146  0.00  0.00    +0.000 A 
ATOM     31  C   UNL     1      -1.867  10.195  17.197  0.00  0.00    +0.000 A 
ATOM     32  C   UNL     1      -2.126  10.883  18.385  0.00  0.00    +0.000 A 
BRANCH  30  33
ATOM     33  O   UNL     1      -2.513   9.541  15.025  0.00  0.00    +0.000 OA
ATOM     34  H   UNL     1      -1.604   9.724  14.737  0.00  0.00    +0.000 HD
ENDBRANCH  30  33
ENDBRANCH  26  27
ENDBRANCH  12  26
TORSDOF 7
ENDMDL
MODEL 6
REMARK VINA RESULT:      -6.4      1.215      1.720
REMARK  Name = 
REMARK  9 active torsions:
REMARK  status: ('A' for Active; 'I' for Inactive)
REMARK    1  A    between atoms: C_1  and  C_2
REMARK    2  A    between atoms: C_2  and  C_3
REMARK    3  A    between atoms: C_2  and  C_4
REMARK    4  A    between atoms: C_4  and  C_5
REMARK    5  A    between atoms: C_13  and  C_14
REMARK    6  A    between atoms: C_14  and  C_15
REMARK    7  A    between atoms: C_23  and  C_24
REMARK    8  A    between atoms: C_24  and  C_25
REMARK    9  A    between atoms: C_28  and  O_29
REMARK                            x       y       z     vdW  Elec       q    Type
REMARK                         _______ _______ _______ _____ _____    ______ ____
ROOT
ATOM      1  C   UNL     1       1.552   9.058  20.915  0.00  0.00    +0.000 C 
ATOM      2  C   UNL     1       1.143  10.128  19.864  0.00  0.00    +0.000 C 
ATOM      3  N   UNL     1      -0.038  10.750  20.465  0.00  0.00    +0.000 N 
ATOM      4  C   UNL     1      -0.119  10.479  21.818  0.00  0.00    +0.000 C 
ATOM      5  C   UNL     1      -0.785  11.164  22.761  0.00  0.00    +0.000 C 
ATOM      6  C   UNL     1      -1.680  12.325  22.497  0.00  0.00    +0.000 C 
ATOM      7  N   UNL     1      -1.950  13.206  23.437  0.00  0.00    +0.000 NA
ATOM      8  C   UNL     1      -2.795  14.229  22.735  0.00  0.00    +0.000 C 
ATOM      9  C   UNL     1      -3.380  13.516  21.513  0.00  0.00    +0.000 C 
ATOM     10  N   UNL     1      -2.317  12.547  21.290  0.00  0.00    +0.000 N 
ATOM     11  C   UNL     1      -1.461  12.722  20.128  0.00  0.00    +0.000 C 
ATOM     12  C   UNL     1      -1.037  11.352  19.584  0.00  0.00    +0.000 C 
ATOM     13  N   UNL     1       0.712   9.401  22.077  0.00  0.00    +0.000 N 
ATOM     14  H   UNL     1       1.078   9.310  23.018  0.00  0.00    +0.000 HD
ENDROOT
BRANCH   1  15
ATOM     15  C   UNL     1       1.248   7.637  20.416  0.00  0.00    +0.000 C 
BRANCH  15  17
ATOM     16  C   UNL     1       2.437   5.381  20.147  0.00  0.00    +0.000 C 
ATOM     17  C   UNL     1       2.471   6.879  19.844  0.00  0.00    +0.000 C 
ATOM     18  C   UNL     1       2.570   7.112  18.336  0.00  0.00    +0.000 C 
ENDBRANCH  15  17
ENDBRANCH   1  15
BRANCH   9  19
ATOM     19  C   UNL     1      -4.702  12.768  21.800  0.00  0.00    +0.000 C 
BRANCH  19  20
ATOM     20  C   UNL     1      -5.647  12.732  20.620  0.00  0.00    +0.000 A 
ATOM     21  C   UNL     1      -6.515  11.653  20.432  0.00  0.00    +0.000 A 
ATOM     22  C   UNL     1      -7.306  11.578  19.284  0.00  0.00    +0.000 A 
ATOM     23  C   UNL     1      -7.257  12.601  18.331  0.00  0.00    +0.000 A 
ATOM     24  C   UNL     1      -6.440  13.709  18.542  0.00  0.00    +0.000 A 
ATOM     25  C   UNL     1      -5.644  13.775  19.684  0.00  0.00    +0.000 A 
ENDBRANCH  19  20
ENDBRANCH   9  19
BRANCH  12  26
ATOM     26  C   UNL     1      -2.241  10.395  19.360  0.00  0.00    +0.000 C 
BRANCH  26  27
ATOM     27  C   UNL     1      -2.787  10.355  17.941  0.00  0.00    +0.000 A 
ATOM     28  C   UNL     1      -2.121   9.691  16.897  0.00  0.00    +0.000 A 
ATOM     29  C   UNL     1      -2.565   9.808  15.579  0.00  0.00    +0.000 A 
ATOM     30  C   UNL     1      -3.719  10.529  15.305  0.00  0.00    +0.000 A 
ATOM     31  C   UNL     1      -4.447  11.116  16.331  0.00  0.00    +0.000 A 
ATOM     32  C   UNL     1      -3.985  11.026  17.646  0.00  0.00    +0.000 A 
BRANCH  30  33
ATOM     33  O   UNL     1      -4.169  10.688  14.028  0.00  0.00    +0.000 OA
ATOM     34  H   UNL     1      -3.686  11.423  13.618  0.00  0.00    +0.000 HD
ENDBRANCH  30  33
ENDBRANCH  26  27
ENDBRANCH  12  26
TORSDOF 7
ENDMDL
MODEL 7
REMARK VINA RESULT:      -6.4      6.830     11.549
REMARK  Name = 
REMARK  9 active torsions:
REMARK  status: ('A' for Active; 'I' for Inactive)
REMARK    1  A    between atoms: C_1  and  C_2
REMARK    2  A    between atoms: C_2  and  C_3
REMARK    3  A    between atoms: C_2  and  C_4
REMARK    4  A    between atoms: C_4  and  C_5
REMARK    5  A    between atoms: C_13  and  C_14
REMARK    6  A    between atoms: C_14  and  C_15
REMARK    7  A    between atoms: C_23  and  C_24
REMARK    8  A    between atoms: C_24  and  C_25
REMARK    9  A    between atoms: C_28  and  O_29
REMARK                            x       y       z     vdW  Elec       q    Type
REMARK                         _______ _______ _______ _____ _____    ______ ____
ROOT
ATOM      1  C   UNL     1       2.437   2.239  17.858  0.00  0.00    +0.000 C 
ATOM      2  C   UNL     1       2.163   3.631  17.223  0.00  0.00    +0.000 C 
ATOM      3  N   UNL     1       3.450   4.317  17.357  0.00  0.00    +0.000 N 
ATOM      4  C   UNL     1       4.476   3.423  17.601  0.00  0.00    +0.000 C 
ATOM      5  C   UNL     1       5.790   3.595  17.389  0.00  0.00    +0.000 C 
ATOM      6  C   UNL     1       6.420   4.865  16.934  0.00  0.00    +0.000 C 
ATOM      7  N   UNL     1       7.593   4.871  16.338  0.00  0.00    +0.000 NA
ATOM      8  C   UNL     1       7.805   6.313  15.978  0.00  0.00    +0.000 C 
ATOM      9  C   UNL     1       6.901   7.112  16.920  0.00  0.00    +0.000 C 
ATOM     10  N   UNL     1       5.861   6.116  17.132  0.00  0.00    +0.000 N 
ATOM     11  C   UNL     1       4.558   6.345  16.529  0.00  0.00    +0.000 C 
ATOM     12  C   UNL     1       3.459   5.777  17.437  0.00  0.00    +0.000 C 
ATOM     13  N   UNL     1       3.902   2.235  18.022  0.00  0.00    +0.000 N 
ATOM     14  H   UNL     1       4.430   1.383  17.874  0.00  0.00    +0.000 HD
ENDROOT
BRANCH   1  15
ATOM     15  C   UNL     1       1.730   2.094  19.214  0.00  0.00    +0.000 C 
BRANCH  15  17
ATOM     16  C   UNL     1       0.780   4.084  20.523  0.00  0.00    +0.000 C 
ATOM     17  C   UNL     1       2.016   3.238  20.218  0.00  0.00    +0.000 C 
ATOM     18  C   UNL     1       2.599   2.665  21.510  0.00  0.00    +0.000 C 
ENDBRANCH  15  17
ENDBRANCH   1  15
BRANCH   9  19
ATOM     19  C   UNL     1       7.560   7.457  18.275  0.00  0.00    +0.000 C 
BRANCH  19  20
ATOM     20  C   UNL     1       8.151   8.848  18.326  0.00  0.00    +0.000 A 
ATOM     21  C   UNL     1       9.107   9.183  19.288  0.00  0.00    +0.000 A 
ATOM     22  C   UNL     1       9.567  10.498  19.394  0.00  0.00    +0.000 A 
ATOM     23  C   UNL     1       9.095  11.479  18.515  0.00  0.00    +0.000 A 
ATOM     24  C   UNL     1       8.188  11.137  17.515  0.00  0.00    +0.000 A 
ATOM     25  C   UNL     1       7.723   9.827  17.418  0.00  0.00    +0.000 A 
ENDBRANCH  19  20
ENDBRANCH   9  19
BRANCH  12  26
ATOM     26  C   UNL     1       3.585   6.260  18.908  0.00  0.00    +0.000 C 
BRANCH  26  27
ATOM     27  C   UNL     1       2.628   7.371  19.313  0.00  0.00    +0.000 A 
ATOM     28  C   UNL     1       2.044   7.433  20.589  0.00  0.00    +0.000 A 
ATOM     29  C   UNL     1       1.051   8.372  20.875  0.00  0.00    +0.000 A 
ATOM     30  C   UNL     1       0.688   9.302  19.910  0.00  0.00    +0.000 A 
ATOM     31  C   UNL     1       1.317   9.320  18.673  0.00  0.00    +0.000 A 
ATOM     32  C   UNL     1       2.288   8.361  18.376  0.00  0.00    +0.000 A 
BRANCH  30  33
ATOM     33  O   UNL     1      -0.296  10.217  20.143  0.00  0.00    +0.000 OA
ATOM     34  H   UNL     1      -1.034   9.771  20.588  0.00  0.00    +0.000 HD
ENDBRANCH  30  33
ENDBRANCH  26  27
ENDBRANCH  12  26
TORSDOF 7
ENDMDL
MODEL 8
REMARK VINA RESULT:      -6.2      2.805      5.880
REMARK  Name = 
REMARK  9 active torsions:
REMARK  status: ('A' for Active; 'I' for Inactive)
REMARK    1  A    between atoms: C_1  and  C_2
REMARK    2  A    between atoms: C_2  and  C_3
REMARK    3  A    between atoms: C_2  and  C_4
REMARK    4  A    between atoms: C_4  and  C_5
REMARK    5  A    between atoms: C_13  and  C_14
REMARK    6  A    between atoms: C_14  and  C_15
REMARK    7  A    between atoms: C_23  and  C_24
REMARK    8  A    between atoms: C_24  and  C_25
REMARK    9  A    between atoms: C_28  and  O_29
REMARK                            x       y       z     vdW  Elec       q    Type
REMARK                         _______ _______ _______ _____ _____    ______ ____
ROOT
ATOM      1  C   UNL     1      -5.654  11.907  17.388  0.00  0.00    +0.000 C 
ATOM      2  C   UNL     1      -5.591  11.359  18.841  0.00  0.00    +0.000 C 
ATOM      3  N   UNL     1      -5.705  12.568  19.658  0.00  0.00    +0.000 N 
ATOM      4  C   UNL     1      -6.203  13.629  18.924  0.00  0.00    +0.000 C 
ATOM      5  C   UNL     1      -6.810  14.736  19.378  0.00  0.00    +0.000 C 
ATOM      6  C   UNL     1      -6.972  15.090  20.815  0.00  0.00    +0.000 C 
ATOM      7  N   UNL     1      -7.916  15.916  21.213  0.00  0.00    +0.000 NA
ATOM      8  C   UNL     1      -7.779  15.921  22.708  0.00  0.00    +0.000 C 
ATOM      9  C   UNL     1      -6.349  15.460  22.995  0.00  0.00    +0.000 C 
ATOM     10  N   UNL     1      -6.143  14.626  21.821  0.00  0.00    +0.000 N 
ATOM     11  C   UNL     1      -6.090  13.184  22.003  0.00  0.00    +0.000 C 
ATOM     12  C   UNL     1      -5.112  12.569  20.994  0.00  0.00    +0.000 C 
ATOM     13  N   UNL     1      -6.060  13.311  17.583  0.00  0.00    +0.000 N 
ATOM     14  H   UNL     1      -6.692  13.756  16.928  0.00  0.00    +0.000 HD
ENDROOT
BRANCH   1  15
ATOM     15  C   UNL     1      -4.285  11.821  16.696  0.00  0.00    +0.000 C 
BRANCH  15  17
ATOM     16  C   UNL     1      -3.369  10.351  14.804  0.00  0.00    +0.000 C 
ATOM     17  C   UNL     1      -3.877  10.397  16.245  0.00  0.00    +0.000 C 
ATOM     18  C   UNL     1      -2.823   9.831  17.197  0.00  0.00    +0.000 C 
ENDBRANCH  15  17
ENDBRANCH   1  15
BRANCH   9  19
ATOM     19  C   UNL     1      -5.311  16.605  22.996  0.00  0.00    +0.000 C 
BRANCH  19  20
ATOM     20  C   UNL     1      -3.948  16.189  23.501  0.00  0.00    +0.000 A 
ATOM     21  C   UNL     1      -2.869  16.061  22.622  0.00  0.00    +0.000 A 
ATOM     22  C   UNL     1      -1.643  15.573  23.080  0.00  0.00    +0.000 A 
ATOM     23  C   UNL     1      -1.480  15.241  24.429  0.00  0.00    +0.000 A 
ATOM     24  C   UNL     1      -2.533  15.425  25.322  0.00  0.00    +0.000 A 
ATOM     25  C   UNL     1      -3.759  15.902  24.860  0.00  0.00    +0.000 A 
ENDBRANCH  19  20
ENDBRANCH   9  19
BRANCH  12  26
ATOM     26  C   UNL     1      -3.726  13.271  20.995  0.00  0.00    +0.000 C 
BRANCH  26  27
ATOM     27  C   UNL     1      -2.538  12.368  21.288  0.00  0.00    +0.000 A 
ATOM     28  C   UNL     1      -2.164  12.019  22.597  0.00  0.00    +0.000 A 
ATOM     29  C   UNL     1      -0.979  11.321  22.838  0.00  0.00    +0.000 A 
ATOM     30  C   UNL     1      -0.198  10.904  21.769  0.00  0.00    +0.000 A 
ATOM     31  C   UNL     1      -0.595  11.154  20.463  0.00  0.00    +0.000 A 
ATOM     32  C   UNL     1      -1.764  11.881  20.222  0.00  0.00    +0.000 A 
BRANCH  30  33
ATOM     33  O   UNL     1       0.978  10.243  21.966  0.00  0.00    +0.000 OA
ATOM     34  H   UNL     1       0.816   9.493  22.561  0.00  0.00    +0.000 HD
ENDBRANCH  30  33
ENDBRANCH  26  27
ENDBRANCH  12  26
TORSDOF 7
ENDMDL
MODEL 9
REMARK VINA RESULT:      -6.2      3.490      6.045
REMARK  Name = 
REMARK  9 active torsions:
REMARK  status: ('A' for Active; 'I' for Inactive)
REMARK    1  A    between atoms: C_1  and  C_2
REMARK    2  A    between atoms: C_2  and  C_3
REMARK    3  A    between atoms: C_2  and  C_4
REMARK    4  A    between atoms: C_4  and  C_5
REMARK    5  A    between atoms: C_13  and  C_14
REMARK    6  A    between atoms: C_14  and  C_15
REMARK    7  A    between atoms: C_23  and  C_24
REMARK    8  A    between atoms: C_24  and  C_25
REMARK    9  A    between atoms: C_28  and  O_29
REMARK                            x       y       z     vdW  Elec       q    Type
REMARK                         _______ _______ _______ _____ _____    ______ ____
ROOT
ATOM      1  C   UNL     1       0.146  10.758  19.462  0.00  0.00    +0.000 C 
ATOM      2  C   UNL     1      -1.106  11.670  19.332  0.00  0.00    +0.000 C 
ATOM      3  N   UNL     1      -0.688  12.905  19.998  0.00  0.00    +0.000 N 
ATOM      4  C   UNL     1       0.687  12.969  20.128  0.00  0.00    +0.000 C 
ATOM      5  C   UNL     1       1.451  14.058  20.300  0.00  0.00    +0.000 C 
ATOM      6  C   UNL     1       0.932  15.440  20.497  0.00  0.00    +0.000 C 
ATOM      7  N   UNL     1       1.675  16.493  20.230  0.00  0.00    +0.000 NA
ATOM      8  C   UNL     1       0.754  17.652  20.479  0.00  0.00    +0.000 C 
ATOM      9  C   UNL     1      -0.337  17.122  21.412  0.00  0.00    +0.000 C 
ATOM     10  N   UNL     1      -0.324  15.726  21.002  0.00  0.00    +0.000 N 
ATOM     11  C   UNL     1      -1.457  15.223  20.242  0.00  0.00    +0.000 C 
ATOM     12  C   UNL     1      -1.713  13.754  20.603  0.00  0.00    +0.000 C 
ATOM     13  N   UNL     1       1.182  11.688  19.945  0.00  0.00    +0.000 N 
ATOM     14  H   UNL     1       2.139  11.600  19.622  0.00  0.00    +0.000 HD
ENDROOT
BRANCH   1  15
ATOM     15  C   UNL     1      -0.089   9.624  20.471  0.00  0.00    +0.000 C 
BRANCH  15  17
ATOM     16  C   UNL     1      -0.714   9.936  22.939  0.00  0.00    +0.000 C 
ATOM     17  C   UNL     1       0.412   9.922  21.906  0.00  0.00    +0.000 C 
ATOM     18  C   UNL     1       1.484   8.908  22.305  0.00  0.00    +0.000 C 
ENDBRANCH  15  17
ENDBRANCH   1  15
BRANCH   9  19
ATOM     19  C   UNL     1       0.025  17.217  22.912  0.00  0.00    +0.000 C 
BRANCH  19  20
ATOM     20  C   UNL     1      -1.093  16.786  23.835  0.00  0.00    +0.000 A 
ATOM     21  C   UNL     1      -0.846  15.911  24.896  0.00  0.00    +0.000 A 
ATOM     22  C   UNL     1      -1.903  15.435  25.676  0.00  0.00    +0.000 A 
ATOM     23  C   UNL     1      -3.211  15.858  25.417  0.00  0.00    +0.000 A 
ATOM     24  C   UNL     1      -3.456  16.777  24.399  0.00  0.00    +0.000 A 
ATOM     25  C   UNL     1      -2.401  17.242  23.617  0.00  0.00    +0.000 A 
ENDBRANCH  19  20
ENDBRANCH   9  19
BRANCH  12  26
ATOM     26  C   UNL     1      -1.807  13.518  22.136  0.00  0.00    +0.000 C 
BRANCH  26  27
ATOM     27  C   UNL     1      -3.217  13.392  22.690  0.00  0.00    +0.000 A 
ATOM     28  C   UNL     1      -4.310  14.076  22.132  0.00  0.00    +0.000 A 
ATOM     29  C   UNL     1      -5.557  14.064  22.759  0.00  0.00    +0.000 A 
ATOM     30  C   UNL     1      -5.739  13.307  23.908  0.00  0.00    +0.000 A 
ATOM     31  C   UNL     1      -4.700  12.546  24.426  0.00  0.00    +0.000 A 
ATOM     32  C   UNL     1      -3.444  12.585  23.818  0.00  0.00    +0.000 A 
BRANCH  30  33
ATOM     33  O   UNL     1      -6.935  13.290  24.563  0.00  0.00    +0.000 OA
ATOM     34  H   UNL     1      -6.899  13.934  25.289  0.00  0.00    +0.000 HD
ENDBRANCH  30  33
ENDBRANCH  26  27
ENDBRANCH  12  26
TORSDOF 7
ENDMDL
