MODEL 1
REMARK VINA RESULT:      -7.5      0.000      0.000
REMARK  Name = 
REMARK  5 active torsions:
REMARK  status: ('A' for Active; 'I' for Inactive)
REMARK    1  A    between atoms: C_1  and  O_2
REMARK    2  A    between atoms: O_2  and  C_3
REMARK    3  A    between atoms: C_3  and  C_4
REMARK    4  A    between atoms: C_4  and  O_5
REMARK    5  A    between atoms: N_8  and  C_9
REMARK                            x       y       z     vdW  Elec       q    Type
REMARK                         _______ _______ _______ _____ _____    ______ ____
ROOT
ATOM      1  C   UNL     1       2.166   4.006  19.912  0.00  0.00    +0.000 C 
ATOM      2  C   UNL     1       2.425   5.488  19.554  0.00  0.00    +0.000 C 
ATOM      3  C   UNL     1       2.701   5.672  18.067  0.00  0.00    +0.000 C 
ATOM      4  N   UNL     1       3.823   4.827  17.703  0.00  0.00    +0.000 N 
ATOM      5  C   UNL     1       3.603   3.394  17.868  0.00  0.00    +0.000 C 
ATOM      6  C   UNL     1       3.303   3.113  19.346  0.00  0.00    +0.000 C 
ENDROOT
BRANCH   4   7
ATOM      7  C   UNL     1       5.050   5.303  17.290  0.00  0.00    +0.000 A 
ATOM      8  N   UNL     1       5.702   6.181  18.103  0.00  0.00    +0.000 NA
ATOM      9  C   UNL     1       6.917   6.650  17.748  0.00  0.00    +0.000 A 
ATOM     10  N   UNL     1       7.606   6.389  16.630  0.00  0.00    +0.000 NA
ATOM     11  C   UNL     1       6.933   5.555  15.830  0.00  0.00    +0.000 A 
ATOM     12  N   UNL     1       7.383   5.144  14.605  0.00  0.00    +0.000 N 
ATOM     13  C   UNL     1       6.459   4.323  14.020  0.00  0.00    +0.000 A 
ATOM     14  C   UNL     1       5.403   4.200  14.901  0.00  0.00    +0.000 A 
ATOM     15  C   UNL     1       5.689   4.978  16.068  0.00  0.00    +0.000 A 
ATOM     16  H   UNL     1       8.261   5.438  14.209  0.00  0.00    +0.000 HD
ENDBRANCH   4   7
BRANCH   1  18
ATOM     17  C   UNL     1       0.918   2.128  18.951  0.00  0.00    +0.000 C 
ATOM     18  O   UNL     1       0.941   3.495  19.337  0.00  0.00    +0.000 OA
ENDBRANCH   1  18
BRANCH   1  19
ATOM     19  C   UNL     1       2.134   3.860  21.456  0.00  0.00    +0.000 C 
BRANCH  19  20
ATOM     20  O   UNL     1       2.725   2.637  21.891  0.00  0.00    +0.000 OA
ATOM     21  H   UNL     1       2.036   1.953  21.801  0.00  0.00    +0.000 HD
ENDBRANCH  19  20
ENDBRANCH   1  19
TORSDOF 4
ENDMDL
MODEL 2
REMARK VINA RESULT:      -7.5      1.114      2.032
REMARK  Name = 
REMARK  5 active torsions:
REMARK  status: ('A' for Active; 'I' for Inactive)
REMARK    1  A    between atoms: C_1  and  O_2
REMARK    2  A    between atoms: O_2  and  C_3
REMARK    3  A    between atoms: C_3  and  C_4
REMARK    4  A    between atoms: C_4  and  O_5
REMARK    5  A    between atoms: N_8  and  C_9
REMARK                            x       y       z     vdW  Elec       q    Type
REMARK                         _______ _______ _______ _____ _____    ______ ____
ROOT
ATOM      1  C   UNL     1       2.238   3.599  19.369  0.00  0.00    +0.000 C 
ATOM      2  C   UNL     1       3.602   2.901  19.159  0.00  0.00    +0.000 C 
ATOM      3  C   UNL     1       4.762   3.768  19.638  0.00  0.00    +0.000 C 
ATOM      4  N   UNL     1       4.695   5.041  18.943  0.00  0.00    +0.000 N 
ATOM      5  C   UNL     1       3.500   5.834  19.211  0.00  0.00    +0.000 C 
ATOM      6  C   UNL     1       2.271   5.029  18.768  0.00  0.00    +0.000 C 
ENDROOT
BRANCH   4   7
ATOM      7  C   UNL     1       5.638   5.480  18.038  0.00  0.00    +0.000 A 
ATOM      8  N   UNL     1       6.540   6.412  18.457  0.00  0.00    +0.000 NA
ATOM      9  C   UNL     1       7.497   6.849  17.611  0.00  0.00    +0.000 A 
ATOM     10  N   UNL     1       7.684   6.505  16.331  0.00  0.00    +0.000 NA
ATOM     11  C   UNL     1       6.766   5.617  15.929  0.00  0.00    +0.000 A 
ATOM     12  N   UNL     1       6.695   5.117  14.658  0.00  0.00    +0.000 N 
ATOM     13  C   UNL     1       5.634   4.259  14.553  0.00  0.00    +0.000 A 
ATOM     14  C   UNL     1       5.026   4.206  15.792  0.00  0.00    +0.000 A 
ATOM     15  C   UNL     1       5.739   5.065  16.688  0.00  0.00    +0.000 A 
ATOM     16  H   UNL     1       7.331   5.378  13.921  0.00  0.00    +0.000 HD
ENDBRANCH   4   7
BRANCH   1  18
ATOM     17  C   UNL     1       1.634   2.590  21.520  0.00  0.00    +0.000 C 
ATOM     18  O   UNL     1       1.902   3.765  20.766  0.00  0.00    +0.000 OA
ENDBRANCH   1  18
BRANCH   1  19
ATOM     19  C   UNL     1       1.137   2.776  18.649  0.00  0.00    +0.000 C 
BRANCH  19  20
ATOM     20  O   UNL     1       1.689   1.787  17.782  0.00  0.00    +0.000 OA
ATOM     21  H   UNL     1       0.932   1.323  17.379  0.00  0.00    +0.000 HD
ENDBRANCH  19  20
ENDBRANCH   1  19
TORSDOF 4
ENDMDL
MODEL 3
REMARK VINA RESULT:      -7.5      1.061      1.249
REMARK  Name = 
REMARK  5 active torsions:
REMARK  status: ('A' for Active; 'I' for Inactive)
REMARK    1  A    between atoms: C_1  and  O_2
REMARK    2  A    between atoms: O_2  and  C_3
REMARK    3  A    between atoms: C_3  and  C_4
REMARK    4  A    between atoms: C_4  and  O_5
REMARK    5  A    between atoms: N_8  and  C_9
REMARK                            x       y       z     vdW  Elec       q    Type
REMARK                         _______ _______ _______ _____ _____    ______ ____
ROOT
ATOM      1  C   UNL     1       2.164   3.883  19.570  0.00  0.00    +0.000 C 
ATOM      2  C   UNL     1       2.121   4.499  18.152  0.00  0.00    +0.000 C 
ATOM      3  C   UNL     1       3.161   3.871  17.231  0.00  0.00    +0.000 C 
ATOM      4  N   UNL     1       4.467   4.026  17.847  0.00  0.00    +0.000 N 
ATOM      5  C   UNL     1       4.638   3.342  19.124  0.00  0.00    +0.000 C 
ATOM      6  C   UNL     1       3.615   3.905  20.120  0.00  0.00    +0.000 C 
ENDROOT
BRANCH   4   7
ATOM      7  C   UNL     1       5.480   4.806  17.329  0.00  0.00    +0.000 A 
ATOM      8  N   UNL     1       5.985   5.800  18.112  0.00  0.00    +0.000 NA
ATOM      9  C   UNL     1       6.996   6.569  17.654  0.00  0.00    +0.000 A 
ATOM     10  N   UNL     1       7.592   6.517  16.456  0.00  0.00    +0.000 NA
ATOM     11  C   UNL     1       7.057   5.559  15.690  0.00  0.00    +0.000 A 
ATOM     12  N   UNL     1       7.447   5.305  14.404  0.00  0.00    +0.000 N 
ATOM     13  C   UNL     1       6.693   4.291  13.879  0.00  0.00    +0.000 A 
ATOM     14  C   UNL     1       5.812   3.885  14.862  0.00  0.00    +0.000 A 
ATOM     15  C   UNL     1       6.032   4.682  16.030  0.00  0.00    +0.000 A 
ATOM     16  H   UNL     1       8.173   5.820  13.931  0.00  0.00    +0.000 HD
ENDBRANCH   4   7
BRANCH   1  18
ATOM     17  C   UNL     1       0.605   2.140  18.836  0.00  0.00    +0.000 C 
ATOM     18  O   UNL     1       1.754   2.496  19.593  0.00  0.00    +0.000 OA
ENDBRANCH   1  18
BRANCH   1  19
ATOM     19  C   UNL     1       1.258   4.724  20.509  0.00  0.00    +0.000 C 
BRANCH  19  20
ATOM     20  O   UNL     1       1.947   5.849  21.051  0.00  0.00    +0.000 OA
ATOM     21  H   UNL     1       2.809   5.887  20.596  0.00  0.00    +0.000 HD
ENDBRANCH  19  20
ENDBRANCH   1  19
TORSDOF 4
ENDMDL
MODEL 4
REMARK VINA RESULT:      -7.4      1.385      2.561
REMARK  Name = 
REMARK  5 active torsions:
REMARK  status: ('A' for Active; 'I' for Inactive)
REMARK    1  A    between atoms: C_1  and  O_2
REMARK    2  A    between atoms: O_2  and  C_3
REMARK    3  A    between atoms: C_3  and  C_4
REMARK    4  A    between atoms: C_4  and  O_5
REMARK    5  A    between atoms: N_8  and  C_9
REMARK                            x       y       z     vdW  Elec       q    Type
REMARK                         _______ _______ _______ _____ _____    ______ ____
ROOT
ATOM      1  C   UNL     1       2.298   4.244  19.586  0.00  0.00    +0.000 C 
ATOM      2  C   UNL     1       2.073   4.547  18.086  0.00  0.00    +0.000 C 
ATOM      3  C   UNL     1       2.866   3.600  17.192  0.00  0.00    +0.000 C 
ATOM      4  N   UNL     1       4.268   3.695  17.558  0.00  0.00    +0.000 N 
ATOM      5  C   UNL     1       4.587   3.279  18.919  0.00  0.00    +0.000 C 
ATOM      6  C   UNL     1       3.817   4.177  19.897  0.00  0.00    +0.000 C 
ENDROOT
BRANCH   4   7
ATOM      7  C   UNL     1       5.251   4.198  16.732  0.00  0.00    +0.000 A 
ATOM      8  N   UNL     1       5.492   3.550  15.557  0.00  0.00    +0.000 NA
ATOM      9  C   UNL     1       6.427   4.025  14.707  0.00  0.00    +0.000 A 
ATOM     10  N   UNL     1       7.226   5.086  14.872  0.00  0.00    +0.000 NA
ATOM     11  C   UNL     1       6.999   5.686  16.046  0.00  0.00    +0.000 A 
ATOM     12  N   UNL     1       7.695   6.775  16.492  0.00  0.00    +0.000 N 
ATOM     13  C   UNL     1       7.252   7.135  17.736  0.00  0.00    +0.000 A 
ATOM     14  C   UNL     1       6.242   6.258  18.080  0.00  0.00    +0.000 A 
ATOM     15  C   UNL     1       6.062   5.326  17.009  0.00  0.00    +0.000 A 
ATOM     16  H   UNL     1       8.436   7.215  15.969  0.00  0.00    +0.000 HD
ENDBRANCH   4   7
BRANCH   1  18
ATOM     17  C   UNL     1       1.751   2.663  21.376  0.00  0.00    +0.000 C 
ATOM     18  O   UNL     1       1.756   2.965  19.988  0.00  0.00    +0.000 OA
ENDBRANCH   1  18
BRANCH   1  19
ATOM     19  C   UNL     1       1.662   5.383  20.428  0.00  0.00    +0.000 C 
BRANCH  19  20
ATOM     20  O   UNL     1       2.442   6.576  20.389  0.00  0.00    +0.000 OA
ATOM     21  H   UNL     1       2.046   7.183  21.042  0.00  0.00    +0.000 HD
ENDBRANCH  19  20
ENDBRANCH   1  19
TORSDOF 4
ENDMDL
MODEL 5
REMARK VINA RESULT:      -7.1      1.277      2.303
REMARK  Name = 
REMARK  5 active torsions:
REMARK  status: ('A' for Active; 'I' for Inactive)
REMARK    1  A    between atoms: C_1  and  O_2
REMARK    2  A    between atoms: O_2  and  C_3
REMARK    3  A    between atoms: C_3  and  C_4
REMARK    4  A    between atoms: C_4  and  O_5
REMARK    5  A    between atoms: N_8  and  C_9
REMARK                            x       y       z     vdW  Elec       q    Type
REMARK                         _______ _______ _______ _____ _____    ______ ____
ROOT
ATOM      1  C   UNL     1       2.457   3.167  19.974  0.00  0.00    +0.000 C 
ATOM      2  C   UNL     1       2.295   4.441  19.113  0.00  0.00    +0.000 C 
ATOM      3  C   UNL     1       2.630   4.182  17.648  0.00  0.00    +0.000 C 
ATOM      4  N   UNL     1       3.980   3.652  17.578  0.00  0.00    +0.000 N 
ATOM      5  C   UNL     1       4.181   2.367  18.240  0.00  0.00    +0.000 C 
ATOM      6  C   UNL     1       3.851   2.530  19.730  0.00  0.00    +0.000 C 
ENDROOT
BRANCH   4   7
ATOM      7  C   UNL     1       5.042   4.310  16.993  0.00  0.00    +0.000 A 
ATOM      8  N   UNL     1       5.157   4.258  15.636  0.00  0.00    +0.000 NA
ATOM      9  C   UNL     1       6.167   4.912  15.023  0.00  0.00    +0.000 A 
ATOM     10  N   UNL     1       7.151   5.622  15.587  0.00  0.00    +0.000 NA
ATOM     11  C   UNL     1       7.039   5.630  16.920  0.00  0.00    +0.000 A 
ATOM     12  N   UNL     1       7.928   6.250  17.755  0.00  0.00    +0.000 N 
ATOM     13  C   UNL     1       7.559   6.053  19.058  0.00  0.00    +0.000 A 
ATOM     14  C   UNL     1       6.401   5.300  19.046  0.00  0.00    +0.000 A 
ATOM     15  C   UNL     1       6.050   5.023  17.687  0.00  0.00    +0.000 A 
ATOM     16  H   UNL     1       8.739   6.752  17.430  0.00  0.00    +0.000 HD
ENDBRANCH   4   7
BRANCH   1  18
ATOM     17  C   UNL     1       0.367   2.525  18.866  0.00  0.00    +0.000 C 
ATOM     18  O   UNL     1       1.492   2.141  19.645  0.00  0.00    +0.000 OA
ENDBRANCH   1  18
BRANCH   1  19
ATOM     19  C   UNL     1       2.336   3.555  21.471  0.00  0.00    +0.000 C 
BRANCH  19  20
ATOM     20  O   UNL     1       1.650   2.560  22.228  0.00  0.00    +0.000 OA
ATOM     21  H   UNL     1       2.311   2.169  22.829  0.00  0.00    +0.000 HD
ENDBRANCH  19  20
ENDBRANCH   1  19
TORSDOF 4
ENDMDL
MODEL 6
REMARK VINA RESULT:      -7.0      1.276      2.841
REMARK  Name = 
REMARK  5 active torsions:
REMARK  status: ('A' for Active; 'I' for Inactive)
REMARK    1  A    between atoms: C_1  and  O_2
REMARK    2  A    between atoms: O_2  and  C_3
REMARK    3  A    between atoms: C_3  and  C_4
REMARK    4  A    between atoms: C_4  and  O_5
REMARK    5  A    between atoms: N_8  and  C_9
REMARK                            x       y       z     vdW  Elec       q    Type
REMARK                         _______ _______ _______ _____ _____    ______ ____
ROOT
ATOM      1  C   UNL     1       1.870   3.354  19.641  0.00  0.00    +0.000 C 
ATOM      2  C   UNL     1       3.017   2.399  19.237  0.00  0.00    +0.000 C 
ATOM      3  C   UNL     1       4.386   3.041  19.435  0.00  0.00    +0.000 C 
ATOM      4  N   UNL     1       4.422   4.279  18.678  0.00  0.00    +0.000 N 
ATOM      5  C   UNL     1       3.466   5.297  19.100  0.00  0.00    +0.000 C 
ATOM      6  C   UNL     1       2.049   4.730  18.946  0.00  0.00    +0.000 C 
ENDROOT
BRANCH   4   7
ATOM      7  C   UNL     1       5.239   4.496  17.588  0.00  0.00    +0.000 A 
ATOM      8  N   UNL     1       5.147   3.633  16.538  0.00  0.00    +0.000 NA
ATOM      9  C   UNL     1       5.911   3.826  15.441  0.00  0.00    +0.000 A 
ATOM     10  N   UNL     1       6.824   4.781  15.231  0.00  0.00    +0.000 NA
ATOM     11  C   UNL     1       6.924   5.596  16.288  0.00  0.00    +0.000 A 
ATOM     12  N   UNL     1       7.804   6.640  16.364  0.00  0.00    +0.000 N 
ATOM     13  C   UNL     1       7.688   7.261  17.578  0.00  0.00    +0.000 A 
ATOM     14  C   UNL     1       6.700   6.600  18.282  0.00  0.00    +0.000 A 
ATOM     15  C   UNL     1       6.196   5.534  17.472  0.00  0.00    +0.000 A 
ATOM     16  H   UNL     1       8.449   6.880  15.627  0.00  0.00    +0.000 HD
ENDBRANCH   4   7
BRANCH   1  18
ATOM     17  C   UNL     1       1.589   2.539  21.936  0.00  0.00    +0.000 C 
ATOM     18  O   UNL     1       1.844   3.630  21.061  0.00  0.00    +0.000 OA
ENDBRANCH   1  18
BRANCH   1  19
ATOM     19  C   UNL     1       0.520   2.735  19.191  0.00  0.00    +0.000 C 
BRANCH  19  20
ATOM     20  O   UNL     1       0.702   1.685  18.244  0.00  0.00    +0.000 OA
ATOM     21  H   UNL     1       1.644   1.435  18.289  0.00  0.00    +0.000 HD
ENDBRANCH  19  20
ENDBRANCH   1  19
TORSDOF 4
ENDMDL
MODEL 7
REMARK VINA RESULT:      -7.0      3.185      5.830
REMARK  Name = 
REMARK  5 active torsions:
REMARK  status: ('A' for Active; 'I' for Inactive)
REMARK    1  A    between atoms: C_1  and  O_2
REMARK    2  A    between atoms: O_2  and  C_3
REMARK    3  A    between atoms: C_3  and  C_4
REMARK    4  A    between atoms: C_4  and  O_5
REMARK    5  A    between atoms: N_8  and  C_9
REMARK                            x       y       z     vdW  Elec       q    Type
REMARK                         _______ _______ _______ _____ _____    ______ ____
ROOT
ATOM      1  C   UNL     1       6.269   6.235  16.925  0.00  0.00    +0.000 C 
ATOM      2  C   UNL     1       4.793   6.280  16.465  0.00  0.00    +0.000 C 
ATOM      3  C   UNL     1       3.864   6.729  17.587  0.00  0.00    +0.000 C 
ATOM      4  N   UNL     1       4.049   5.836  18.716  0.00  0.00    +0.000 N 
ATOM      5  C   UNL     1       5.382   5.849  19.308  0.00  0.00    +0.000 C 
ATOM      6  C   UNL     1       6.395   5.419  18.239  0.00  0.00    +0.000 C 
ENDROOT
BRANCH   4   7
ATOM      7  C   UNL     1       3.082   4.974  19.189  0.00  0.00    +0.000 A 
ATOM      8  N   UNL     1       2.188   5.452  20.099  0.00  0.00    +0.000 NA
ATOM      9  C   UNL     1       1.209   4.648  20.566  0.00  0.00    +0.000 A 
ATOM     10  N   UNL     1       0.992   3.360  20.274  0.00  0.00    +0.000 NA
ATOM     11  C   UNL     1       1.902   2.901  19.407  0.00  0.00    +0.000 A 
ATOM     12  N   UNL     1       1.943   1.609  18.960  0.00  0.00    +0.000 N 
ATOM     13  C   UNL     1       3.003   1.442  18.111  0.00  0.00    +0.000 A 
ATOM     14  C   UNL     1       3.642   2.663  18.009  0.00  0.00    +0.000 A 
ATOM     15  C   UNL     1       2.949   3.610  18.828  0.00  0.00    +0.000 A 
ATOM     16  H   UNL     1       1.288   0.899  19.247  0.00  0.00    +0.000 HD
ENDBRANCH   4   7
BRANCH   1  18
ATOM     17  C   UNL     1       8.013   7.606  17.967  0.00  0.00    +0.000 C 
ATOM     18  O   UNL     1       6.805   7.546  17.222  0.00  0.00    +0.000 OA
ENDBRANCH   1  18
BRANCH   1  19
ATOM     19  C   UNL     1       7.118   5.548  15.823  0.00  0.00    +0.000 C 
BRANCH  19  20
ATOM     20  O   UNL     1       7.872   4.451  16.334  0.00  0.00    +0.000 OA
ATOM     21  H   UNL     1       7.233   3.734  16.501  0.00  0.00    +0.000 HD
ENDBRANCH  19  20
ENDBRANCH   1  19
TORSDOF 4
ENDMDL
MODEL 8
REMARK VINA RESULT:      -6.9      1.315      1.820
REMARK  Name = 
REMARK  5 active torsions:
REMARK  status: ('A' for Active; 'I' for Inactive)
REMARK    1  A    between atoms: C_1  and  O_2
REMARK    2  A    between atoms: O_2  and  C_3
REMARK    3  A    between atoms: C_3  and  C_4
REMARK    4  A    between atoms: C_4  and  O_5
REMARK    5  A    between atoms: N_8  and  C_9
REMARK                            x       y       z     vdW  Elec       q    Type
REMARK                         _______ _______ _______ _____ _____    ______ ____
ROOT
ATOM      1  C   UNL     1       2.767   2.795  19.087  0.00  0.00    +0.000 C 
ATOM      2  C   UNL     1       4.086   3.194  19.789  0.00  0.00    +0.000 C 
ATOM      3  C   UNL     1       4.329   4.697  19.726  0.00  0.00    +0.000 C 
ATOM      4  N   UNL     1       4.317   5.102  18.332  0.00  0.00    +0.000 N 
ATOM      5  C   UNL     1       3.052   4.899  17.635  0.00  0.00    +0.000 C 
ATOM      6  C   UNL     1       2.717   3.401  17.659  0.00  0.00    +0.000 C 
ENDROOT
BRANCH   4   7
ATOM      7  C   UNL     1       5.417   5.588  17.657  0.00  0.00    +0.000 A 
ATOM      8  N   UNL     1       6.078   6.652  18.195  0.00  0.00    +0.000 NA
ATOM      9  C   UNL     1       7.176   7.142  17.580  0.00  0.00    +0.000 A 
ATOM     10  N   UNL     1       7.728   6.732  16.432  0.00  0.00    +0.000 NA
ATOM     11  C   UNL     1       7.044   5.712  15.903  0.00  0.00    +0.000 A 
ATOM     12  N   UNL     1       7.362   5.116  14.713  0.00  0.00    +0.000 N 
ATOM     13  C   UNL     1       6.459   4.128  14.429  0.00  0.00    +0.000 A 
ATOM     14  C   UNL     1       5.554   4.089  15.472  0.00  0.00    +0.000 A 
ATOM     15  C   UNL     1       5.914   5.092  16.427  0.00  0.00    +0.000 A 
ATOM     16  H   UNL     1       8.142   5.399  14.140  0.00  0.00    +0.000 HD
ENDBRANCH   4   7
BRANCH   1  18
ATOM     17  C   UNL     1       1.408   2.905  21.124  0.00  0.00    +0.000 C 
ATOM     18  O   UNL     1       1.594   3.295  19.769  0.00  0.00    +0.000 OA
ENDBRANCH   1  18
BRANCH   1  19
ATOM     19  C   UNL     1       2.705   1.248  18.978  0.00  0.00    +0.000 C 
BRANCH  19  20
ATOM     20  O   UNL     1       3.843   0.712  18.307  0.00  0.00    +0.000 OA
ATOM     21  H   UNL     1       4.622   1.150  18.697  0.00  0.00    +0.000 HD
ENDBRANCH  19  20
ENDBRANCH   1  19
TORSDOF 4
ENDMDL
MODEL 9
REMARK VINA RESULT:      -6.9      3.095      5.996
REMARK  Name = 
REMARK  5 active torsions:
REMARK  status: ('A' for Active; 'I' for Inactive)
REMARK    1  A    between atoms: C_1  and  O_2
REMARK    2  A    between atoms: O_2  and  C_3
REMARK    3  A    between atoms: C_3  and  C_4
REMARK    4  A    between atoms: C_4  and  O_5
REMARK    5  A    between atoms: N_8  and  C_9
REMARK                            x       y       z     vdW  Elec       q    Type
REMARK                         _______ _______ _______ _____ _____    ______ ____
ROOT
ATOM      1  C   UNL     1       6.827   6.009  17.235  0.00  0.00    +0.000 C 
ATOM      2  C   UNL     1       6.713   5.511  18.695  0.00  0.00    +0.000 C 
ATOM      3  C   UNL     1       5.807   4.291  18.809  0.00  0.00    +0.000 C 
ATOM      4  N   UNL     1       4.510   4.633  18.254  0.00  0.00    +0.000 N 
ATOM      5  C   UNL     1       4.509   4.969  16.834  0.00  0.00    +0.000 C 
ATOM      6  C   UNL     1       5.414   6.190  16.620  0.00  0.00    +0.000 C 
ENDROOT
BRANCH   4   7
ATOM      7  C   UNL     1       3.348   4.712  18.992  0.00  0.00    +0.000 A 
ATOM      8  N   UNL     1       3.180   5.791  19.807  0.00  0.00    +0.000 NA
ATOM      9  C   UNL     1       2.045   5.919  20.526  0.00  0.00    +0.000 A 
ATOM     10  N   UNL     1       1.007   5.076  20.585  0.00  0.00    +0.000 NA
ATOM     11  C   UNL     1       1.208   4.007  19.806  0.00  0.00    +0.000 A 
ATOM     12  N   UNL     1       0.327   2.966  19.699  0.00  0.00    +0.000 N 
ATOM     13  C   UNL     1       0.829   2.015  18.853  0.00  0.00    +0.000 A 
ATOM     14  C   UNL     1       2.053   2.471  18.403  0.00  0.00    +0.000 A 
ATOM     15  C   UNL     1       2.311   3.747  18.999  0.00  0.00    +0.000 A 
ATOM     16  H   UNL     1      -0.546   2.922  20.200  0.00  0.00    +0.000 HD
ENDBRANCH   4   7
BRANCH   1  18
ATOM     17  C   UNL     1       7.133   5.036  15.007  0.00  0.00    +0.000 C 
ATOM     18  O   UNL     1       7.515   5.071  16.375  0.00  0.00    +0.000 OA
ENDBRANCH   1  18
BRANCH   1  19
ATOM     19  C   UNL     1       7.558   7.378  17.227  0.00  0.00    +0.000 C 
BRANCH  19  20
ATOM     20  O   UNL     1       8.262   7.616  18.444  0.00  0.00    +0.000 OA
ATOM     21  H   UNL     1       7.691   8.194  18.983  0.00  0.00    +0.000 HD
ENDBRANCH  19  20
ENDBRANCH   1  19
TORSDOF 4
ENDMDL
