MODEL 1
REMARK VINA RESULT:      -7.3      0.000      0.000
REMARK  Name = 
REMARK  6 active torsions:
REMARK  status: ('A' for Active; 'I' for Inactive)
REMARK    1  A    between atoms: C_1  and  O_2
REMARK    2  A    between atoms: O_2  and  C_3
REMARK    3  A    between atoms: C_9  and  C_10
REMARK    4  A    between atoms: N_12  and  C_13
REMARK    5  A    between atoms: C_13  and  C_14
REMARK    6  A    between atoms: C_17  and  C_18
REMARK                            x       y       z     vdW  Elec       q    Type
REMARK                         _______ _______ _______ _____ _____    ______ ____
ROOT
ATOM      1  C   UNL     1       5.988   4.610  18.684  0.00  0.00    +0.000 C 
ATOM      2  O   UNL     1       6.905   5.083  19.355  0.00  0.00    +0.000 OA
ATOM      3  N   UNL     1       6.099   4.429  17.333  0.00  0.00    +0.000 N 
ATOM      4  H   UNL     1       5.333   4.017  16.806  0.00  0.00    +0.000 HD
ENDROOT
BRANCH   1  11
ATOM      5  C   UNL     1       3.616   5.101  19.581  0.00  0.00    +0.000 A 
ATOM      6  C   UNL     1       2.458   4.618  20.212  0.00  0.00    +0.000 A 
ATOM      7  C   UNL     1       2.373   3.286  20.613  0.00  0.00    +0.000 A 
ATOM      8 CL   UNL     1       0.943   2.724  21.390  0.00  0.00    +0.000 Cl
ATOM      9  C   UNL     1       3.428   2.414  20.388  0.00  0.00    +0.000 A 
ATOM     10  C   UNL     1       4.581   2.880  19.752  0.00  0.00    +0.000 A 
ATOM     11  C   UNL     1       4.691   4.222  19.340  0.00  0.00    +0.000 A 
BRANCH   5  13
ATOM     12  C   UNL     1       2.811   6.805  18.127  0.00  0.00    +0.000 C 
ATOM     13  O   UNL     1       3.717   6.400  19.149  0.00  0.00    +0.000 OA
ENDBRANCH   5  13
ENDBRANCH   1  11
BRANCH   3  14
ATOM     14  C   UNL     1       7.294   4.776  16.595  0.00  0.00    +0.000 C 
BRANCH  14  15
ATOM     15  C   UNL     1       7.064   4.610  15.126  0.00  0.00    +0.000 A 
ATOM     16  N   UNL     1       7.703   5.342  14.203  0.00  0.00    +0.000 NA
ATOM     17  N   UNL     1       7.173   4.871  13.064  0.00  0.00    +0.000 N 
ATOM     18  C   UNL     1       6.248   3.896  13.305  0.00  0.00    +0.000 A 
ATOM     19  C   UNL     1       5.489   3.217  12.236  0.00  0.00    +0.000 C 
ATOM     20  N   UNL     1       6.160   3.704  14.605  0.00  0.00    +0.000 NA
ATOM     21  H   UNL     1       7.475   5.260  12.178  0.00  0.00    +0.000 HD
ENDBRANCH  14  15
ENDBRANCH   3  14
TORSDOF 4
ENDMDL
MODEL 2
REMARK VINA RESULT:      -7.3      2.517      3.632
REMARK  Name = 
REMARK  6 active torsions:
REMARK  status: ('A' for Active; 'I' for Inactive)
REMARK    1  A    between atoms: C_1  and  O_2
REMARK    2  A    between atoms: O_2  and  C_3
REMARK    3  A    between atoms: C_9  and  C_10
REMARK    4  A    between atoms: N_12  and  C_13
REMARK    5  A    between atoms: C_13  and  C_14
REMARK    6  A    between atoms: C_17  and  C_18
REMARK                            x       y       z     vdW  Elec       q    Type
REMARK                         _______ _______ _______ _____ _____    ______ ____
ROOT
ATOM      1  C   UNL     1       3.971   5.475  17.971  0.00  0.00    +0.000 C 
ATOM      2  O   UNL     1       3.436   4.479  17.484  0.00  0.00    +0.000 OA
ATOM      3  N   UNL     1       5.327   5.566  18.124  0.00  0.00    +0.000 N 
ATOM      4  H   UNL     1       5.744   6.408  18.512  0.00  0.00    +0.000 HD
ENDROOT
BRANCH   1  11
ATOM      5  C   UNL     1       2.429   6.686  19.654  0.00  0.00    +0.000 A 
ATOM      6  C   UNL     1       1.672   7.826  19.967  0.00  0.00    +0.000 A 
ATOM      7  C   UNL     1       1.601   8.896  19.077  0.00  0.00    +0.000 A 
ATOM      8 CL   UNL     1       0.660  10.278  19.486  0.00  0.00    +0.000 Cl
ATOM      9  C   UNL     1       2.283   8.854  17.869  0.00  0.00    +0.000 A 
ATOM     10  C   UNL     1       3.047   7.730  17.551  0.00  0.00    +0.000 A 
ATOM     11  C   UNL     1       3.133   6.635  18.433  0.00  0.00    +0.000 A 
BRANCH   5  13
ATOM     12  C   UNL     1       1.446   4.720  20.569  0.00  0.00    +0.000 C 
ATOM     13  O   UNL     1       2.542   5.629  20.523  0.00  0.00    +0.000 OA
ENDBRANCH   5  13
ENDBRANCH   1  11
BRANCH   3  14
ATOM     14  C   UNL     1       6.229   4.507  17.726  0.00  0.00    +0.000 C 
BRANCH  14  15
ATOM     15  C   UNL     1       6.569   4.633  16.274  0.00  0.00    +0.000 A 
ATOM     16  N   UNL     1       7.395   5.576  15.801  0.00  0.00    +0.000 NA
ATOM     17  N   UNL     1       7.379   5.319  14.485  0.00  0.00    +0.000 N 
ATOM     18  C   UNL     1       6.568   4.262  14.188  0.00  0.00    +0.000 A 
ATOM     19  C   UNL     1       6.344   3.773  12.813  0.00  0.00    +0.000 C 
ATOM     20  N   UNL     1       6.043   3.802  15.304  0.00  0.00    +0.000 NA
ATOM     21  H   UNL     1       7.927   5.899  13.859  0.00  0.00    +0.000 HD
ENDBRANCH  14  15
ENDBRANCH   3  14
TORSDOF 4
ENDMDL
MODEL 3
REMARK VINA RESULT:      -6.9      1.360      1.450
REMARK  Name = 
REMARK  6 active torsions:
REMARK  status: ('A' for Active; 'I' for Inactive)
REMARK    1  A    between atoms: C_1  and  O_2
REMARK    2  A    between atoms: O_2  and  C_3
REMARK    3  A    between atoms: C_9  and  C_10
REMARK    4  A    between atoms: N_12  and  C_13
REMARK    5  A    between atoms: C_13  and  C_14
REMARK    6  A    between atoms: C_17  and  C_18
REMARK                            x       y       z     vdW  Elec       q    Type
REMARK                         _______ _______ _______ _____ _____    ______ ____
ROOT
ATOM      1  C   UNL     1       5.168   5.322  18.841  0.00  0.00    +0.000 C 
ATOM      2  O   UNL     1       6.349   5.093  19.102  0.00  0.00    +0.000 OA
ATOM      3  N   UNL     1       4.802   6.191  17.850  0.00  0.00    +0.000 N 
ATOM      4  H   UNL     1       3.819   6.346  17.642  0.00  0.00    +0.000 HD
ENDROOT
BRANCH   1  11
ATOM      5  C   UNL     1       2.874   5.272  20.028  0.00  0.00    +0.000 A 
ATOM      6  C   UNL     1       1.933   4.538  20.767  0.00  0.00    +0.000 A 
ATOM      7  C   UNL     1       2.184   3.213  21.118  0.00  0.00    +0.000 A 
ATOM      8 CL   UNL     1       1.014   2.342  22.031  0.00  0.00    +0.000 Cl
ATOM      9  C   UNL     1       3.366   2.595  20.735  0.00  0.00    +0.000 A 
ATOM     10  C   UNL     1       4.306   3.310  19.990  0.00  0.00    +0.000 A 
ATOM     11  C   UNL     1       4.075   4.651  19.625  0.00  0.00    +0.000 A 
BRANCH   5  13
ATOM     12  C   UNL     1       1.835   7.358  20.511  0.00  0.00    +0.000 C 
ATOM     13  O   UNL     1       2.643   6.569  19.642  0.00  0.00    +0.000 OA
ENDBRANCH   5  13
ENDBRANCH   1  11
BRANCH   3  14
ATOM     14  C   UNL     1       5.768   6.901  17.039  0.00  0.00    +0.000 C 
BRANCH  14  15
ATOM     15  C   UNL     1       6.286   6.012  15.953  0.00  0.00    +0.000 A 
ATOM     16  N   UNL     1       7.588   5.921  15.648  0.00  0.00    +0.000 NA
ATOM     17  N   UNL     1       7.571   5.050  14.629  0.00  0.00    +0.000 N 
ATOM     18  C   UNL     1       6.301   4.641  14.338  0.00  0.00    +0.000 A 
ATOM     19  C   UNL     1       5.983   3.699  13.246  0.00  0.00    +0.000 C 
ATOM     20  N   UNL     1       5.464   5.231  15.164  0.00  0.00    +0.000 NA
ATOM     21  H   UNL     1       8.443   4.791  14.182  0.00  0.00    +0.000 HD
ENDBRANCH  14  15
ENDBRANCH   3  14
TORSDOF 4
ENDMDL
MODEL 4
REMARK VINA RESULT:      -6.8      0.716      1.089
REMARK  Name = 
REMARK  6 active torsions:
REMARK  status: ('A' for Active; 'I' for Inactive)
REMARK    1  A    between atoms: C_1  and  O_2
REMARK    2  A    between atoms: O_2  and  C_3
REMARK    3  A    between atoms: C_9  and  C_10
REMARK    4  A    between atoms: N_12  and  C_13
REMARK    5  A    between atoms: C_13  and  C_14
REMARK    6  A    between atoms: C_17  and  C_18
REMARK                            x       y       z     vdW  Elec       q    Type
REMARK                         _______ _______ _______ _____ _____    ______ ____
ROOT
ATOM      1  C   UNL     1       5.862   4.730  18.702  0.00  0.00    +0.000 C 
ATOM      2  O   UNL     1       6.930   4.854  19.301  0.00  0.00    +0.000 OA
ATOM      3  N   UNL     1       5.749   4.991  17.364  0.00  0.00    +0.000 N 
ATOM      4  H   UNL     1       4.859   4.861  16.890  0.00  0.00    +0.000 HD
ENDROOT
BRANCH   1  11
ATOM      5  C   UNL     1       3.529   5.126  19.738  0.00  0.00    +0.000 A 
ATOM      6  C   UNL     1       2.435   4.599  20.442  0.00  0.00    +0.000 A 
ATOM      7  C   UNL     1       2.433   3.270  20.857  0.00  0.00    +0.000 A 
ATOM      8 CL   UNL     1       1.079   2.654  21.724  0.00  0.00    +0.000 Cl
ATOM      9  C   UNL     1       3.510   2.442  20.575  0.00  0.00    +0.000 A 
ATOM     10  C   UNL     1       4.601   2.951  19.867  0.00  0.00    +0.000 A 
ATOM     11  C   UNL     1       4.626   4.293  19.438  0.00  0.00    +0.000 A 
BRANCH   5  13
ATOM     12  C   UNL     1       2.554   6.782  18.333  0.00  0.00    +0.000 C 
ATOM     13  O   UNL     1       3.547   6.424  19.290  0.00  0.00    +0.000 OA
ENDBRANCH   5  13
ENDBRANCH   1  11
BRANCH   3  14
ATOM     14  C   UNL     1       6.868   5.428  16.557  0.00  0.00    +0.000 C 
BRANCH  14  15
ATOM     15  C   UNL     1       6.785   4.831  15.188  0.00  0.00    +0.000 A 
ATOM     16  N   UNL     1       6.129   3.691  14.930  0.00  0.00    +0.000 NA
ATOM     17  N   UNL     1       6.342   3.544  13.614  0.00  0.00    +0.000 N 
ATOM     18  C   UNL     1       7.102   4.560  13.110  0.00  0.00    +0.000 A 
ATOM     19  C   UNL     1       7.510   4.640  11.693  0.00  0.00    +0.000 C 
ATOM     20  N   UNL     1       7.395   5.396  14.084  0.00  0.00    +0.000 NA
ATOM     21  H   UNL     1       5.955   2.738  13.137  0.00  0.00    +0.000 HD
ENDBRANCH  14  15
ENDBRANCH   3  14
TORSDOF 4
ENDMDL
MODEL 5
REMARK VINA RESULT:      -6.8      2.623      3.504
REMARK  Name = 
REMARK  6 active torsions:
REMARK  status: ('A' for Active; 'I' for Inactive)
REMARK    1  A    between atoms: C_1  and  O_2
REMARK    2  A    between atoms: O_2  and  C_3
REMARK    3  A    between atoms: C_9  and  C_10
REMARK    4  A    between atoms: N_12  and  C_13
REMARK    5  A    between atoms: C_13  and  C_14
REMARK    6  A    between atoms: C_17  and  C_18
REMARK                            x       y       z     vdW  Elec       q    Type
REMARK                         _______ _______ _______ _____ _____    ______ ____
ROOT
ATOM      1  C   UNL     1       5.052   3.956  18.151  0.00  0.00    +0.000 C 
ATOM      2  O   UNL     1       4.832   3.853  16.944  0.00  0.00    +0.000 OA
ATOM      3  N   UNL     1       6.266   4.359  18.633  0.00  0.00    +0.000 N 
ATOM      4  H   UNL     1       6.414   4.454  19.634  0.00  0.00    +0.000 HD
ENDROOT
BRANCH   1  11
ATOM      5  C   UNL     1       2.758   4.322  19.282  0.00  0.00    +0.000 A 
ATOM      6  C   UNL     1       1.836   3.917  20.261  0.00  0.00    +0.000 A 
ATOM      7  C   UNL     1       2.123   2.847  21.106  0.00  0.00    +0.000 A 
ATOM      8 CL   UNL     1       0.976   2.379  22.301  0.00  0.00    +0.000 Cl
ATOM      9  C   UNL     1       3.322   2.158  20.988  0.00  0.00    +0.000 A 
ATOM     10  C   UNL     1       4.243   2.544  20.012  0.00  0.00    +0.000 A 
ATOM     11  C   UNL     1       3.976   3.624  19.147  0.00  0.00    +0.000 A 
BRANCH   5  13
ATOM     12  C   UNL     1       2.718   6.671  18.905  0.00  0.00    +0.000 C 
ATOM     13  O   UNL     1       2.491   5.352  18.416  0.00  0.00    +0.000 OA
ENDBRANCH   5  13
ENDBRANCH   1  11
BRANCH   3  14
ATOM     14  C   UNL     1       7.377   4.693  17.768  0.00  0.00    +0.000 C 
BRANCH  14  15
ATOM     15  C   UNL     1       7.514   6.178  17.649  0.00  0.00    +0.000 A 
ATOM     16  N   UNL     1       6.977   6.879  16.640  0.00  0.00    +0.000 NA
ATOM     17  N   UNL     1       7.368   8.128  16.935  0.00  0.00    +0.000 N 
ATOM     18  C   UNL     1       8.114   8.165  18.078  0.00  0.00    +0.000 A 
ATOM     19  C   UNL     1       8.695   9.407  18.626  0.00  0.00    +0.000 C 
ATOM     20  N   UNL     1       8.220   6.943  18.557  0.00  0.00    +0.000 NA
ATOM     21  H   UNL     1       7.102   8.889  16.320  0.00  0.00    +0.000 HD
ENDBRANCH  14  15
ENDBRANCH   3  14
TORSDOF 4
ENDMDL
MODEL 6
REMARK VINA RESULT:      -6.8      1.932      2.695
REMARK  Name = 
REMARK  6 active torsions:
REMARK  status: ('A' for Active; 'I' for Inactive)
REMARK    1  A    between atoms: C_1  and  O_2
REMARK    2  A    between atoms: O_2  and  C_3
REMARK    3  A    between atoms: C_9  and  C_10
REMARK    4  A    between atoms: N_12  and  C_13
REMARK    5  A    between atoms: C_13  and  C_14
REMARK    6  A    between atoms: C_17  and  C_18
REMARK                            x       y       z     vdW  Elec       q    Type
REMARK                         _______ _______ _______ _____ _____    ______ ____
ROOT
ATOM      1  C   UNL     1       5.014   4.758  16.243  0.00  0.00    +0.000 C 
ATOM      2  O   UNL     1       4.951   5.942  15.909  0.00  0.00    +0.000 OA
ATOM      3  N   UNL     1       5.784   3.855  15.563  0.00  0.00    +0.000 N 
ATOM      4  H   UNL     1       5.833   2.888  15.873  0.00  0.00    +0.000 HD
ENDROOT
BRANCH   1  11
ATOM      5  C   UNL     1       4.766   3.933  18.678  0.00  0.00    +0.000 A 
ATOM      6  C   UNL     1       3.918   3.468  19.696  0.00  0.00    +0.000 A 
ATOM      7  C   UNL     1       2.553   3.312  19.466  0.00  0.00    +0.000 A 
ATOM      8 CL   UNL     1       1.541   2.734  20.733  0.00  0.00    +0.000 Cl
ATOM      9  C   UNL     1       2.007   3.623  18.229  0.00  0.00    +0.000 A 
ATOM     10  C   UNL     1       2.837   4.096  17.211  0.00  0.00    +0.000 A 
ATOM     11  C   UNL     1       4.221   4.260  17.419  0.00  0.00    +0.000 A 
BRANCH   5  13
ATOM     12  C   UNL     1       6.508   5.415  19.337  0.00  0.00    +0.000 C 
ATOM     13  O   UNL     1       6.109   4.124  18.884  0.00  0.00    +0.000 OA
ENDBRANCH   5  13
ENDBRANCH   1  11
BRANCH   3  14
ATOM     14  C   UNL     1       6.579   4.220  14.410  0.00  0.00    +0.000 C 
BRANCH  14  15
ATOM     15  C   UNL     1       5.990   3.632  13.167  0.00  0.00    +0.000 A 
ATOM     16  N   UNL     1       6.671   2.808  12.359  0.00  0.00    +0.000 NA
ATOM     17  N   UNL     1       5.772   2.565  11.394  0.00  0.00    +0.000 N 
ATOM     18  C   UNL     1       4.599   3.226  11.621  0.00  0.00    +0.000 A 
ATOM     19  C   UNL     1       3.441   3.158  10.707  0.00  0.00    +0.000 C 
ATOM     20  N   UNL     1       4.705   3.909  12.742  0.00  0.00    +0.000 NA
ATOM     21  H   UNL     1       6.024   1.959  10.622  0.00  0.00    +0.000 HD
ENDBRANCH  14  15
ENDBRANCH   3  14
TORSDOF 4
ENDMDL
MODEL 7
REMARK VINA RESULT:      -6.8      1.376      2.287
REMARK  Name = 
REMARK  6 active torsions:
REMARK  status: ('A' for Active; 'I' for Inactive)
REMARK    1  A    between atoms: C_1  and  O_2
REMARK    2  A    between atoms: O_2  and  C_3
REMARK    3  A    between atoms: C_9  and  C_10
REMARK    4  A    between atoms: N_12  and  C_13
REMARK    5  A    between atoms: C_13  and  C_14
REMARK    6  A    between atoms: C_17  and  C_18
REMARK                            x       y       z     vdW  Elec       q    Type
REMARK                         _______ _______ _______ _____ _____    ______ ____
ROOT
ATOM      1  C   UNL     1       5.061   4.953  17.631  0.00  0.00    +0.000 C 
ATOM      2  O   UNL     1       5.060   6.129  17.268  0.00  0.00    +0.000 OA
ATOM      3  N   UNL     1       6.144   4.139  17.442  0.00  0.00    +0.000 N 
ATOM      4  H   UNL     1       6.125   3.177  17.769  0.00  0.00    +0.000 HD
ENDROOT
BRANCH   1  11
ATOM      5  C   UNL     1       3.876   3.368  19.291  0.00  0.00    +0.000 A 
ATOM      6  C   UNL     1       2.668   2.892  19.825  0.00  0.00    +0.000 A 
ATOM      7  C   UNL     1       1.448   3.382  19.366  0.00  0.00    +0.000 A 
ATOM      8 CL   UNL     1      -0.017   2.774  20.036  0.00  0.00    +0.000 Cl
ATOM      9  C   UNL     1       1.406   4.356  18.378  0.00  0.00    +0.000 A 
ATOM     10  C   UNL     1       2.601   4.845  17.846  0.00  0.00    +0.000 A 
ATOM     11  C   UNL     1       3.847   4.364  18.293  0.00  0.00    +0.000 A 
BRANCH   5  13
ATOM     12  C   UNL     1       5.085   1.764  20.569  0.00  0.00    +0.000 C 
ATOM     13  O   UNL     1       5.094   2.926  19.744  0.00  0.00    +0.000 OA
ENDBRANCH   5  13
ENDBRANCH   1  11
BRANCH   3  14
ATOM     14  C   UNL     1       7.361   4.595  16.806  0.00  0.00    +0.000 C 
BRANCH  14  15
ATOM     15  C   UNL     1       7.203   4.590  15.318  0.00  0.00    +0.000 A 
ATOM     16  N   UNL     1       7.816   5.475  14.519  0.00  0.00    +0.000 NA
ATOM     17  N   UNL     1       7.371   5.106  13.309  0.00  0.00    +0.000 N 
ATOM     18  C   UNL     1       6.522   4.040  13.389  0.00  0.00    +0.000 A 
ATOM     19  C   UNL     1       5.865   3.438  12.211  0.00  0.00    +0.000 C 
ATOM     20  N   UNL     1       6.399   3.686  14.651  0.00  0.00    +0.000 NA
ATOM     21  H   UNL     1       7.675   5.621  12.491  0.00  0.00    +0.000 HD
ENDBRANCH  14  15
ENDBRANCH   3  14
TORSDOF 4
ENDMDL
MODEL 8
REMARK VINA RESULT:      -6.8      2.908      3.984
REMARK  Name = 
REMARK  6 active torsions:
REMARK  status: ('A' for Active; 'I' for Inactive)
REMARK    1  A    between atoms: C_1  and  O_2
REMARK    2  A    between atoms: O_2  and  C_3
REMARK    3  A    between atoms: C_9  and  C_10
REMARK    4  A    between atoms: N_12  and  C_13
REMARK    5  A    between atoms: C_13  and  C_14
REMARK    6  A    between atoms: C_17  and  C_18
REMARK                            x       y       z     vdW  Elec       q    Type
REMARK                         _______ _______ _______ _____ _____    ______ ____
ROOT
ATOM      1  C   UNL     1       5.754   4.370  17.765  0.00  0.00    +0.000 C 
ATOM      2  O   UNL     1       6.258   4.149  16.664  0.00  0.00    +0.000 OA
ATOM      3  N   UNL     1       6.444   5.004  18.761  0.00  0.00    +0.000 N 
ATOM      4  H   UNL     1       5.997   5.191  19.655  0.00  0.00    +0.000 HD
ENDROOT
BRANCH   1  11
ATOM      5  C   UNL     1       3.356   4.736  18.652  0.00  0.00    +0.000 A 
ATOM      6  C   UNL     1       2.078   4.202  18.881  0.00  0.00    +0.000 A 
ATOM      7  C   UNL     1       1.789   2.882  18.541  0.00  0.00    +0.000 A 
ATOM      8 CL   UNL     1       0.214   2.255  18.839  0.00  0.00    +0.000 Cl
ATOM      9  C   UNL     1       2.758   2.076  17.961  0.00  0.00    +0.000 A 
ATOM     10  C   UNL     1       4.031   2.598  17.719  0.00  0.00    +0.000 A 
ATOM     11  C   UNL     1       4.347   3.929  18.057  0.00  0.00    +0.000 A 
BRANCH   5  13
ATOM     12  C   UNL     1       2.562   6.914  19.194  0.00  0.00    +0.000 C 
ATOM     13  O   UNL     1       3.661   6.041  18.950  0.00  0.00    +0.000 OA
ENDBRANCH   5  13
ENDBRANCH   1  11
BRANCH   3  14
ATOM     14  C   UNL     1       7.807   5.462  18.597  0.00  0.00    +0.000 C 
BRANCH  14  15
ATOM     15  C   UNL     1       7.825   6.906  18.203  0.00  0.00    +0.000 A 
ATOM     16  N   UNL     1       7.100   7.390  17.184  0.00  0.00    +0.000 NA
ATOM     17  N   UNL     1       7.446   8.685  17.193  0.00  0.00    +0.000 N 
ATOM     18  C   UNL     1       8.348   8.959  18.181  0.00  0.00    +0.000 A 
ATOM     19  C   UNL     1       8.920  10.301  18.407  0.00  0.00    +0.000 C 
ATOM     20  N   UNL     1       8.605   7.850  18.842  0.00  0.00    +0.000 NA
ATOM     21  H   UNL     1       7.043   9.311  16.505  0.00  0.00    +0.000 HD
ENDBRANCH  14  15
ENDBRANCH   3  14
TORSDOF 4
ENDMDL
MODEL 9
REMARK VINA RESULT:      -6.7      2.544      3.395
REMARK  Name = 
REMARK  6 active torsions:
REMARK  status: ('A' for Active; 'I' for Inactive)
REMARK    1  A    between atoms: C_1  and  O_2
REMARK    2  A    between atoms: O_2  and  C_3
REMARK    3  A    between atoms: C_9  and  C_10
REMARK    4  A    between atoms: N_12  and  C_13
REMARK    5  A    between atoms: C_13  and  C_14
REMARK    6  A    between atoms: C_17  and  C_18
REMARK                            x       y       z     vdW  Elec       q    Type
REMARK                         _______ _______ _______ _____ _____    ______ ____
ROOT
ATOM      1  C   UNL     1       3.044   4.366  17.561  0.00  0.00    +0.000 C 
ATOM      2  O   UNL     1       2.239   3.662  16.952  0.00  0.00    +0.000 OA
ATOM      3  N   UNL     1       4.388   4.305  17.317  0.00  0.00    +0.000 N 
ATOM      4  H   UNL     1       5.029   4.912  17.821  0.00  0.00    +0.000 HD
ENDROOT
BRANCH   1  11
ATOM      5  C   UNL     1       2.010   4.940  19.858  0.00  0.00    +0.000 A 
ATOM      6  C   UNL     1       1.592   5.931  20.760  0.00  0.00    +0.000 A 
ATOM      7  C   UNL     1       1.706   7.280  20.434  0.00  0.00    +0.000 A 
ATOM      8 CL   UNL     1       1.179   8.472  21.559  0.00  0.00    +0.000 Cl
ATOM      9  C   UNL     1       2.245   7.667  19.215  0.00  0.00    +0.000 A 
ATOM     10  C   UNL     1       2.674   6.692  18.313  0.00  0.00    +0.000 A 
ATOM     11  C   UNL     1       2.566   5.321  18.619  0.00  0.00    +0.000 A 
BRANCH   5  13
ATOM     12  C   UNL     1       2.247   3.236  21.504  0.00  0.00    +0.000 C 
ATOM     13  O   UNL     1       1.936   3.603  20.162  0.00  0.00    +0.000 OA
ENDBRANCH   5  13
ENDBRANCH   1  11
BRANCH   3  14
ATOM     14  C   UNL     1       4.962   3.415  16.330  0.00  0.00    +0.000 C 
BRANCH  14  15
ATOM     15  C   UNL     1       6.007   4.129  15.533  0.00  0.00    +0.000 A 
ATOM     16  N   UNL     1       6.918   4.940  16.090  0.00  0.00    +0.000 NA
ATOM     17  N   UNL     1       7.607   5.357  15.017  0.00  0.00    +0.000 N 
ATOM     18  C   UNL     1       7.118   4.814  13.864  0.00  0.00    +0.000 A 
ATOM     19  C   UNL     1       7.671   5.117  12.528  0.00  0.00    +0.000 C 
ATOM     20  N   UNL     1       6.105   4.027  14.159  0.00  0.00    +0.000 NA
ATOM     21  H   UNL     1       8.376   6.005  15.143  0.00  0.00    +0.000 HD
ENDBRANCH  14  15
ENDBRANCH   3  14
TORSDOF 4
ENDMDL
