MODEL 1
REMARK VINA RESULT:      -7.6      0.000      0.000
REMARK  Name = 
REMARK  6 active torsions:
REMARK  status: ('A' for Active; 'I' for Inactive)
REMARK    1  A    between atoms: C_2  and  C_3
REMARK    2  A    between atoms: C_3  and  C_4
REMARK    3  A    between atoms: N_9  and  C_10
REMARK    4  A    between atoms: C_10  and  C_11
REMARK    5  A    between atoms: C_10  and  C_19
REMARK    6  A    between atoms: C_11  and  N_12
REMARK                            x       y       z     vdW  Elec       q    Type
REMARK                         _______ _______ _______ _____ _____    ______ ____
ROOT
ATOM      1  C   UNL     1       4.201   6.100  17.922  0.00  0.00    +0.000 C 
ENDROOT
BRANCH   1   2
ATOM      2  C   UNL     1       3.144   6.994  18.556  0.00  0.00    +0.000 A 
ATOM      3  C   UNL     1       2.596   6.666  19.804  0.00  0.00    +0.000 A 
ATOM      4  C   UNL     1       1.633   7.489  20.394  0.00  0.00    +0.000 A 
ATOM      5  C   UNL     1       1.205   8.645  19.744  0.00  0.00    +0.000 A 
ATOM      6  C   UNL     1       1.743   8.986  18.506  0.00  0.00    +0.000 A 
ATOM      7  C   UNL     1       2.707   8.168  17.916  0.00  0.00    +0.000 A 
ENDBRANCH   1   2
BRANCH   1  10
ATOM      8  O   UNL     1       5.530   3.785  18.844  0.00  0.00    +0.000 OA
ATOM      9  C   UNL     1       4.398   3.668  18.378  0.00  0.00    +0.000 C 
ATOM     10  N   UNL     1       3.705   4.725  17.844  0.00  0.00    +0.000 N 
ATOM     11  H   UNL     1       2.716   4.609  17.667  0.00  0.00    +0.000 HD
BRANCH   9  12
ATOM     12  C   UNL     1       3.667   2.331  18.433  0.00  0.00    +0.000 C 
BRANCH  12  13
ATOM     13  C   UNL     1       2.534   2.215  19.452  0.00  0.00    +0.000 C 
ATOM     14  C   UNL     1       2.893   2.757  20.832  0.00  0.00    +0.000 C 
ATOM     15  C   UNL     1       1.540   2.919  21.509  0.00  0.00    +0.000 C 
ATOM     16  C   UNL     1       0.567   3.288  20.392  0.00  0.00    +0.000 C 
ATOM     17  C   UNL     1       1.312   3.056  19.076  0.00  0.00    +0.000 C 
ENDBRANCH  12  13
ENDBRANCH   9  12
ENDBRANCH   1  10
BRANCH   1  18
ATOM     18  C   UNL     1       4.592   6.673  16.537  0.00  0.00    +0.000 C 
BRANCH  18  19
ATOM     19  N   UNL     1       5.722   5.993  15.925  0.00  0.00    +0.000 N 
ATOM     20  C   UNL     1       5.635   4.936  15.087  0.00  0.00    +0.000 C 
ATOM     21  O   UNL     1       4.620   4.363  14.728  0.00  0.00    +0.000 OA
ATOM     22  C   UNL     1       7.034   4.573  14.693  0.00  0.00    +0.000 C 
ATOM     23  O   UNL     1       7.838   5.489  15.442  0.00  0.00    +0.000 OA
ATOM     24  C   UNL     1       7.014   6.310  16.153  0.00  0.00    +0.000 C 
ATOM     25  O   UNL     1       7.418   7.186  16.903  0.00  0.00    +0.000 OA
ENDBRANCH  18  19
ENDBRANCH   1  18
TORSDOF 6
ENDMDL
MODEL 2
REMARK VINA RESULT:      -7.4      2.502      6.456
REMARK  Name = 
REMARK  6 active torsions:
REMARK  status: ('A' for Active; 'I' for Inactive)
REMARK    1  A    between atoms: C_2  and  C_3
REMARK    2  A    between atoms: C_3  and  C_4
REMARK    3  A    between atoms: N_9  and  C_10
REMARK    4  A    between atoms: C_10  and  C_11
REMARK    5  A    between atoms: C_10  and  C_19
REMARK    6  A    between atoms: C_11  and  N_12
REMARK                            x       y       z     vdW  Elec       q    Type
REMARK                         _______ _______ _______ _____ _____    ______ ____
ROOT
ATOM      1  C   UNL     1       3.633   5.489  18.268  0.00  0.00    +0.000 C 
ENDROOT
BRANCH   1   2
ATOM      2  C   UNL     1       4.855   5.218  17.402  0.00  0.00    +0.000 A 
ATOM      3  C   UNL     1       4.860   4.143  16.501  0.00  0.00    +0.000 A 
ATOM      4  C   UNL     1       5.976   3.896  15.697  0.00  0.00    +0.000 A 
ATOM      5  C   UNL     1       7.098   4.717  15.784  0.00  0.00    +0.000 A 
ATOM      6  C   UNL     1       7.107   5.791  16.670  0.00  0.00    +0.000 A 
ATOM      7  C   UNL     1       5.993   6.042  17.473  0.00  0.00    +0.000 A 
ENDBRANCH   1   2
BRANCH   1  10
ATOM      8  O   UNL     1       2.332   7.483  19.787  0.00  0.00    +0.000 OA
ATOM      9  C   UNL     1       2.351   7.595  18.563  0.00  0.00    +0.000 C 
ATOM     10  N   UNL     1       2.900   6.641  17.742  0.00  0.00    +0.000 N 
ATOM     11  H   UNL     1       3.066   6.881  16.774  0.00  0.00    +0.000 HD
BRANCH   9  12
ATOM     12  C   UNL     1       1.819   8.853  17.886  0.00  0.00    +0.000 C 
BRANCH  12  13
ATOM     13  C   UNL     1       0.812   9.681  18.682  0.00  0.00    +0.000 C 
ATOM     14  C   UNL     1       1.250  11.125  18.911  0.00  0.00    +0.000 C 
ATOM     15  C   UNL     1      -0.039  11.822  19.324  0.00  0.00    +0.000 C 
ATOM     16  C   UNL     1      -1.151  11.110  18.558  0.00  0.00    +0.000 C 
ATOM     17  C   UNL     1      -0.521   9.856  17.949  0.00  0.00    +0.000 C 
ENDBRANCH  12  13
ENDBRANCH   9  12
ENDBRANCH   1  10
BRANCH   1  18
ATOM     18  C   UNL     1       2.763   4.210  18.340  0.00  0.00    +0.000 C 
BRANCH  18  19
ATOM     19  N   UNL     1       2.685   3.634  19.673  0.00  0.00    +0.000 N 
ATOM     20  C   UNL     1       1.669   3.822  20.545  0.00  0.00    +0.000 C 
ATOM     21  O   UNL     1       0.678   4.512  20.382  0.00  0.00    +0.000 OA
ATOM     22  C   UNL     1       1.999   3.037  21.778  0.00  0.00    +0.000 C 
ATOM     23  O   UNL     1       3.286   2.485  21.486  0.00  0.00    +0.000 OA
ATOM     24  C   UNL     1       3.647   2.866  20.227  0.00  0.00    +0.000 C 
ATOM     25  O   UNL     1       4.710   2.560  19.709  0.00  0.00    +0.000 OA
ENDBRANCH  18  19
ENDBRANCH   1  18
TORSDOF 6
ENDMDL
MODEL 3
REMARK VINA RESULT:      -7.4      1.939      5.226
REMARK  Name = 
REMARK  6 active torsions:
REMARK  status: ('A' for Active; 'I' for Inactive)
REMARK    1  A    between atoms: C_2  and  C_3
REMARK    2  A    between atoms: C_3  and  C_4
REMARK    3  A    between atoms: N_9  and  C_10
REMARK    4  A    between atoms: C_10  and  C_11
REMARK    5  A    between atoms: C_10  and  C_19
REMARK    6  A    between atoms: C_11  and  N_12
REMARK                            x       y       z     vdW  Elec       q    Type
REMARK                         _______ _______ _______ _____ _____    ______ ____
ROOT
ATOM      1  C   UNL     1       2.936   6.051  18.469  0.00  0.00    +0.000 C 
ENDROOT
BRANCH   1   2
ATOM      2  C   UNL     1       2.274   7.379  18.805  0.00  0.00    +0.000 A 
ATOM      3  C   UNL     1       2.098   8.354  17.812  0.00  0.00    +0.000 A 
ATOM      4  C   UNL     1       1.481   9.571  18.114  0.00  0.00    +0.000 A 
ATOM      5  C   UNL     1       1.034   9.828  19.409  0.00  0.00    +0.000 A 
ATOM      6  C   UNL     1       1.196   8.869  20.404  0.00  0.00    +0.000 A 
ATOM      7  C   UNL     1       1.810   7.651  20.105  0.00  0.00    +0.000 A 
ENDBRANCH   1   2
BRANCH   1  10
ATOM      8  O   UNL     1       4.127   4.418  16.496  0.00  0.00    +0.000 OA
ATOM      9  C   UNL     1       4.684   5.470  16.804  0.00  0.00    +0.000 C 
ATOM     10  N   UNL     1       4.215   6.291  17.799  0.00  0.00    +0.000 N 
ATOM     11  H   UNL     1       4.594   7.227  17.866  0.00  0.00    +0.000 HD
BRANCH   9  12
ATOM     12  C   UNL     1       5.908   5.960  16.036  0.00  0.00    +0.000 C 
BRANCH  12  13
ATOM     13  C   UNL     1       7.161   6.244  16.861  0.00  0.00    +0.000 C 
ATOM     14  C   UNL     1       7.216   7.660  17.427  0.00  0.00    +0.000 C 
ATOM     15  C   UNL     1       8.283   7.566  18.508  0.00  0.00    +0.000 C 
ATOM     16  C   UNL     1       8.169   6.151  19.071  0.00  0.00    +0.000 C 
ATOM     17  C   UNL     1       7.246   5.383  18.124  0.00  0.00    +0.000 C 
ENDBRANCH  12  13
ENDBRANCH   9  12
ENDBRANCH   1  10
BRANCH   1  18
ATOM     18  C   UNL     1       3.089   5.213  19.763  0.00  0.00    +0.000 C 
BRANCH  18  19
ATOM     19  N   UNL     1       3.047   3.778  19.535  0.00  0.00    +0.000 N 
ATOM     20  C   UNL     1       4.125   2.964  19.491  0.00  0.00    +0.000 C 
ATOM     21  O   UNL     1       5.296   3.286  19.604  0.00  0.00    +0.000 OA
ATOM     22  C   UNL     1       3.616   1.576  19.248  0.00  0.00    +0.000 C 
ATOM     23  O   UNL     1       2.204   1.758  19.114  0.00  0.00    +0.000 OA
ATOM     24  C   UNL     1       1.917   3.079  19.294  0.00  0.00    +0.000 C 
ATOM     25  O   UNL     1       0.788   3.541  19.219  0.00  0.00    +0.000 OA
ENDBRANCH  18  19
ENDBRANCH   1  18
TORSDOF 6
ENDMDL
MODEL 4
REMARK VINA RESULT:      -7.4      1.873      5.066
REMARK  Name = 
REMARK  6 active torsions:
REMARK  status: ('A' for Active; 'I' for Inactive)
REMARK    1  A    between atoms: C_2  and  C_3
REMARK    2  A    between atoms: C_3  and  C_4
REMARK    3  A    between atoms: N_9  and  C_10
REMARK    4  A    between atoms: C_10  and  C_11
REMARK    5  A    between atoms: C_10  and  C_19
REMARK    6  A    between atoms: C_11  and  N_12
REMARK                            x       y       z     vdW  Elec       q    Type
REMARK                         _______ _______ _______ _____ _____    ______ ____
ROOT
ATOM      1  C   UNL     1       2.897   6.117  18.514  0.00  0.00    +0.000 C 
ENDROOT
BRANCH   1   2
ATOM      2  C   UNL     1       2.210   7.440  18.826  0.00  0.00    +0.000 A 
ATOM      3  C   UNL     1       1.756   7.713  20.125  0.00  0.00    +0.000 A 
ATOM      4  C   UNL     1       1.134   8.930  20.417  0.00  0.00    +0.000 A 
ATOM      5  C   UNL     1       0.958   9.885  19.419  0.00  0.00    +0.000 A 
ATOM      6  C   UNL     1       1.408   9.631  18.126  0.00  0.00    +0.000 A 
ATOM      7  C   UNL     1       2.031   8.418  17.831  0.00  0.00    +0.000 A 
ENDBRANCH   1   2
BRANCH   1  10
ATOM      8  O   UNL     1       4.083   4.451  16.568  0.00  0.00    +0.000 OA
ATOM      9  C   UNL     1       4.621   5.526  16.829  0.00  0.00    +0.000 C 
ATOM     10  N   UNL     1       4.154   6.367  17.808  0.00  0.00    +0.000 N 
ATOM     11  H   UNL     1       4.510   7.313  17.835  0.00  0.00    +0.000 HD
BRANCH   9  12
ATOM     12  C   UNL     1       5.814   6.019  16.017  0.00  0.00    +0.000 C 
BRANCH  12  13
ATOM     13  C   UNL     1       7.088   6.332  16.800  0.00  0.00    +0.000 C 
ATOM     14  C   UNL     1       7.086   7.713  17.450  0.00  0.00    +0.000 C 
ATOM     15  C   UNL     1       8.209   7.622  18.473  0.00  0.00    +0.000 C 
ATOM     16  C   UNL     1       8.208   6.172  18.951  0.00  0.00    +0.000 C 
ATOM     17  C   UNL     1       7.287   5.405  18.002  0.00  0.00    +0.000 C 
ENDBRANCH  12  13
ENDBRANCH   9  12
ENDBRANCH   1  10
BRANCH   1  18
ATOM     18  C   UNL     1       3.099   5.324  19.829  0.00  0.00    +0.000 C 
BRANCH  18  19
ATOM     19  N   UNL     1       2.981   3.884  19.662  0.00  0.00    +0.000 N 
ATOM     20  C   UNL     1       1.816   3.202  19.585  0.00  0.00    +0.000 C 
ATOM     21  O   UNL     1       0.689   3.658  19.667  0.00  0.00    +0.000 OA
ATOM     22  C   UNL     1       2.167   1.757  19.404  0.00  0.00    +0.000 C 
ATOM     23  O   UNL     1       3.596   1.752  19.454  0.00  0.00    +0.000 OA
ATOM     24  C   UNL     1       4.030   3.036  19.606  0.00  0.00    +0.000 C 
ATOM     25  O   UNL     1       5.209   3.344  19.700  0.00  0.00    +0.000 OA
ENDBRANCH  18  19
ENDBRANCH   1  18
TORSDOF 6
ENDMDL
MODEL 5
REMARK VINA RESULT:      -7.3      2.492      5.955
REMARK  Name = 
REMARK  6 active torsions:
REMARK  status: ('A' for Active; 'I' for Inactive)
REMARK    1  A    between atoms: C_2  and  C_3
REMARK    2  A    between atoms: C_3  and  C_4
REMARK    3  A    between atoms: N_9  and  C_10
REMARK    4  A    between atoms: C_10  and  C_11
REMARK    5  A    between atoms: C_10  and  C_19
REMARK    6  A    between atoms: C_11  and  N_12
REMARK                            x       y       z     vdW  Elec       q    Type
REMARK                         _______ _______ _______ _____ _____    ______ ____
ROOT
ATOM      1  C   UNL     1       4.860   4.423  16.845  0.00  0.00    +0.000 C 
ENDROOT
BRANCH   1   2
ATOM      2  C   UNL     1       3.615   3.791  17.451  0.00  0.00    +0.000 A 
ATOM      3  C   UNL     1       3.610   2.434  17.805  0.00  0.00    +0.000 A 
ATOM      4  C   UNL     1       2.472   1.853  18.371  0.00  0.00    +0.000 A 
ATOM      5  C   UNL     1       1.328   2.618  18.589  0.00  0.00    +0.000 A 
ATOM      6  C   UNL     1       1.319   3.968  18.248  0.00  0.00    +0.000 A 
ATOM      7  C   UNL     1       2.455   4.552  17.685  0.00  0.00    +0.000 A 
ENDBRANCH   1   2
BRANCH   1  10
ATOM      8  O   UNL     1       7.007   4.630  15.023  0.00  0.00    +0.000 OA
ATOM      9  C   UNL     1       5.875   4.447  14.579  0.00  0.00    +0.000 C 
ATOM     10  N   UNL     1       4.764   4.403  15.385  0.00  0.00    +0.000 N 
ATOM     11  H   UNL     1       3.902   4.051  14.991  0.00  0.00    +0.000 HD
BRANCH   9  12
ATOM     12  C   UNL     1       5.651   4.188  13.094  0.00  0.00    +0.000 C 
BRANCH  12  13
ATOM     13  C   UNL     1       6.192   2.869  12.543  0.00  0.00    +0.000 C 
ATOM     14  C   UNL     1       5.236   2.168  11.582  0.00  0.00    +0.000 C 
ATOM     15  C   UNL     1       6.128   1.158  10.874  0.00  0.00    +0.000 C 
ATOM     16  C   UNL     1       7.502   1.818  10.786  0.00  0.00    +0.000 C 
ATOM     17  C   UNL     1       7.444   3.056  11.682  0.00  0.00    +0.000 C 
ENDBRANCH  12  13
ENDBRANCH   9  12
ENDBRANCH   1  10
BRANCH   1  18
ATOM     18  C   UNL     1       5.036   5.854  17.411  0.00  0.00    +0.000 C 
BRANCH  18  19
ATOM     19  N   UNL     1       6.291   6.049  18.118  0.00  0.00    +0.000 N 
ATOM     20  C   UNL     1       6.658   5.401  19.247  0.00  0.00    +0.000 C 
ATOM     21  O   UNL     1       6.007   4.581  19.870  0.00  0.00    +0.000 OA
ATOM     22  C   UNL     1       8.022   5.901  19.615  0.00  0.00    +0.000 C 
ATOM     23  O   UNL     1       8.292   6.893  18.620  0.00  0.00    +0.000 OA
ATOM     24  C   UNL     1       7.238   6.940  17.756  0.00  0.00    +0.000 C 
ATOM     25  O   UNL     1       7.175   7.711  16.810  0.00  0.00    +0.000 OA
ENDBRANCH  18  19
ENDBRANCH   1  18
TORSDOF 6
ENDMDL
MODEL 6
REMARK VINA RESULT:      -7.3      2.519      6.524
REMARK  Name = 
REMARK  6 active torsions:
REMARK  status: ('A' for Active; 'I' for Inactive)
REMARK    1  A    between atoms: C_2  and  C_3
REMARK    2  A    between atoms: C_3  and  C_4
REMARK    3  A    between atoms: N_9  and  C_10
REMARK    4  A    between atoms: C_10  and  C_11
REMARK    5  A    between atoms: C_10  and  C_19
REMARK    6  A    between atoms: C_11  and  N_12
REMARK                            x       y       z     vdW  Elec       q    Type
REMARK                         _______ _______ _______ _____ _____    ______ ____
ROOT
ATOM      1  C   UNL     1       3.647   5.370  18.255  0.00  0.00    +0.000 C 
ENDROOT
BRANCH   1   2
ATOM      2  C   UNL     1       4.888   5.125  17.408  0.00  0.00    +0.000 A 
ATOM      3  C   UNL     1       6.049   5.885  17.617  0.00  0.00    +0.000 A 
ATOM      4  C   UNL     1       7.194   5.656  16.849  0.00  0.00    +0.000 A 
ATOM      5  C   UNL     1       7.193   4.670  15.865  0.00  0.00    +0.000 A 
ATOM      6  C   UNL     1       6.050   3.904  15.649  0.00  0.00    +0.000 A 
ATOM      7  C   UNL     1       4.906   4.128  16.416  0.00  0.00    +0.000 A 
ENDBRANCH   1   2
BRANCH   1  10
ATOM      8  O   UNL     1       2.371   7.414  19.727  0.00  0.00    +0.000 OA
ATOM      9  C   UNL     1       2.352   7.474  18.500  0.00  0.00    +0.000 C 
ATOM     10  N   UNL     1       2.885   6.491  17.703  0.00  0.00    +0.000 N 
ATOM     11  H   UNL     1       3.019   6.692  16.721  0.00  0.00    +0.000 HD
BRANCH   9  12
ATOM     12  C   UNL     1       1.785   8.697  17.786  0.00  0.00    +0.000 C 
BRANCH  12  13
ATOM     13  C   UNL     1       1.299   9.840  18.676  0.00  0.00    +0.000 C 
ATOM     14  C   UNL     1       1.932  11.188  18.344  0.00  0.00    +0.000 C 
ATOM     15  C   UNL     1       1.016  12.187  19.037  0.00  0.00    +0.000 C 
ATOM     16  C   UNL     1      -0.380  11.572  18.973  0.00  0.00    +0.000 C 
ATOM     17  C   UNL     1      -0.195  10.128  18.505  0.00  0.00    +0.000 C 
ENDBRANCH  12  13
ENDBRANCH   9  12
ENDBRANCH   1  10
BRANCH   1  18
ATOM     18  C   UNL     1       2.816   4.066  18.334  0.00  0.00    +0.000 C 
BRANCH  18  19
ATOM     19  N   UNL     1       2.712   3.523  19.678  0.00  0.00    +0.000 N 
ATOM     20  C   UNL     1       1.676   3.726  20.523  0.00  0.00    +0.000 C 
ATOM     21  O   UNL     1       0.684   4.406  20.320  0.00  0.00    +0.000 OA
ATOM     22  C   UNL     1       1.983   2.975  21.782  0.00  0.00    +0.000 C 
ATOM     23  O   UNL     1       3.280   2.425  21.533  0.00  0.00    +0.000 OA
ATOM     24  C   UNL     1       3.666   2.776  20.273  0.00  0.00    +0.000 C 
ATOM     25  O   UNL     1       4.743   2.465  19.786  0.00  0.00    +0.000 OA
ENDBRANCH  18  19
ENDBRANCH   1  18
TORSDOF 6
ENDMDL
MODEL 7
REMARK VINA RESULT:      -7.3      2.694      6.263
REMARK  Name = 
REMARK  6 active torsions:
REMARK  status: ('A' for Active; 'I' for Inactive)
REMARK    1  A    between atoms: C_2  and  C_3
REMARK    2  A    between atoms: C_3  and  C_4
REMARK    3  A    between atoms: N_9  and  C_10
REMARK    4  A    between atoms: C_10  and  C_11
REMARK    5  A    between atoms: C_10  and  C_19
REMARK    6  A    between atoms: C_11  and  N_12
REMARK                            x       y       z     vdW  Elec       q    Type
REMARK                         _______ _______ _______ _____ _____    ______ ____
ROOT
ATOM      1  C   UNL     1       4.031   5.623  18.348  0.00  0.00    +0.000 C 
ENDROOT
BRANCH   1   2
ATOM      2  C   UNL     1       5.503   6.012  18.356  0.00  0.00    +0.000 A 
ATOM      3  C   UNL     1       5.986   6.971  17.453  0.00  0.00    +0.000 A 
ATOM      4  C   UNL     1       7.334   7.338  17.463  0.00  0.00    +0.000 A 
ATOM      5  C   UNL     1       8.214   6.754  18.372  0.00  0.00    +0.000 A 
ATOM      6  C   UNL     1       7.748   5.804  19.278  0.00  0.00    +0.000 A 
ATOM      7  C   UNL     1       6.402   5.436  19.272  0.00  0.00    +0.000 A 
ENDBRANCH   1   2
BRANCH   1  10
ATOM      8  O   UNL     1       2.195   7.333  19.644  0.00  0.00    +0.000 OA
ATOM      9  C   UNL     1       2.418   7.508  18.448  0.00  0.00    +0.000 C 
ATOM     10  N   UNL     1       3.242   6.684  17.721  0.00  0.00    +0.000 N 
ATOM     11  H   UNL     1       3.543   6.994  16.807  0.00  0.00    +0.000 HD
BRANCH   9  12
ATOM     12  C   UNL     1       1.836   8.711  17.713  0.00  0.00    +0.000 C 
BRANCH  12  13
ATOM     13  C   UNL     1       1.338   9.865  18.581  0.00  0.00    +0.000 C 
ATOM     14  C   UNL     1       1.975  11.209  18.239  0.00  0.00    +0.000 C 
ATOM     15  C   UNL     1       1.050  12.216  18.908  0.00  0.00    +0.000 C 
ATOM     16  C   UNL     1      -0.345  11.600  18.836  0.00  0.00    +0.000 C 
ATOM     17  C   UNL     1      -0.154  10.150  18.388  0.00  0.00    +0.000 C 
ENDBRANCH  12  13
ENDBRANCH   9  12
ENDBRANCH   1  10
BRANCH   1  18
ATOM     18  C   UNL     1       3.866   4.258  17.636  0.00  0.00    +0.000 C 
BRANCH  18  19
ATOM     19  N   UNL     1       2.837   3.416  18.223  0.00  0.00    +0.000 N 
ATOM     20  C   UNL     1       3.062   2.379  19.061  0.00  0.00    +0.000 C 
ATOM     21  O   UNL     1       4.143   1.960  19.440  0.00  0.00    +0.000 OA
ATOM     22  C   UNL     1       1.724   1.812  19.425  0.00  0.00    +0.000 C 
ATOM     23  O   UNL     1       0.809   2.603  18.663  0.00  0.00    +0.000 OA
ATOM     24  C   UNL     1       1.517   3.540  17.971  0.00  0.00    +0.000 C 
ATOM     25  O   UNL     1       1.003   4.351  17.214  0.00  0.00    +0.000 OA
ENDBRANCH  18  19
ENDBRANCH   1  18
TORSDOF 6
ENDMDL
MODEL 8
REMARK VINA RESULT:      -7.3      2.143      4.905
REMARK  Name = 
REMARK  6 active torsions:
REMARK  status: ('A' for Active; 'I' for Inactive)
REMARK    1  A    between atoms: C_2  and  C_3
REMARK    2  A    between atoms: C_3  and  C_4
REMARK    3  A    between atoms: N_9  and  C_10
REMARK    4  A    between atoms: C_10  and  C_11
REMARK    5  A    between atoms: C_10  and  C_19
REMARK    6  A    between atoms: C_11  and  N_12
REMARK                            x       y       z     vdW  Elec       q    Type
REMARK                         _______ _______ _______ _____ _____    ______ ____
ROOT
ATOM      1  C   UNL     1       2.727   6.483  18.295  0.00  0.00    +0.000 C 
ENDROOT
BRANCH   1   2
ATOM      2  C   UNL     1       2.085   5.231  18.877  0.00  0.00    +0.000 A 
ATOM      3  C   UNL     1       1.615   4.217  18.029  0.00  0.00    +0.000 A 
ATOM      4  C   UNL     1       1.034   3.063  18.559  0.00  0.00    +0.000 A 
ATOM      5  C   UNL     1       0.914   2.907  19.938  0.00  0.00    +0.000 A 
ATOM      6  C   UNL     1       1.380   3.902  20.793  0.00  0.00    +0.000 A 
ATOM      7  C   UNL     1       1.963   5.056  20.267  0.00  0.00    +0.000 A 
ENDBRANCH   1   2
BRANCH   1  10
ATOM      8  O   UNL     1       2.175   9.012  17.167  0.00  0.00    +0.000 OA
ATOM      9  C   UNL     1       1.943   8.837  18.362  0.00  0.00    +0.000 C 
ATOM     10  N   UNL     1       2.243   7.665  19.010  0.00  0.00    +0.000 N 
ATOM     11  H   UNL     1       1.848   7.511  19.927  0.00  0.00    +0.000 HD
BRANCH   9  12
ATOM     12  C   UNL     1       1.234   9.909  19.184  0.00  0.00    +0.000 C 
BRANCH  12  13
ATOM     13  C   UNL     1       0.528   9.437  20.454  0.00  0.00    +0.000 C 
ATOM     14  C   UNL     1       1.452   9.321  21.662  0.00  0.00    +0.000 C 
ATOM     15  C   UNL     1       0.488   9.259  22.838  0.00  0.00    +0.000 C 
ATOM     16  C   UNL     1      -0.705  10.122  22.433  0.00  0.00    +0.000 C 
ATOM     17  C   UNL     1      -0.531  10.427  20.944  0.00  0.00    +0.000 C 
ENDBRANCH  12  13
ENDBRANCH   9  12
ENDBRANCH   1  10
BRANCH   1  18
ATOM     18  C   UNL     1       4.269   6.341  18.353  0.00  0.00    +0.000 C 
BRANCH  18  19
ATOM     19  N   UNL     1       4.819   5.534  17.277  0.00  0.00    +0.000 N 
ATOM     20  C   UNL     1       5.149   4.226  17.373  0.00  0.00    +0.000 C 
ATOM     21  O   UNL     1       5.071   3.519  18.363  0.00  0.00    +0.000 OA
ATOM     22  C   UNL     1       5.660   3.803  16.030  0.00  0.00    +0.000 C 
ATOM     23  O   UNL     1       5.618   5.010  15.263  0.00  0.00    +0.000 OA
ATOM     24  C   UNL     1       5.110   6.004  16.045  0.00  0.00    +0.000 C 
ATOM     25  O   UNL     1       4.974   7.158  15.666  0.00  0.00    +0.000 OA
ENDBRANCH  18  19
ENDBRANCH   1  18
TORSDOF 6
ENDMDL
MODEL 9
REMARK VINA RESULT:      -7.2      2.467      5.464
REMARK  Name = 
REMARK  6 active torsions:
REMARK  status: ('A' for Active; 'I' for Inactive)
REMARK    1  A    between atoms: C_2  and  C_3
REMARK    2  A    between atoms: C_3  and  C_4
REMARK    3  A    between atoms: N_9  and  C_10
REMARK    4  A    between atoms: C_10  and  C_11
REMARK    5  A    between atoms: C_10  and  C_19
REMARK    6  A    between atoms: C_11  and  N_12
REMARK                            x       y       z     vdW  Elec       q    Type
REMARK                         _______ _______ _______ _____ _____    ______ ____
ROOT
ATOM      1  C   UNL     1       2.750   6.553  18.298  0.00  0.00    +0.000 C 
ENDROOT
BRANCH   1   2
ATOM      2  C   UNL     1       2.137   5.255  18.808  0.00  0.00    +0.000 A 
ATOM      3  C   UNL     1       1.935   5.060  20.182  0.00  0.00    +0.000 A 
ATOM      4  C   UNL     1       1.364   3.875  20.654  0.00  0.00    +0.000 A 
ATOM      5  C   UNL     1       0.990   2.873  19.761  0.00  0.00    +0.000 A 
ATOM      6  C   UNL     1       1.180   3.054  18.393  0.00  0.00    +0.000 A 
ATOM      7  C   UNL     1       1.748   4.237  17.919  0.00  0.00    +0.000 A 
ENDBRANCH   1   2
BRANCH   1  10
ATOM      8  O   UNL     1       2.196   9.102  17.219  0.00  0.00    +0.000 OA
ATOM      9  C   UNL     1       1.875   8.875  18.384  0.00  0.00    +0.000 C 
ATOM     10  N   UNL     1       2.167   7.689  19.013  0.00  0.00    +0.000 N 
ATOM     11  H   UNL     1       1.705   7.486  19.889  0.00  0.00    +0.000 HD
BRANCH   9  12
ATOM     12  C   UNL     1       1.064   9.888  19.184  0.00  0.00    +0.000 C 
BRANCH  12  13
ATOM     13  C   UNL     1      -0.000  10.669  18.414  0.00  0.00    +0.000 C 
ATOM     14  C   UNL     1      -1.036   9.781  17.729  0.00  0.00    +0.000 C 
ATOM     15  C   UNL     1      -2.170  10.746  17.412  0.00  0.00    +0.000 C 
ATOM     16  C   UNL     1      -2.163  11.770  18.544  0.00  0.00    +0.000 C 
ATOM     17  C   UNL     1      -0.868  11.542  19.324  0.00  0.00    +0.000 C 
ENDBRANCH  12  13
ENDBRANCH   9  12
ENDBRANCH   1  10
BRANCH   1  18
ATOM     18  C   UNL     1       4.290   6.483  18.444  0.00  0.00    +0.000 C 
BRANCH  18  19
ATOM     19  N   UNL     1       4.931   5.642  17.447  0.00  0.00    +0.000 N 
ATOM     20  C   UNL     1       5.415   4.399  17.671  0.00  0.00    +0.000 C 
ATOM     21  O   UNL     1       5.426   3.793  18.729  0.00  0.00    +0.000 OA
ATOM     22  C   UNL     1       5.971   3.905  16.370  0.00  0.00    +0.000 C 
ATOM     23  O   UNL     1       5.784   5.013  15.486  0.00  0.00    +0.000 OA
ATOM     24  C   UNL     1       5.162   6.015  16.171  0.00  0.00    +0.000 C 
ATOM     25  O   UNL     1       4.887   7.099  15.678  0.00  0.00    +0.000 OA
ENDBRANCH  18  19
ENDBRANCH   1  18
TORSDOF 6
ENDMDL
