MODEL 1
REMARK VINA RESULT:      -9.7      0.000      0.000
REMARK  Name = 
REMARK  4 active torsions:
REMARK  status: ('A' for Active; 'I' for Inactive)
REMARK    1  A    between atoms: N_3  and  C_4
REMARK    2  A    between atoms: C_7  and  C_8
REMARK    3  A    between atoms: C_10  and  N_11
REMARK    4  A    between atoms: N_27  and  C_28
REMARK                            x       y       z     vdW  Elec       q    Type
REMARK                         _______ _______ _______ _____ _____    ______ ____
ROOT
ATOM      1  C   UNL     1       1.124  10.429  18.794  0.00  0.00    +0.000 A 
ATOM      2  C   UNL     1       0.818   9.815  20.010  0.00  0.00    +0.000 A 
ATOM      3  C   UNL     1       1.275   8.533  20.301  0.00  0.00    +0.000 A 
ATOM      4  C   UNL     1       2.008   7.817  19.355  0.00  0.00    +0.000 A 
ATOM      5  C   UNL     1       2.305   8.410  18.123  0.00  0.00    +0.000 A 
ATOM      6  C   UNL     1       1.852   9.709  17.841  0.00  0.00    +0.000 A 
ENDROOT
BRANCH   4   7
ATOM      7  C   UNL     1       2.510   6.456  19.683  0.00  0.00    +0.000 A 
ATOM      8  C   UNL     1       3.653   5.977  18.857  0.00  0.00    +0.000 A 
ATOM      9  C   UNL     1       4.070   4.703  18.962  0.00  0.00    +0.000 A 
ATOM     10  C   UNL     1       3.408   3.897  19.947  0.00  0.00    +0.000 A 
ATOM     11  N   UNL     1       3.571   2.634  20.310  0.00  0.00    +0.000 NA
ATOM     12  C   UNL     1       2.714   2.435  21.358  0.00  0.00    +0.000 A 
ATOM     13  C   UNL     1       1.997   3.573  21.627  0.00  0.00    +0.000 A 
ATOM     14  N   UNL     1       2.434   4.506  20.726  0.00  0.00    +0.000 N 
ATOM     15  N   UNL     1       1.941   5.771  20.627  0.00  0.00    +0.000 NA
BRANCH   9  16
ATOM     16  N   UNL     1       5.119   4.249  18.131  0.00  0.00    +0.000 N 
ATOM     17  C   UNL     1       6.373   5.045  18.021  0.00  0.00    +0.000 C 
ATOM     18  C   UNL     1       6.533   5.690  16.624  0.00  0.00    +0.000 C 
ATOM     19  C   UNL     1       7.229   4.745  15.631  0.00  0.00    +0.000 C 
ATOM     20  C   UNL     1       6.087   4.209  14.777  0.00  0.00    +0.000 C 
ATOM     21  C   UNL     1       4.873   4.537  15.628  0.00  0.00    +0.000 C 
ATOM     22  C   UNL     1       4.755   3.580  16.852  0.00  0.00    +0.000 C 
ATOM     23  O   UNL     1       5.221   5.875  16.041  0.00  0.00    +0.000 OA
ENDBRANCH   9  16
ENDBRANCH   4   7
BRANCH   1  26
ATOM     24  O   UNL     1       2.062  12.845  20.061  0.00  0.00    +0.000 OA
ATOM     25  C   UNL     1       1.234  12.882  19.159  0.00  0.00    +0.000 C 
ATOM     26  N   UNL     1       0.746  11.760  18.502  0.00  0.00    +0.000 N 
ATOM     27  N   UNL     1       0.695  14.052  18.657  0.00  0.00    +0.000 N 
ATOM     28  H   UNL     1       0.270  11.908  17.626  0.00  0.00    +0.000 HD
ATOM     29  H   UNL     1      -0.063  13.965  17.998  0.00  0.00    +0.000 HD
BRANCH  27  30
ATOM     30  C   UNL     1       1.060  15.365  19.046  0.00  0.00    +0.000 A 
ATOM     31  C   UNL     1       0.385  16.121  20.005  0.00  0.00    +0.000 A 
ATOM     32  C   UNL     1       0.825  17.404  20.327  0.00  0.00    +0.000 A 
ATOM     33  C   UNL     1       1.938  17.898  19.674  0.00  0.00    +0.000 A 
ATOM     34  N   UNL     1       2.629  17.206  18.742  0.00  0.00    +0.000 NA
ATOM     35  C   UNL     1       2.170  15.962  18.454  0.00  0.00    +0.000 A 
ENDBRANCH  27  30
ENDBRANCH   1  26
TORSDOF 4
ENDMDL
MODEL 2
REMARK VINA RESULT:      -9.6      0.754      1.298
REMARK  Name = 
REMARK  4 active torsions:
REMARK  status: ('A' for Active; 'I' for Inactive)
REMARK    1  A    between atoms: N_3  and  C_4
REMARK    2  A    between atoms: C_7  and  C_8
REMARK    3  A    between atoms: C_10  and  N_11
REMARK    4  A    between atoms: N_27  and  C_28
REMARK                            x       y       z     vdW  Elec       q    Type
REMARK                         _______ _______ _______ _____ _____    ______ ____
ROOT
ATOM      1  C   UNL     1       0.986  10.359  18.774  0.00  0.00    +0.000 A 
ATOM      2  C   UNL     1       1.753   9.637  17.857  0.00  0.00    +0.000 A 
ATOM      3  C   UNL     1       2.230   8.367  18.164  0.00  0.00    +0.000 A 
ATOM      4  C   UNL     1       1.992   7.812  19.421  0.00  0.00    +0.000 A 
ATOM      5  C   UNL     1       1.244   8.532  20.360  0.00  0.00    +0.000 A 
ATOM      6  C   UNL     1       0.754   9.807  20.038  0.00  0.00    +0.000 A 
ENDROOT
BRANCH   4   7
ATOM      7  C   UNL     1       2.489   6.445  19.733  0.00  0.00    +0.000 A 
ATOM      8  C   UNL     1       3.647   5.981  18.918  0.00  0.00    +0.000 A 
ATOM      9  C   UNL     1       4.063   4.706  19.007  0.00  0.00    +0.000 A 
ATOM     10  C   UNL     1       3.386   3.883  19.968  0.00  0.00    +0.000 A 
ATOM     11  N   UNL     1       3.544   2.614  20.311  0.00  0.00    +0.000 NA
ATOM     12  C   UNL     1       2.671   2.397  21.342  0.00  0.00    +0.000 A 
ATOM     13  C   UNL     1       1.949   3.530  21.619  0.00  0.00    +0.000 A 
ATOM     14  N   UNL     1       2.399   4.478  20.741  0.00  0.00    +0.000 N 
ATOM     15  N   UNL     1       1.907   5.744  20.656  0.00  0.00    +0.000 NA
BRANCH   9  16
ATOM     16  N   UNL     1       5.126   4.267  18.185  0.00  0.00    +0.000 N 
ATOM     17  C   UNL     1       6.367   5.084  18.081  0.00  0.00    +0.000 C 
ATOM     18  C   UNL     1       6.525   5.727  16.683  0.00  0.00    +0.000 C 
ATOM     19  C   UNL     1       7.245   4.790  15.699  0.00  0.00    +0.000 C 
ATOM     20  C   UNL     1       6.118   4.232  14.839  0.00  0.00    +0.000 C 
ATOM     21  C   UNL     1       4.893   4.543  15.680  0.00  0.00    +0.000 C 
ATOM     22  C   UNL     1       4.782   3.588  16.906  0.00  0.00    +0.000 C 
ATOM     23  O   UNL     1       5.215   5.888  16.091  0.00  0.00    +0.000 OA
ENDBRANCH   9  16
ENDBRANCH   4   7
BRANCH   1  26
ATOM     24  O   UNL     1       1.604  12.916  19.959  0.00  0.00    +0.000 OA
ATOM     25  C   UNL     1       0.757  12.812  19.080  0.00  0.00    +0.000 C 
ATOM     26  N   UNL     1       0.417  11.615  18.462  0.00  0.00    +0.000 N 
ATOM     27  N   UNL     1       0.046  13.881  18.566  0.00  0.00    +0.000 N 
ATOM     28  H   UNL     1      -0.097  11.672  17.596  0.00  0.00    +0.000 HD
ATOM     29  H   UNL     1      -0.707  13.670  17.931  0.00  0.00    +0.000 HD
BRANCH  27  30
ATOM     30  C   UNL     1       0.231  15.242  18.914  0.00  0.00    +0.000 A 
ATOM     31  C   UNL     1       1.338  16.009  18.545  0.00  0.00    +0.000 A 
ATOM     32  C   UNL     1       1.427  17.346  18.930  0.00  0.00    +0.000 A 
ATOM     33  C   UNL     1       0.397  17.882  19.678  0.00  0.00    +0.000 A 
ATOM     34  N   UNL     1      -0.695  17.185  20.057  0.00  0.00    +0.000 NA
ATOM     35  C   UNL     1      -0.747  15.887  19.667  0.00  0.00    +0.000 A 
ENDBRANCH  27  30
ENDBRANCH   1  26
TORSDOF 4
ENDMDL
MODEL 3
REMARK VINA RESULT:      -8.4      2.994      3.644
REMARK  Name = 
REMARK  4 active torsions:
REMARK  status: ('A' for Active; 'I' for Inactive)
REMARK    1  A    between atoms: N_3  and  C_4
REMARK    2  A    between atoms: C_7  and  C_8
REMARK    3  A    between atoms: C_10  and  N_11
REMARK    4  A    between atoms: N_27  and  C_28
REMARK                            x       y       z     vdW  Elec       q    Type
REMARK                         _______ _______ _______ _____ _____    ______ ____
ROOT
ATOM      1  C   UNL     1       0.677  10.787  21.011  0.00  0.00    +0.000 A 
ATOM      2  C   UNL     1       0.962  10.371  19.709  0.00  0.00    +0.000 A 
ATOM      3  C   UNL     1       1.336   9.058  19.442  0.00  0.00    +0.000 A 
ATOM      4  C   UNL     1       1.483   8.143  20.484  0.00  0.00    +0.000 A 
ATOM      5  C   UNL     1       1.223   8.550  21.798  0.00  0.00    +0.000 A 
ATOM      6  C   UNL     1       0.832   9.873  22.059  0.00  0.00    +0.000 A 
ENDROOT
BRANCH   4   7
ATOM      7  C   UNL     1       1.864   6.736  20.187  0.00  0.00    +0.000 A 
ATOM      8  C   UNL     1       2.851   6.558  19.085  0.00  0.00    +0.000 A 
ATOM      9  C   UNL     1       3.133   5.325  18.630  0.00  0.00    +0.000 A 
ATOM     10  C   UNL     1       2.499   4.234  19.314  0.00  0.00    +0.000 A 
ATOM     11  N   UNL     1       2.561   2.924  19.135  0.00  0.00    +0.000 NA
ATOM     12  C   UNL     1       1.808   2.377  20.138  0.00  0.00    +0.000 A 
ATOM     13  C   UNL     1       1.255   3.355  20.924  0.00  0.00    +0.000 A 
ATOM     14  N   UNL     1       1.690   4.541  20.398  0.00  0.00    +0.000 N 
ATOM     15  N   UNL     1       1.332   5.769  20.866  0.00  0.00    +0.000 NA
BRANCH   9  16
ATOM     16  N   UNL     1       4.028   5.177  17.546  0.00  0.00    +0.000 N 
ATOM     17  C   UNL     1       4.933   3.994  17.490  0.00  0.00    +0.000 C 
ATOM     18  C   UNL     1       6.414   4.384  17.706  0.00  0.00    +0.000 C 
ATOM     19  C   UNL     1       7.101   4.777  16.387  0.00  0.00    +0.000 C 
ATOM     20  C   UNL     1       7.143   6.300  16.439  0.00  0.00    +0.000 C 
ATOM     21  C   UNL     1       6.115   6.608  17.514  0.00  0.00    +0.000 C 
ATOM     22  C   UNL     1       4.661   6.404  16.992  0.00  0.00    +0.000 C 
ATOM     23  O   UNL     1       6.469   5.602  18.485  0.00  0.00    +0.000 OA
ENDBRANCH   9  16
ENDBRANCH   4   7
BRANCH   1  26
ATOM     24  O   UNL     1      -1.202  11.569  23.055  0.00  0.00    +0.000 OA
ATOM     25  C   UNL     1      -0.702  12.397  22.303  0.00  0.00    +0.000 C 
ATOM     26  N   UNL     1       0.214  12.091  21.305  0.00  0.00    +0.000 N 
ATOM     27  N   UNL     1      -0.963  13.753  22.369  0.00  0.00    +0.000 N 
ATOM     28  H   UNL     1       0.746  12.853  20.916  0.00  0.00    +0.000 HD
ATOM     29  H   UNL     1      -0.591  14.330  21.631  0.00  0.00    +0.000 HD
BRANCH  27  30
ATOM     30  C   UNL     1      -1.774  14.394  23.338  0.00  0.00    +0.000 A 
ATOM     31  C   UNL     1      -1.300  14.922  24.540  0.00  0.00    +0.000 A 
ATOM     32  C   UNL     1      -2.176  15.543  25.430  0.00  0.00    +0.000 A 
ATOM     33  C   UNL     1      -3.512  15.619  25.087  0.00  0.00    +0.000 A 
ATOM     34  N   UNL     1      -4.020  15.129  23.936  0.00  0.00    +0.000 NA
ATOM     35  C   UNL     1      -3.138  14.529  23.096  0.00  0.00    +0.000 A 
ENDBRANCH  27  30
ENDBRANCH   1  26
TORSDOF 4
ENDMDL
MODEL 4
REMARK VINA RESULT:      -8.3      2.974      3.548
REMARK  Name = 
REMARK  4 active torsions:
REMARK  status: ('A' for Active; 'I' for Inactive)
REMARK    1  A    between atoms: N_3  and  C_4
REMARK    2  A    between atoms: C_7  and  C_8
REMARK    3  A    between atoms: C_10  and  N_11
REMARK    4  A    between atoms: N_27  and  C_28
REMARK                            x       y       z     vdW  Elec       q    Type
REMARK                         _______ _______ _______ _____ _____    ______ ____
ROOT
ATOM      1  C   UNL     1       0.515  10.771  21.078  0.00  0.00    +0.000 A 
ATOM      2  C   UNL     1       0.752   9.839  22.090  0.00  0.00    +0.000 A 
ATOM      3  C   UNL     1       1.251   8.573  21.797  0.00  0.00    +0.000 A 
ATOM      4  C   UNL     1       1.475   8.196  20.474  0.00  0.00    +0.000 A 
ATOM      5  C   UNL     1       1.223   9.111  19.445  0.00  0.00    +0.000 A 
ATOM      6  C   UNL     1       0.732  10.391  19.749  0.00  0.00    +0.000 A 
ENDROOT
BRANCH   4   7
ATOM      7  C   UNL     1       2.027   6.848  20.172  0.00  0.00    +0.000 A 
ATOM      8  C   UNL     1       2.792   6.738  18.898  0.00  0.00    +0.000 A 
ATOM      9  C   UNL     1       3.187   5.532  18.454  0.00  0.00    +0.000 A 
ATOM     10  C   UNL     1       2.899   4.415  19.307  0.00  0.00    +0.000 A 
ATOM     11  N   UNL     1       3.150   3.121  19.183  0.00  0.00    +0.000 NA
ATOM     12  C   UNL     1       2.716   2.546  20.347  0.00  0.00    +0.000 A 
ATOM     13  C   UNL     1       2.169   3.485  21.183  0.00  0.00    +0.000 A 
ATOM     14  N   UNL     1       2.280   4.677  20.521  0.00  0.00    +0.000 N 
ATOM     15  N   UNL     1       1.815   5.867  20.993  0.00  0.00    +0.000 NA
BRANCH   9  16
ATOM     16  N   UNL     1       3.862   5.439  17.215  0.00  0.00    +0.000 N 
ATOM     17  C   UNL     1       4.110   4.102  16.607  0.00  0.00    +0.000 C 
ATOM     18  C   UNL     1       5.610   3.726  16.618  0.00  0.00    +0.000 C 
ATOM     19  C   UNL     1       6.343   4.256  15.374  0.00  0.00    +0.000 C 
ATOM     20  C   UNL     1       7.090   5.481  15.887  0.00  0.00    +0.000 C 
ATOM     21  C   UNL     1       6.372   5.766  17.194  0.00  0.00    +0.000 C 
ATOM     22  C   UNL     1       4.969   6.398  16.951  0.00  0.00    +0.000 C 
ATOM     23  O   UNL     1       6.260   4.422  17.708  0.00  0.00    +0.000 OA
ENDBRANCH   9  16
ENDBRANCH   4   7
BRANCH   1  26
ATOM     24  O   UNL     1      -1.328  11.641  23.119  0.00  0.00    +0.000 OA
ATOM     25  C   UNL     1      -0.811  12.441  22.348  0.00  0.00    +0.000 C 
ATOM     26  N   UNL     1       0.089  12.091  21.349  0.00  0.00    +0.000 N 
ATOM     27  N   UNL     1      -1.036  13.804  22.389  0.00  0.00    +0.000 N 
ATOM     28  H   UNL     1       0.638  12.832  20.942  0.00  0.00    +0.000 HD
ATOM     29  H   UNL     1      -0.655  14.357  21.637  0.00  0.00    +0.000 HD
BRANCH  27  30
ATOM     30  C   UNL     1      -1.823  14.485  23.351  0.00  0.00    +0.000 A 
ATOM     31  C   UNL     1      -1.339  14.971  24.566  0.00  0.00    +0.000 A 
ATOM     32  C   UNL     1      -2.190  15.637  25.447  0.00  0.00    +0.000 A 
ATOM     33  C   UNL     1      -3.513  15.799  25.082  0.00  0.00    +0.000 A 
ATOM     34  N   UNL     1      -4.030  15.352  23.918  0.00  0.00    +0.000 NA
ATOM     35  C   UNL     1      -3.172  14.707  23.087  0.00  0.00    +0.000 A 
ENDBRANCH  27  30
ENDBRANCH   1  26
TORSDOF 4
ENDMDL
MODEL 5
REMARK VINA RESULT:      -8.3      1.272      1.773
REMARK  Name = 
REMARK  4 active torsions:
REMARK  status: ('A' for Active; 'I' for Inactive)
REMARK    1  A    between atoms: N_3  and  C_4
REMARK    2  A    between atoms: C_7  and  C_8
REMARK    3  A    between atoms: C_10  and  N_11
REMARK    4  A    between atoms: N_27  and  C_28
REMARK                            x       y       z     vdW  Elec       q    Type
REMARK                         _______ _______ _______ _____ _____    ______ ____
ROOT
ATOM      1  C   UNL     1       0.601  10.920  20.186  0.00  0.00    +0.000 A 
ATOM      2  C   UNL     1       1.020  10.339  18.987  0.00  0.00    +0.000 A 
ATOM      3  C   UNL     1       1.457   9.019  18.944  0.00  0.00    +0.000 A 
ATOM      4  C   UNL     1       1.532   8.265  20.115  0.00  0.00    +0.000 A 
ATOM      5  C   UNL     1       1.136   8.839  21.328  0.00  0.00    +0.000 A 
ATOM      6  C   UNL     1       0.683  10.167  21.362  0.00  0.00    +0.000 A 
ENDROOT
BRANCH   4   7
ATOM      7  C   UNL     1       1.982   6.848  20.055  0.00  0.00    +0.000 A 
ATOM      8  C   UNL     1       2.992   6.539  19.005  0.00  0.00    +0.000 A 
ATOM      9  C   UNL     1       3.337   5.263  18.761  0.00  0.00    +0.000 A 
ATOM     10  C   UNL     1       2.743   4.270  19.610  0.00  0.00    +0.000 A 
ATOM     11  N   UNL     1       2.867   2.953  19.650  0.00  0.00    +0.000 NA
ATOM     12  C   UNL     1       2.125   2.542  20.724  0.00  0.00    +0.000 A 
ATOM     13  C   UNL     1       1.516   3.609  21.334  0.00  0.00    +0.000 A 
ATOM     14  N   UNL     1       1.904   4.711  20.624  0.00  0.00    +0.000 N 
ATOM     15  N   UNL     1       1.483   5.981  20.880  0.00  0.00    +0.000 NA
BRANCH   9  16
ATOM     16  N   UNL     1       4.255   4.982  17.723  0.00  0.00    +0.000 N 
ATOM     17  C   UNL     1       5.321   3.963  17.934  0.00  0.00    +0.000 C 
ATOM     18  C   UNL     1       6.729   4.601  18.009  0.00  0.00    +0.000 C 
ATOM     19  C   UNL     1       7.364   4.752  16.616  0.00  0.00    +0.000 C 
ATOM     20  C   UNL     1       7.184   6.230  16.293  0.00  0.00    +0.000 C 
ATOM     21  C   UNL     1       6.112   6.644  17.286  0.00  0.00    +0.000 C 
ATOM     22  C   UNL     1       4.708   6.113  16.869  0.00  0.00    +0.000 C 
ATOM     23  O   UNL     1       6.599   5.968  18.465  0.00  0.00    +0.000 OA
ENDBRANCH   9  16
ENDBRANCH   4   7
BRANCH   1  26
ATOM     24  O   UNL     1       1.778  13.343  19.158  0.00  0.00    +0.000 OA
ATOM     25  C   UNL     1       0.699  13.359  19.737  0.00  0.00    +0.000 C 
ATOM     26  N   UNL     1       0.073  12.230  20.249  0.00  0.00    +0.000 N 
ATOM     27  N   UNL     1      -0.052  14.502  19.934  0.00  0.00    +0.000 N 
ATOM     28  H   UNL     1      -0.906  12.308  20.478  0.00  0.00    +0.000 HD
ATOM     29  H   UNL     1      -0.866  14.424  20.523  0.00  0.00    +0.000 HD
BRANCH  27  30
ATOM     30  C   UNL     1       0.264  15.795  19.445  0.00  0.00    +0.000 A 
ATOM     31  C   UNL     1      -0.365  16.403  18.357  0.00  0.00    +0.000 A 
ATOM     32  C   UNL     1       0.010  17.684  17.954  0.00  0.00    +0.000 A 
ATOM     33  C   UNL     1       1.011  18.325  18.657  0.00  0.00    +0.000 A 
ATOM     34  N   UNL     1       1.647  17.783  19.718  0.00  0.00    +0.000 NA
ATOM     35  C   UNL     1       1.257  16.535  20.080  0.00  0.00    +0.000 A 
ENDBRANCH  27  30
ENDBRANCH   1  26
TORSDOF 4
ENDMDL
MODEL 6
REMARK VINA RESULT:      -8.2      1.069      1.151
REMARK  Name = 
REMARK  4 active torsions:
REMARK  status: ('A' for Active; 'I' for Inactive)
REMARK    1  A    between atoms: N_3  and  C_4
REMARK    2  A    between atoms: C_7  and  C_8
REMARK    3  A    between atoms: C_10  and  N_11
REMARK    4  A    between atoms: N_27  and  C_28
REMARK                            x       y       z     vdW  Elec       q    Type
REMARK                         _______ _______ _______ _____ _____    ______ ____
ROOT
ATOM      1  C   UNL     1       0.844  10.431  20.410  0.00  0.00    +0.000 A 
ATOM      2  C   UNL     1       0.815   9.592  21.525  0.00  0.00    +0.000 A 
ATOM      3  C   UNL     1       1.214   8.262  21.433  0.00  0.00    +0.000 A 
ATOM      4  C   UNL     1       1.602   7.729  20.204  0.00  0.00    +0.000 A 
ATOM      5  C   UNL     1       1.616   8.551  19.071  0.00  0.00    +0.000 A 
ATOM      6  C   UNL     1       1.226   9.896  19.175  0.00  0.00    +0.000 A 
ENDROOT
BRANCH   4   7
ATOM      7  C   UNL     1       2.046   6.312  20.118  0.00  0.00    +0.000 A 
ATOM      8  C   UNL     1       3.339   6.085  19.415  0.00  0.00    +0.000 A 
ATOM      9  C   UNL     1       3.744   4.833  19.140  0.00  0.00    +0.000 A 
ATOM     10  C   UNL     1       2.907   3.773  19.627  0.00  0.00    +0.000 A 
ATOM     11  N   UNL     1       3.011   2.457  19.543  0.00  0.00    +0.000 NA
ATOM     12  C   UNL     1       1.962   1.955  20.265  0.00  0.00    +0.000 A 
ATOM     13  C   UNL     1       1.190   2.967  20.775  0.00  0.00    +0.000 A 
ATOM     14  N   UNL     1       1.787   4.128  20.366  0.00  0.00    +0.000 N 
ATOM     15  N   UNL     1       1.308   5.375  20.629  0.00  0.00    +0.000 NA
BRANCH   9  16
ATOM     16  N   UNL     1       4.946   4.637  18.423  0.00  0.00    +0.000 N 
ATOM     17  C   UNL     1       6.013   5.675  18.468  0.00  0.00    +0.000 C 
ATOM     18  C   UNL     1       6.181   6.397  17.111  0.00  0.00    +0.000 C 
ATOM     19  C   UNL     1       7.158   5.655  16.184  0.00  0.00    +0.000 C 
ATOM     20  C   UNL     1       6.248   4.934  15.198  0.00  0.00    +0.000 C 
ATOM     21  C   UNL     1       4.910   4.973  15.915  0.00  0.00    +0.000 C 
ATOM     22  C   UNL     1       4.864   3.962  17.099  0.00  0.00    +0.000 C 
ATOM     23  O   UNL     1       4.928   6.336  16.389  0.00  0.00    +0.000 OA
ENDBRANCH   9  16
ENDBRANCH   4   7
BRANCH   1  26
ATOM     24  O   UNL     1       1.790  12.558  18.707  0.00  0.00    +0.000 OA
ATOM     25  C   UNL     1       1.025  12.783  19.636  0.00  0.00    +0.000 C 
ATOM     26  N   UNL     1       0.525  11.806  20.489  0.00  0.00    +0.000 N 
ATOM     27  N   UNL     1       0.534  14.038  19.943  0.00  0.00    +0.000 N 
ATOM     28  H   UNL     1      -0.276  12.049  21.051  0.00  0.00    +0.000 HD
ATOM     29  H   UNL     1       0.007  14.131  20.797  0.00  0.00    +0.000 HD
BRANCH  27  30
ATOM     30  C   UNL     1       0.775  15.224  19.205  0.00  0.00    +0.000 A 
ATOM     31  C   UNL     1      -0.225  16.057  18.700  0.00  0.00    +0.000 A 
ATOM     32  C   UNL     1       0.111  17.209  17.991  0.00  0.00    +0.000 A 
ATOM     33  C   UNL     1       1.449  17.498  17.807  0.00  0.00    +0.000 A 
ATOM     34  N   UNL     1       2.454  16.729  18.279  0.00  0.00    +0.000 NA
ATOM     35  C   UNL     1       2.089  15.615  18.962  0.00  0.00    +0.000 A 
ENDBRANCH  27  30
ENDBRANCH   1  26
TORSDOF 4
ENDMDL
MODEL 7
REMARK VINA RESULT:      -8.2      2.677      3.249
REMARK  Name = 
REMARK  4 active torsions:
REMARK  status: ('A' for Active; 'I' for Inactive)
REMARK    1  A    between atoms: N_3  and  C_4
REMARK    2  A    between atoms: C_7  and  C_8
REMARK    3  A    between atoms: C_10  and  N_11
REMARK    4  A    between atoms: N_27  and  C_28
REMARK                            x       y       z     vdW  Elec       q    Type
REMARK                         _______ _______ _______ _____ _____    ______ ____
ROOT
ATOM      1  C   UNL     1       0.862  10.384  20.712  0.00  0.00    +0.000 A 
ATOM      2  C   UNL     1       1.130   9.881  19.438  0.00  0.00    +0.000 A 
ATOM      3  C   UNL     1       1.505   8.553  19.256  0.00  0.00    +0.000 A 
ATOM      4  C   UNL     1       1.669   7.712  20.356  0.00  0.00    +0.000 A 
ATOM      5  C   UNL     1       1.426   8.208  21.643  0.00  0.00    +0.000 A 
ATOM      6  C   UNL     1       1.035   9.545  21.818  0.00  0.00    +0.000 A 
ENDROOT
BRANCH   4   7
ATOM      7  C   UNL     1       2.051   6.289  20.151  0.00  0.00    +0.000 A 
ATOM      8  C   UNL     1       3.368   6.067  19.491  0.00  0.00    +0.000 A 
ATOM      9  C   UNL     1       3.728   4.828  19.111  0.00  0.00    +0.000 A 
ATOM     10  C   UNL     1       2.818   3.770  19.449  0.00  0.00    +0.000 A 
ATOM     11  N   UNL     1       2.866   2.465  19.239  0.00  0.00    +0.000 NA
ATOM     12  C   UNL     1       1.759   1.949  19.856  0.00  0.00    +0.000 A 
ATOM     13  C   UNL     1       1.008   2.945  20.428  0.00  0.00    +0.000 A 
ATOM     14  N   UNL     1       1.679   4.108  20.166  0.00  0.00    +0.000 N 
ATOM     15  N   UNL     1       1.244   5.346  20.529  0.00  0.00    +0.000 NA
BRANCH   9  16
ATOM     16  N   UNL     1       4.955   4.642  18.436  0.00  0.00    +0.000 N 
ATOM     17  C   UNL     1       6.057   5.628  18.618  0.00  0.00    +0.000 C 
ATOM     18  C   UNL     1       6.319   6.452  17.335  0.00  0.00    +0.000 C 
ATOM     19  C   UNL     1       7.312   5.749  16.395  0.00  0.00    +0.000 C 
ATOM     20  C   UNL     1       6.425   5.150  15.310  0.00  0.00    +0.000 C 
ATOM     21  C   UNL     1       5.055   5.185  15.966  0.00  0.00    +0.000 C 
ATOM     22  C   UNL     1       4.914   4.083  17.058  0.00  0.00    +0.000 C 
ATOM     23  O   UNL     1       5.101   6.502  16.554  0.00  0.00    +0.000 OA
ENDBRANCH   9  16
ENDBRANCH   4   7
BRANCH   1  26
ATOM     24  O   UNL     1      -1.178  11.262  22.553  0.00  0.00    +0.000 OA
ATOM     25  C   UNL     1      -0.596  12.057  21.825  0.00  0.00    +0.000 C 
ATOM     26  N   UNL     1       0.399  11.704  20.923  0.00  0.00    +0.000 N 
ATOM     27  N   UNL     1      -0.836  13.418  21.824  0.00  0.00    +0.000 N 
ATOM     28  H   UNL     1       0.979  12.445  20.561  0.00  0.00    +0.000 HD
ATOM     29  H   UNL     1      -0.388  13.965  21.106  0.00  0.00    +0.000 HD
BRANCH  27  30
ATOM     30  C   UNL     1      -1.719  14.104  22.696  0.00  0.00    +0.000 A 
ATOM     31  C   UNL     1      -1.396  14.502  23.995  0.00  0.00    +0.000 A 
ATOM     32  C   UNL     1      -2.331  15.179  24.776  0.00  0.00    +0.000 A 
ATOM     33  C   UNL     1      -3.572  15.443  24.230  0.00  0.00    +0.000 A 
ATOM     34  N   UNL     1      -3.933  15.084  22.979  0.00  0.00    +0.000 NA
ATOM     35  C   UNL     1      -2.998  14.424  22.250  0.00  0.00    +0.000 A 
ENDBRANCH  27  30
ENDBRANCH   1  26
TORSDOF 4
ENDMDL
MODEL 8
REMARK VINA RESULT:      -8.2      1.386      1.755
REMARK  Name = 
REMARK  4 active torsions:
REMARK  status: ('A' for Active; 'I' for Inactive)
REMARK    1  A    between atoms: N_3  and  C_4
REMARK    2  A    between atoms: C_7  and  C_8
REMARK    3  A    between atoms: C_10  and  N_11
REMARK    4  A    between atoms: N_27  and  C_28
REMARK                            x       y       z     vdW  Elec       q    Type
REMARK                         _______ _______ _______ _____ _____    ______ ____
ROOT
ATOM      1  C   UNL     1       0.358  11.305  20.091  0.00  0.00    +0.000 A 
ATOM      2  C   UNL     1       0.652  10.567  21.240  0.00  0.00    +0.000 A 
ATOM      3  C   UNL     1       1.178   9.282  21.151  0.00  0.00    +0.000 A 
ATOM      4  C   UNL     1       1.372   8.687  19.905  0.00  0.00    +0.000 A 
ATOM      5  C   UNL     1       1.061   9.404  18.744  0.00  0.00    +0.000 A 
ATOM      6  C   UNL     1       0.544  10.706  18.841  0.00  0.00    +0.000 A 
ENDROOT
BRANCH   4   7
ATOM      7  C   UNL     1       1.953   7.320  19.819  0.00  0.00    +0.000 A 
ATOM      8  C   UNL     1       2.750   7.037  18.593  0.00  0.00    +0.000 A 
ATOM      9  C   UNL     1       3.176   5.787  18.342  0.00  0.00    +0.000 A 
ATOM     10  C   UNL     1       2.884   4.803  19.346  0.00  0.00    +0.000 A 
ATOM     11  N   UNL     1       3.158   3.510  19.422  0.00  0.00    +0.000 NA
ATOM     12  C   UNL     1       2.705   3.106  20.648  0.00  0.00    +0.000 A 
ATOM     13  C   UNL     1       2.122   4.148  21.322  0.00  0.00    +0.000 A 
ATOM     14  N   UNL     1       2.230   5.231  20.493  0.00  0.00    +0.000 N 
ATOM     15  N   UNL     1       1.735   6.468  20.772  0.00  0.00    +0.000 NA
BRANCH   9  16
ATOM     16  N   UNL     1       3.883   5.524  17.147  0.00  0.00    +0.000 N 
ATOM     17  C   UNL     1       4.131   4.116  16.729  0.00  0.00    +0.000 C 
ATOM     18  C   UNL     1       5.626   3.732  16.832  0.00  0.00    +0.000 C 
ATOM     19  C   UNL     1       6.399   4.086  15.551  0.00  0.00    +0.000 C 
ATOM     20  C   UNL     1       7.146   5.362  15.917  0.00  0.00    +0.000 C 
ATOM     21  C   UNL     1       6.396   5.825  17.154  0.00  0.00    +0.000 C 
ATOM     22  C   UNL     1       5.007   6.430  16.789  0.00  0.00    +0.000 C 
ATOM     23  O   UNL     1       6.254   4.562  17.838  0.00  0.00    +0.000 OA
ENDBRANCH   9  16
ENDBRANCH   4   7
BRANCH   1  26
ATOM     24  O   UNL     1       1.512  13.614  18.804  0.00  0.00    +0.000 OA
ATOM     25  C   UNL     1       0.513  13.712  19.506  0.00  0.00    +0.000 C 
ATOM     26  N   UNL     1      -0.098  12.642  20.147  0.00  0.00    +0.000 N 
ATOM     27  N   UNL     1      -0.156  14.901  19.729  0.00  0.00    +0.000 N 
ATOM     28  H   UNL     1      -1.037  12.782  20.486  0.00  0.00    +0.000 HD
ATOM     29  H   UNL     1      -0.895  14.892  20.415  0.00  0.00    +0.000 HD
BRANCH  27  30
ATOM     30  C   UNL     1       0.157  16.151  19.139  0.00  0.00    +0.000 A 
ATOM     31  C   UNL     1      -0.592  16.757  18.130  0.00  0.00    +0.000 A 
ATOM     32  C   UNL     1      -0.209  17.995  17.615  0.00  0.00    +0.000 A 
ATOM     33  C   UNL     1       0.923  18.596  18.131  0.00  0.00    +0.000 A 
ATOM     34  N   UNL     1       1.680  18.054  19.110  0.00  0.00    +0.000 NA
ATOM     35  C   UNL     1       1.277  16.848  19.584  0.00  0.00    +0.000 A 
ENDBRANCH  27  30
ENDBRANCH   1  26
TORSDOF 4
ENDMDL
MODEL 9
REMARK VINA RESULT:      -8.2      3.524     11.307
REMARK  Name = 
REMARK  4 active torsions:
REMARK  status: ('A' for Active; 'I' for Inactive)
REMARK    1  A    between atoms: N_3  and  C_4
REMARK    2  A    between atoms: C_7  and  C_8
REMARK    3  A    between atoms: C_10  and  N_11
REMARK    4  A    between atoms: N_27  and  C_28
REMARK                            x       y       z     vdW  Elec       q    Type
REMARK                         _______ _______ _______ _____ _____    ______ ____
ROOT
ATOM      1  C   UNL     1       1.516   9.788  18.072  0.00  0.00    +0.000 A 
ATOM      2  C   UNL     1       2.289  10.949  18.137  0.00  0.00    +0.000 A 
ATOM      3  C   UNL     1       1.744  12.148  18.584  0.00  0.00    +0.000 A 
ATOM      4  C   UNL     1       0.395  12.222  18.928  0.00  0.00    +0.000 A 
ATOM      5  C   UNL     1      -0.399  11.072  18.847  0.00  0.00    +0.000 A 
ATOM      6  C   UNL     1       0.160   9.862  18.408  0.00  0.00    +0.000 A 
ENDROOT
BRANCH   4   7
ATOM      7  C   UNL     1      -0.174  13.504  19.423  0.00  0.00    +0.000 A 
ATOM      8  C   UNL     1      -0.899  13.425  20.722  0.00  0.00    +0.000 A 
ATOM      9  C   UNL     1      -1.589  14.488  21.172  0.00  0.00    +0.000 A 
ATOM     10  C   UNL     1      -1.509  15.680  20.377  0.00  0.00    +0.000 A 
ATOM     11  N   UNL     1      -2.045  16.881  20.529  0.00  0.00    +0.000 NA
ATOM     12  C   UNL     1      -1.553  17.640  19.502  0.00  0.00    +0.000 A 
ATOM     13  C   UNL     1      -0.731  16.897  18.695  0.00  0.00    +0.000 A 
ATOM     14  N   UNL     1      -0.704  15.645  19.247  0.00  0.00    +0.000 N 
ATOM     15  N   UNL     1      -0.029  14.586  18.722  0.00  0.00    +0.000 NA
BRANCH   9  16
ATOM     16  N   UNL     1      -2.317  14.379  22.379  0.00  0.00    +0.000 N 
ATOM     17  C   UNL     1      -1.953  13.329  23.371  0.00  0.00    +0.000 C 
ATOM     18  C   UNL     1      -3.034  12.227  23.476  0.00  0.00    +0.000 C 
ATOM     19  C   UNL     1      -4.127  12.592  24.494  0.00  0.00    +0.000 C 
ATOM     20  C   UNL     1      -5.293  13.050  23.627  0.00  0.00    +0.000 C 
ATOM     21  C   UNL     1      -4.614  13.318  22.296  0.00  0.00    +0.000 C 
ATOM     22  C   UNL     1      -3.782  14.635  22.332  0.00  0.00    +0.000 C 
ATOM     23  O   UNL     1      -3.756  12.159  22.224  0.00  0.00    +0.000 OA
ENDBRANCH   9  16
ENDBRANCH   4   7
BRANCH   1  26
ATOM     24  O   UNL     1       2.283   7.618  19.811  0.00  0.00    +0.000 OA
ATOM     25  C   UNL     1       2.415   7.534  18.596  0.00  0.00    +0.000 C 
ATOM     26  N   UNL     1       2.060   8.536  17.702  0.00  0.00    +0.000 N 
ATOM     27  N   UNL     1       2.912   6.417  17.952  0.00  0.00    +0.000 N 
ATOM     28  H   UNL     1       1.975   8.279  16.731  0.00  0.00    +0.000 HD
ATOM     29  H   UNL     1       3.090   6.496  16.963  0.00  0.00    +0.000 HD
BRANCH  27  30
ATOM     30  C   UNL     1       3.270   5.194  18.573  0.00  0.00    +0.000 A 
ATOM     31  C   UNL     1       2.358   4.226  18.996  0.00  0.00    +0.000 A 
ATOM     32  C   UNL     1       2.806   3.048  19.591  0.00  0.00    +0.000 A 
ATOM     33  C   UNL     1       4.168   2.870  19.745  0.00  0.00    +0.000 A 
ATOM     34  N   UNL     1       5.091   3.772  19.350  0.00  0.00    +0.000 NA
ATOM     35  C   UNL     1       4.617   4.907  18.777  0.00  0.00    +0.000 A 
ENDBRANCH  27  30
ENDBRANCH   1  26
TORSDOF 4
ENDMDL
