MODEL 1
REMARK VINA RESULT:      -7.8      0.000      0.000
REMARK  Name = 
REMARK  11 active torsions:
REMARK  status: ('A' for Active; 'I' for Inactive)
REMARK    1  A    between atoms: C_1  and  O_2
REMARK    2  A    between atoms: O_2  and  C_3
REMARK    3  A    between atoms: C_8  and  C_9
REMARK    4  A    between atoms: C_11  and  C_12
REMARK    5  A    between atoms: N_14  and  C_15
REMARK    6  A    between atoms: C_15  and  C_16
REMARK    7  A    between atoms: C_15  and  C_20
REMARK    8  A    between atoms: C_16  and  C_17
REMARK    9  A    between atoms: C_17  and  O_19
REMARK   10  A    between atoms: C_29  and  O_30
REMARK   11  A    between atoms: O_30  and  C_31
REMARK                            x       y       z     vdW  Elec       q    Type
REMARK                         _______ _______ _______ _____ _____    ______ ____
ROOT
ATOM      1  C   UNL     1       1.525   8.477  20.386  0.00  0.00    +0.000 C 
ATOM      2  O   UNL     1       1.508   8.915  21.534  0.00  0.00    +0.000 OA
ATOM      3  N   UNL     1       1.124   9.209  19.289  0.00  0.00    +0.000 N 
ATOM      4  H   UNL     1       1.218   8.759  18.381  0.00  0.00    +0.000 HD
ENDROOT
BRANCH   1   7
ATOM      5  C   UNL     1       3.617   5.717  19.045  0.00  0.00    +0.000 A 
ATOM      6  N   UNL     1       3.090   6.971  19.249  0.00  0.00    +0.000 NA
ATOM      7  C   UNL     1       2.032   7.093  20.096  0.00  0.00    +0.000 A 
ATOM      8  C   UNL     1       1.429   6.017  20.726  0.00  0.00    +0.000 A 
ATOM      9  C   UNL     1       1.992   4.758  20.557  0.00  0.00    +0.000 A 
ATOM     10  C   UNL     1       3.126   4.598  19.752  0.00  0.00    +0.000 A 
BRANCH   5  16
ATOM     11  C   UNL     1       6.129   5.587  18.393  0.00  0.00    +0.000 A 
ATOM     12  C   UNL     1       7.116   5.550  17.390  0.00  0.00    +0.000 A 
ATOM     13  C   UNL     1       6.771   5.614  16.042  0.00  0.00    +0.000 A 
ATOM     14  C   UNL     1       5.434   5.692  15.690  0.00  0.00    +0.000 A 
ATOM     15  C   UNL     1       4.446   5.725  16.681  0.00  0.00    +0.000 A 
ATOM     16  C   UNL     1       4.752   5.685  18.064  0.00  0.00    +0.000 A 
BRANCH  11  18
ATOM     17  C   UNL     1       7.923   5.548  19.914  0.00  0.00    +0.000 C 
ATOM     18  O   UNL     1       6.514   5.411  19.706  0.00  0.00    +0.000 OA
ENDBRANCH  11  18
ENDBRANCH   5  16
BRANCH  10  19
ATOM     19  O   UNL     1       3.837   3.428  19.709  0.00  0.00    +0.000 OA
ATOM     20  C   UNL     1       3.198   2.280  19.167  0.00  0.00    +0.000 C 
ENDBRANCH  10  19
ENDBRANCH   1   7
BRANCH   3  21
ATOM     21  C   UNL     1       0.442  10.500  19.385  0.00  0.00    +0.000 C 
BRANCH  21  22
ATOM     22  C   UNL     1      -0.880  10.528  18.617  0.00  0.00    +0.000 A 
ATOM     23  C   UNL     1      -1.048   9.750  17.454  0.00  0.00    +0.000 A 
ATOM     24  C   UNL     1      -2.246   9.759  16.736  0.00  0.00    +0.000 A 
ATOM     25  C   UNL     1      -3.306  10.551  17.160  0.00  0.00    +0.000 A 
ATOM     26  C   UNL     1      -3.164  11.338  18.301  0.00  0.00    +0.000 A 
ATOM     27  C   UNL     1      -1.964  11.330  19.024  0.00  0.00    +0.000 A 
ATOM     28 CL   UNL     1      -1.887  12.362  20.411  0.00  0.00    +0.000 Cl
ENDBRANCH  21  22
BRANCH  21  29
ATOM     29  C   UNL     1       1.370  11.673  19.031  0.00  0.00    +0.000 C 
BRANCH  29  30
ATOM     30  C   UNL     1       1.819  12.481  20.223  0.00  0.00    +0.000 C 
ATOM     31  O   UNL     1       2.506  13.490  20.173  0.00  0.00    +0.000 OA
BRANCH  30  32
ATOM     32  O   UNL     1       1.441  11.932  21.402  0.00  0.00    +0.000 OA
ATOM     33  H   UNL     1       0.671  12.363  21.824  0.00  0.00    +0.000 HD
ENDBRANCH  30  32
ENDBRANCH  29  30
ENDBRANCH  21  29
ENDBRANCH   3  21
TORSDOF 9
ENDMDL
MODEL 2
REMARK VINA RESULT:      -7.8      0.963      1.174
REMARK  Name = 
REMARK  11 active torsions:
REMARK  status: ('A' for Active; 'I' for Inactive)
REMARK    1  A    between atoms: C_1  and  O_2
REMARK    2  A    between atoms: O_2  and  C_3
REMARK    3  A    between atoms: C_8  and  C_9
REMARK    4  A    between atoms: C_11  and  C_12
REMARK    5  A    between atoms: N_14  and  C_15
REMARK    6  A    between atoms: C_15  and  C_16
REMARK    7  A    between atoms: C_15  and  C_20
REMARK    8  A    between atoms: C_16  and  C_17
REMARK    9  A    between atoms: C_17  and  O_19
REMARK   10  A    between atoms: C_29  and  O_30
REMARK   11  A    between atoms: O_30  and  C_31
REMARK                            x       y       z     vdW  Elec       q    Type
REMARK                         _______ _______ _______ _____ _____    ______ ____
ROOT
ATOM      1  C   UNL     1       1.820   8.076  20.044  0.00  0.00    +0.000 C 
ATOM      2  O   UNL     1       1.562   8.515  21.162  0.00  0.00    +0.000 OA
ATOM      3  N   UNL     1       1.814   8.851  18.905  0.00  0.00    +0.000 N 
ATOM      4  H   UNL     1       2.082   8.390  18.037  0.00  0.00    +0.000 HD
ENDROOT
BRANCH   1   7
ATOM      5  C   UNL     1       3.639   5.056  18.876  0.00  0.00    +0.000 A 
ATOM      6  N   UNL     1       3.224   6.362  18.994  0.00  0.00    +0.000 NA
ATOM      7  C   UNL     1       2.202   6.636  19.850  0.00  0.00    +0.000 A 
ATOM      8  C   UNL     1       1.529   5.665  20.573  0.00  0.00    +0.000 A 
ATOM      9  C   UNL     1       1.982   4.353  20.489  0.00  0.00    +0.000 A 
ATOM     10  C   UNL     1       3.076   4.038  19.676  0.00  0.00    +0.000 A 
BRANCH   5  16
ATOM     11  C   UNL     1       6.131   4.907  18.156  0.00  0.00    +0.000 A 
ATOM     12  C   UNL     1       7.085   4.689  17.144  0.00  0.00    +0.000 A 
ATOM     13  C   UNL     1       6.692   4.419  15.834  0.00  0.00    +0.000 A 
ATOM     14  C   UNL     1       5.342   4.345  15.536  0.00  0.00    +0.000 A 
ATOM     15  C   UNL     1       4.387   4.556  16.538  0.00  0.00    +0.000 A 
ATOM     16  C   UNL     1       4.741   4.855  17.877  0.00  0.00    +0.000 A 
BRANCH  11  18
ATOM     17  C   UNL     1       7.823   5.743  19.559  0.00  0.00    +0.000 C 
ATOM     18  O   UNL     1       6.570   5.061  19.454  0.00  0.00    +0.000 OA
ENDBRANCH  11  18
ENDBRANCH   5  16
BRANCH  10  19
ATOM     19  O   UNL     1       3.687   2.812  19.708  0.00  0.00    +0.000 OA
ATOM     20  C   UNL     1       3.112   1.762  18.942  0.00  0.00    +0.000 C 
ENDBRANCH  10  19
ENDBRANCH   1   7
BRANCH   3  21
ATOM     21  C   UNL     1       1.303  10.221  18.863  0.00  0.00    +0.000 C 
BRANCH  21  22
ATOM     22  C   UNL     1      -0.189  10.285  18.532  0.00  0.00    +0.000 A 
ATOM     23  C   UNL     1      -0.679   9.740  17.328  0.00  0.00    +0.000 A 
ATOM     24  C   UNL     1      -2.036   9.786  17.005  0.00  0.00    +0.000 A 
ATOM     25  C   UNL     1      -2.940  10.384  17.875  0.00  0.00    +0.000 A 
ATOM     26  C   UNL     1      -2.482  10.941  19.067  0.00  0.00    +0.000 A 
ATOM     27  C   UNL     1      -1.120  10.895  19.395  0.00  0.00    +0.000 A 
ATOM     28 CL   UNL     1      -0.657  11.636  20.888  0.00  0.00    +0.000 Cl
ENDBRANCH  21  22
BRANCH  21  29
ATOM     29  C   UNL     1       2.159  11.132  17.968  0.00  0.00    +0.000 C 
BRANCH  29  30
ATOM     30  C   UNL     1       2.367  12.518  18.524  0.00  0.00    +0.000 C 
ATOM     31  O   UNL     1       2.165  12.851  19.682  0.00  0.00    +0.000 OA
BRANCH  30  32
ATOM     32  O   UNL     1       2.744  13.412  17.579  0.00  0.00    +0.000 OA
ATOM     33  H   UNL     1       2.852  14.328  17.904  0.00  0.00    +0.000 HD
ENDBRANCH  30  32
ENDBRANCH  29  30
ENDBRANCH  21  29
ENDBRANCH   3  21
TORSDOF 9
ENDMDL
MODEL 3
REMARK VINA RESULT:      -7.6      2.542      4.593
REMARK  Name = 
REMARK  11 active torsions:
REMARK  status: ('A' for Active; 'I' for Inactive)
REMARK    1  A    between atoms: C_1  and  O_2
REMARK    2  A    between atoms: O_2  and  C_3
REMARK    3  A    between atoms: C_8  and  C_9
REMARK    4  A    between atoms: C_11  and  C_12
REMARK    5  A    between atoms: N_14  and  C_15
REMARK    6  A    between atoms: C_15  and  C_16
REMARK    7  A    between atoms: C_15  and  C_20
REMARK    8  A    between atoms: C_16  and  C_17
REMARK    9  A    between atoms: C_17  and  O_19
REMARK   10  A    between atoms: C_29  and  O_30
REMARK   11  A    between atoms: O_30  and  C_31
REMARK                            x       y       z     vdW  Elec       q    Type
REMARK                         _______ _______ _______ _____ _____    ______ ____
ROOT
ATOM      1  C   UNL     1       1.908   9.295  17.862  0.00  0.00    +0.000 C 
ATOM      2  O   UNL     1       2.404  10.374  17.548  0.00  0.00    +0.000 OA
ATOM      3  N   UNL     1       0.568   9.126  18.134  0.00  0.00    +0.000 N 
ATOM      4  H   UNL     1       0.260   8.179  18.346  0.00  0.00    +0.000 HD
ENDROOT
BRANCH   1   7
ATOM      5  C   UNL     1       2.977   5.823  18.637  0.00  0.00    +0.000 A 
ATOM      6  N   UNL     1       2.256   6.995  18.636  0.00  0.00    +0.000 NA
ATOM      7  C   UNL     1       2.749   8.052  17.935  0.00  0.00    +0.000 A 
ATOM      8  C   UNL     1       3.958   8.025  17.261  0.00  0.00    +0.000 A 
ATOM      9  C   UNL     1       4.662   6.826  17.222  0.00  0.00    +0.000 A 
ATOM     10  C   UNL     1       4.155   5.694  17.870  0.00  0.00    +0.000 A 
BRANCH   5  16
ATOM     11  C   UNL     1       1.634   3.625  18.980  0.00  0.00    +0.000 A 
ATOM     12  C   UNL     1       1.118   2.650  19.853  0.00  0.00    +0.000 A 
ATOM     13  C   UNL     1       1.310   2.745  21.230  0.00  0.00    +0.000 A 
ATOM     14  C   UNL     1       2.039   3.807  21.738  0.00  0.00    +0.000 A 
ATOM     15  C   UNL     1       2.560   4.780  20.875  0.00  0.00    +0.000 A 
ATOM     16  C   UNL     1       2.370   4.735  19.473  0.00  0.00    +0.000 A 
BRANCH  11  18
ATOM     17  C   UNL     1       2.375   2.409  17.108  0.00  0.00    +0.000 C 
ATOM     18  O   UNL     1       1.511   3.428  17.621  0.00  0.00    +0.000 OA
ENDBRANCH  11  18
ENDBRANCH   5  16
BRANCH  10  19
ATOM     19  O   UNL     1       4.696   4.447  17.699  0.00  0.00    +0.000 OA
ATOM     20  C   UNL     1       5.687   4.284  16.693  0.00  0.00    +0.000 C 
ENDBRANCH  10  19
ENDBRANCH   1   7
BRANCH   3  21
ATOM     21  C   UNL     1      -0.372  10.238  18.284  0.00  0.00    +0.000 C 
BRANCH  21  22
ATOM     22  C   UNL     1      -0.427  10.776  19.715  0.00  0.00    +0.000 A 
ATOM     23  C   UNL     1      -0.505   9.890  20.809  0.00  0.00    +0.000 A 
ATOM     24  C   UNL     1      -0.557  10.358  22.124  0.00  0.00    +0.000 A 
ATOM     25  C   UNL     1      -0.536  11.723  22.379  0.00  0.00    +0.000 A 
ATOM     26  C   UNL     1      -0.470  12.621  21.316  0.00  0.00    +0.000 A 
ATOM     27  C   UNL     1      -0.417  12.155  19.996  0.00  0.00    +0.000 A 
ATOM     28 CL   UNL     1      -0.360  13.356  18.752  0.00  0.00    +0.000 Cl
ENDBRANCH  21  22
BRANCH  21  29
ATOM     29  C   UNL     1      -1.759   9.906  17.711  0.00  0.00    +0.000 C 
BRANCH  29  30
ATOM     30  C   UNL     1      -2.560  11.117  17.305  0.00  0.00    +0.000 C 
ATOM     31  O   UNL     1      -3.432  11.645  17.978  0.00  0.00    +0.000 OA
BRANCH  30  32
ATOM     32  O   UNL     1      -2.271  11.543  16.052  0.00  0.00    +0.000 OA
ATOM     33  H   UNL     1      -1.926  10.850  15.455  0.00  0.00    +0.000 HD
ENDBRANCH  30  32
ENDBRANCH  29  30
ENDBRANCH  21  29
ENDBRANCH   3  21
TORSDOF 9
ENDMDL
MODEL 4
REMARK VINA RESULT:      -7.6      1.263      1.475
REMARK  Name = 
REMARK  11 active torsions:
REMARK  status: ('A' for Active; 'I' for Inactive)
REMARK    1  A    between atoms: C_1  and  O_2
REMARK    2  A    between atoms: O_2  and  C_3
REMARK    3  A    between atoms: C_8  and  C_9
REMARK    4  A    between atoms: C_11  and  C_12
REMARK    5  A    between atoms: N_14  and  C_15
REMARK    6  A    between atoms: C_15  and  C_16
REMARK    7  A    between atoms: C_15  and  C_20
REMARK    8  A    between atoms: C_16  and  C_17
REMARK    9  A    between atoms: C_17  and  O_19
REMARK   10  A    between atoms: C_29  and  O_30
REMARK   11  A    between atoms: O_30  and  C_31
REMARK                            x       y       z     vdW  Elec       q    Type
REMARK                         _______ _______ _______ _____ _____    ______ ____
ROOT
ATOM      1  C   UNL     1       1.880   8.852  18.371  0.00  0.00    +0.000 C 
ATOM      2  O   UNL     1       2.174   9.506  17.374  0.00  0.00    +0.000 OA
ATOM      3  N   UNL     1       0.948   9.263  19.300  0.00  0.00    +0.000 N 
ATOM      4  H   UNL     1       0.755   8.622  20.068  0.00  0.00    +0.000 HD
ENDROOT
BRANCH   1   7
ATOM      5  C   UNL     1       4.101   5.895  18.026  0.00  0.00    +0.000 A 
ATOM      6  N   UNL     1       3.457   7.080  17.753  0.00  0.00    +0.000 NA
ATOM      7  C   UNL     1       2.509   7.512  18.628  0.00  0.00    +0.000 A 
ATOM      8  C   UNL     1       2.127   6.802  19.753  0.00  0.00    +0.000 A 
ATOM      9  C   UNL     1       2.812   5.630  20.054  0.00  0.00    +0.000 A 
ATOM     10  C   UNL     1       3.843   5.186  19.220  0.00  0.00    +0.000 A 
BRANCH   5  16
ATOM     11  C   UNL     1       6.444   5.923  16.904  0.00  0.00    +0.000 A 
ATOM     12  C   UNL     1       7.300   5.465  15.885  0.00  0.00    +0.000 A 
ATOM     13  C   UNL     1       6.849   4.571  14.916  0.00  0.00    +0.000 A 
ATOM     14  C   UNL     1       5.544   4.114  14.976  0.00  0.00    +0.000 A 
ATOM     15  C   UNL     1       4.686   4.561  15.989  0.00  0.00    +0.000 A 
ATOM     16  C   UNL     1       5.096   5.486  16.980  0.00  0.00    +0.000 A 
BRANCH  11  18
ATOM     17  C   UNL     1       7.761   6.003  18.851  0.00  0.00    +0.000 C 
ATOM     18  O   UNL     1       6.969   6.720  17.900  0.00  0.00    +0.000 OA
ENDBRANCH  11  18
ENDBRANCH   5  16
BRANCH  10  19
ATOM     19  O   UNL     1       4.679   4.159  19.569  0.00  0.00    +0.000 OA
ATOM     20  C   UNL     1       4.125   2.853  19.666  0.00  0.00    +0.000 C 
ENDBRANCH  10  19
ENDBRANCH   1   7
BRANCH   3  21
ATOM     21  C   UNL     1       0.362  10.603  19.318  0.00  0.00    +0.000 C 
BRANCH  21  22
ATOM     22  C   UNL     1      -0.989  10.666  18.604  0.00  0.00    +0.000 A 
ATOM     23  C   UNL     1      -1.243   9.851  17.482  0.00  0.00    +0.000 A 
ATOM     24  C   UNL     1      -2.468   9.891  16.813  0.00  0.00    +0.000 A 
ATOM     25  C   UNL     1      -3.471  10.751  17.246  0.00  0.00    +0.000 A 
ATOM     26  C   UNL     1      -3.243  11.575  18.345  0.00  0.00    +0.000 A 
ATOM     27  C   UNL     1      -2.014  11.537  19.019  0.00  0.00    +0.000 A 
ATOM     28 CL   UNL     1      -1.829  12.618  20.357  0.00  0.00    +0.000 Cl
ENDBRANCH  21  22
BRANCH  21  29
ATOM     29  C   UNL     1       1.351  11.675  18.834  0.00  0.00    +0.000 C 
BRANCH  29  30
ATOM     30  C   UNL     1       1.859  12.580  19.928  0.00  0.00    +0.000 C 
ATOM     31  O   UNL     1       1.548  12.505  21.107  0.00  0.00    +0.000 OA
BRANCH  30  32
ATOM     32  O   UNL     1       2.666  13.564  19.463  0.00  0.00    +0.000 OA
ATOM     33  H   UNL     1       3.330  13.272  18.808  0.00  0.00    +0.000 HD
ENDBRANCH  30  32
ENDBRANCH  29  30
ENDBRANCH  21  29
ENDBRANCH   3  21
TORSDOF 9
ENDMDL
MODEL 5
REMARK VINA RESULT:      -7.5      2.319      3.138
REMARK  Name = 
REMARK  11 active torsions:
REMARK  status: ('A' for Active; 'I' for Inactive)
REMARK    1  A    between atoms: C_1  and  O_2
REMARK    2  A    between atoms: O_2  and  C_3
REMARK    3  A    between atoms: C_8  and  C_9
REMARK    4  A    between atoms: C_11  and  C_12
REMARK    5  A    between atoms: N_14  and  C_15
REMARK    6  A    between atoms: C_15  and  C_16
REMARK    7  A    between atoms: C_15  and  C_20
REMARK    8  A    between atoms: C_16  and  C_17
REMARK    9  A    between atoms: C_17  and  O_19
REMARK   10  A    between atoms: C_29  and  O_30
REMARK   11  A    between atoms: O_30  and  C_31
REMARK                            x       y       z     vdW  Elec       q    Type
REMARK                         _______ _______ _______ _____ _____    ______ ____
ROOT
ATOM      1  C   UNL     1       1.877   8.961  18.137  0.00  0.00    +0.000 C 
ATOM      2  O   UNL     1       2.521   9.896  17.670  0.00  0.00    +0.000 OA
ATOM      3  N   UNL     1       0.522   9.020  18.383  0.00  0.00    +0.000 N 
ATOM      4  H   UNL     1       0.084   8.171  18.735  0.00  0.00    +0.000 HD
ENDROOT
BRANCH   1   7
ATOM      5  C   UNL     1       4.160   6.041  17.899  0.00  0.00    +0.000 A 
ATOM      6  N   UNL     1       3.488   7.199  17.581  0.00  0.00    +0.000 NA
ATOM      7  C   UNL     1       2.538   7.647  18.445  0.00  0.00    +0.000 A 
ATOM      8  C   UNL     1       2.179   6.977  19.603  0.00  0.00    +0.000 A 
ATOM      9  C   UNL     1       2.893   5.835  19.947  0.00  0.00    +0.000 A 
ATOM     10  C   UNL     1       3.928   5.378  19.123  0.00  0.00    +0.000 A 
BRANCH   5  16
ATOM     11  C   UNL     1       6.500   6.058  16.769  0.00  0.00    +0.000 A 
ATOM     12  C   UNL     1       7.358   5.577  15.762  0.00  0.00    +0.000 A 
ATOM     13  C   UNL     1       6.912   4.651  14.821  0.00  0.00    +0.000 A 
ATOM     14  C   UNL     1       5.611   4.183  14.898  0.00  0.00    +0.000 A 
ATOM     15  C   UNL     1       4.752   4.653  15.900  0.00  0.00    +0.000 A 
ATOM     16  C   UNL     1       5.156   5.611  16.862  0.00  0.00    +0.000 A 
BRANCH  11  18
ATOM     17  C   UNL     1       7.781   6.201  18.736  0.00  0.00    +0.000 C 
ATOM     18  O   UNL     1       7.020   6.889  17.739  0.00  0.00    +0.000 OA
ENDBRANCH  11  18
ENDBRANCH   5  16
BRANCH  10  19
ATOM     19  O   UNL     1       4.789   4.385  19.508  0.00  0.00    +0.000 OA
ATOM     20  C   UNL     1       4.268   3.070  19.648  0.00  0.00    +0.000 C 
ENDBRANCH  10  19
ENDBRANCH   1   7
BRANCH   3  21
ATOM     21  C   UNL     1      -0.258  10.256  18.313  0.00  0.00    +0.000 C 
BRANCH  21  22
ATOM     22  C   UNL     1      -0.297  11.006  19.646  0.00  0.00    +0.000 A 
ATOM     23  C   UNL     1      -0.677  10.341  20.829  0.00  0.00    +0.000 A 
ATOM     24  C   UNL     1      -0.721  11.004  22.057  0.00  0.00    +0.000 A 
ATOM     25  C   UNL     1      -0.390  12.352  22.133  0.00  0.00    +0.000 A 
ATOM     26  C   UNL     1      -0.021  13.036  20.977  0.00  0.00    +0.000 A 
ATOM     27  C   UNL     1       0.024  12.373  19.744  0.00  0.00    +0.000 A 
ATOM     28 CL   UNL     1       0.473  13.323  18.369  0.00  0.00    +0.000 Cl
ENDBRANCH  21  22
BRANCH  21  29
ATOM     29  C   UNL     1      -1.652  10.028  17.708  0.00  0.00    +0.000 C 
BRANCH  29  30
ATOM     30  C   UNL     1      -2.426  11.297  17.452  0.00  0.00    +0.000 C 
ATOM     31  O   UNL     1      -3.207  11.817  18.234  0.00  0.00    +0.000 OA
BRANCH  30  32
ATOM     32  O   UNL     1      -2.226  11.793  16.207  0.00  0.00    +0.000 OA
ATOM     33  H   UNL     1      -1.829  12.686  16.182  0.00  0.00    +0.000 HD
ENDBRANCH  30  32
ENDBRANCH  29  30
ENDBRANCH  21  29
ENDBRANCH   3  21
TORSDOF 9
ENDMDL
MODEL 6
REMARK VINA RESULT:      -7.5      2.416      3.351
REMARK  Name = 
REMARK  11 active torsions:
REMARK  status: ('A' for Active; 'I' for Inactive)
REMARK    1  A    between atoms: C_1  and  O_2
REMARK    2  A    between atoms: O_2  and  C_3
REMARK    3  A    between atoms: C_8  and  C_9
REMARK    4  A    between atoms: C_11  and  C_12
REMARK    5  A    between atoms: N_14  and  C_15
REMARK    6  A    between atoms: C_15  and  C_16
REMARK    7  A    between atoms: C_15  and  C_20
REMARK    8  A    between atoms: C_16  and  C_17
REMARK    9  A    between atoms: C_17  and  O_19
REMARK   10  A    between atoms: C_29  and  O_30
REMARK   11  A    between atoms: O_30  and  C_31
REMARK                            x       y       z     vdW  Elec       q    Type
REMARK                         _______ _______ _______ _____ _____    ______ ____
ROOT
ATOM      1  C   UNL     1       1.818   9.039  17.968  0.00  0.00    +0.000 C 
ATOM      2  O   UNL     1       2.453   9.949  17.443  0.00  0.00    +0.000 OA
ATOM      3  N   UNL     1       0.464   9.103  18.217  0.00  0.00    +0.000 N 
ATOM      4  H   UNL     1       0.033   8.273  18.621  0.00  0.00    +0.000 HD
ENDROOT
BRANCH   1   7
ATOM      5  C   UNL     1       4.124   6.128  17.890  0.00  0.00    +0.000 A 
ATOM      6  N   UNL     1       3.443   7.261  17.509  0.00  0.00    +0.000 NA
ATOM      7  C   UNL     1       2.489   7.749  18.348  0.00  0.00    +0.000 A 
ATOM      8  C   UNL     1       2.137   7.142  19.541  0.00  0.00    +0.000 A 
ATOM      9  C   UNL     1       2.860   6.026  19.948  0.00  0.00    +0.000 A 
ATOM     10  C   UNL     1       3.898   5.532  19.150  0.00  0.00    +0.000 A 
BRANCH   5  16
ATOM     11  C   UNL     1       6.478   6.061  16.791  0.00  0.00    +0.000 A 
ATOM     12  C   UNL     1       7.337   5.536  15.808  0.00  0.00    +0.000 A 
ATOM     13  C   UNL     1       6.882   4.596  14.885  0.00  0.00    +0.000 A 
ATOM     14  C   UNL     1       5.569   4.161  14.957  0.00  0.00    +0.000 A 
ATOM     15  C   UNL     1       4.709   4.675  15.935  0.00  0.00    +0.000 A 
ATOM     16  C   UNL     1       5.123   5.648  16.878  0.00  0.00    +0.000 A 
BRANCH  11  18
ATOM     17  C   UNL     1       7.794   6.233  18.732  0.00  0.00    +0.000 C 
ATOM     18  O   UNL     1       7.005   6.905  17.746  0.00  0.00    +0.000 OA
ENDBRANCH  11  18
ENDBRANCH   5  16
BRANCH  10  19
ATOM     19  O   UNL     1       4.767   4.570  19.589  0.00  0.00    +0.000 OA
ATOM     20  C   UNL     1       4.353   3.212  19.507  0.00  0.00    +0.000 C 
ENDBRANCH  10  19
ENDBRANCH   1   7
BRANCH   3  21
ATOM     21  C   UNL     1      -0.325  10.328  18.080  0.00  0.00    +0.000 C 
BRANCH  21  22
ATOM     22  C   UNL     1      -0.067  11.326  19.210  0.00  0.00    +0.000 A 
ATOM     23  C   UNL     1       0.232  12.672  18.920  0.00  0.00    +0.000 A 
ATOM     24  C   UNL     1       0.470  13.602  19.934  0.00  0.00    +0.000 A 
ATOM     25  C   UNL     1       0.422  13.208  21.266  0.00  0.00    +0.000 A 
ATOM     26  C   UNL     1       0.139  11.881  21.581  0.00  0.00    +0.000 A 
ATOM     27  C   UNL     1      -0.102  10.946  20.566  0.00  0.00    +0.000 A 
ATOM     28 CL   UNL     1      -0.420   9.321  21.067  0.00  0.00    +0.000 Cl
ENDBRANCH  21  22
BRANCH  21  29
ATOM     29  C   UNL     1      -1.818  10.034  17.863  0.00  0.00    +0.000 C 
BRANCH  29  30
ATOM     30  C   UNL     1      -2.330  10.432  16.501  0.00  0.00    +0.000 C 
ATOM     31  O   UNL     1      -2.790   9.666  15.669  0.00  0.00    +0.000 OA
BRANCH  30  32
ATOM     32  O   UNL     1      -2.163  11.751  16.242  0.00  0.00    +0.000 OA
ATOM     33  H   UNL     1      -1.503  12.198  16.808  0.00  0.00    +0.000 HD
ENDBRANCH  30  32
ENDBRANCH  29  30
ENDBRANCH  21  29
ENDBRANCH   3  21
TORSDOF 9
ENDMDL
MODEL 7
REMARK VINA RESULT:      -7.4      2.386      3.192
REMARK  Name = 
REMARK  11 active torsions:
REMARK  status: ('A' for Active; 'I' for Inactive)
REMARK    1  A    between atoms: C_1  and  O_2
REMARK    2  A    between atoms: O_2  and  C_3
REMARK    3  A    between atoms: C_8  and  C_9
REMARK    4  A    between atoms: C_11  and  C_12
REMARK    5  A    between atoms: N_14  and  C_15
REMARK    6  A    between atoms: C_15  and  C_16
REMARK    7  A    between atoms: C_15  and  C_20
REMARK    8  A    between atoms: C_16  and  C_17
REMARK    9  A    between atoms: C_17  and  O_19
REMARK   10  A    between atoms: C_29  and  O_30
REMARK   11  A    between atoms: O_30  and  C_31
REMARK                            x       y       z     vdW  Elec       q    Type
REMARK                         _______ _______ _______ _____ _____    ______ ____
ROOT
ATOM      1  C   UNL     1       1.807   8.850  18.277  0.00  0.00    +0.000 C 
ATOM      2  O   UNL     1       2.206   9.572  17.368  0.00  0.00    +0.000 OA
ATOM      3  N   UNL     1       0.690   9.131  19.035  0.00  0.00    +0.000 N 
ATOM      4  H   UNL     1       0.428   8.441  19.736  0.00  0.00    +0.000 HD
ENDROOT
BRANCH   1   7
ATOM      5  C   UNL     1       4.156   5.981  18.059  0.00  0.00    +0.000 A 
ATOM      6  N   UNL     1       3.447   7.112  17.727  0.00  0.00    +0.000 NA
ATOM      7  C   UNL     1       2.508   7.562  18.603  0.00  0.00    +0.000 A 
ATOM      8  C   UNL     1       2.196   6.916  19.788  0.00  0.00    +0.000 A 
ATOM      9  C   UNL     1       2.947   5.802  20.145  0.00  0.00    +0.000 A 
ATOM     10  C   UNL     1       3.971   5.347  19.307  0.00  0.00    +0.000 A 
BRANCH   5  16
ATOM     11  C   UNL     1       6.507   5.906  16.956  0.00  0.00    +0.000 A 
ATOM     12  C   UNL     1       7.345   5.428  15.931  0.00  0.00    +0.000 A 
ATOM     13  C   UNL     1       6.852   4.590  14.933  0.00  0.00    +0.000 A 
ATOM     14  C   UNL     1       5.521   4.208  14.969  0.00  0.00    +0.000 A 
ATOM     15  C   UNL     1       4.682   4.674  15.988  0.00  0.00    +0.000 A 
ATOM     16  C   UNL     1       5.135   5.545  17.009  0.00  0.00    +0.000 A 
BRANCH  11  18
ATOM     17  C   UNL     1       7.644   7.878  17.546  0.00  0.00    +0.000 C 
ATOM     18  O   UNL     1       7.067   6.642  17.978  0.00  0.00    +0.000 OA
ENDBRANCH  11  18
ENDBRANCH   5  16
BRANCH  10  19
ATOM     19  O   UNL     1       4.867   4.387  19.697  0.00  0.00    +0.000 OA
ATOM     20  C   UNL     1       4.530   3.027  19.459  0.00  0.00    +0.000 C 
ENDBRANCH  10  19
ENDBRANCH   1   7
BRANCH   3  21
ATOM     21  C   UNL     1      -0.018  10.410  18.985  0.00  0.00    +0.000 C 
BRANCH  21  22
ATOM     22  C   UNL     1      -0.311  10.977  20.375  0.00  0.00    +0.000 A 
ATOM     23  C   UNL     1      -0.317  12.370  20.593  0.00  0.00    +0.000 A 
ATOM     24  C   UNL     1      -0.582  12.911  21.852  0.00  0.00    +0.000 A 
ATOM     25  C   UNL     1      -0.844  12.073  22.929  0.00  0.00    +0.000 A 
ATOM     26  C   UNL     1      -0.833  10.692  22.746  0.00  0.00    +0.000 A 
ATOM     27  C   UNL     1      -0.569  10.146  21.482  0.00  0.00    +0.000 A 
ATOM     28 CL   UNL     1      -0.558   8.419  21.371  0.00  0.00    +0.000 Cl
ENDBRANCH  21  22
BRANCH  21  29
ATOM     29  C   UNL     1      -1.261  10.351  18.083  0.00  0.00    +0.000 C 
BRANCH  29  30
ATOM     30  C   UNL     1      -1.993  11.663  17.960  0.00  0.00    +0.000 C 
ATOM     31  O   UNL     1      -3.112  11.890  18.394  0.00  0.00    +0.000 OA
BRANCH  30  32
ATOM     32  O   UNL     1      -1.308  12.582  17.238  0.00  0.00    +0.000 OA
ATOM     33  H   UNL     1      -1.789  12.931  16.461  0.00  0.00    +0.000 HD
ENDBRANCH  30  32
ENDBRANCH  29  30
ENDBRANCH  21  29
ENDBRANCH   3  21
TORSDOF 9
ENDMDL
MODEL 8
REMARK VINA RESULT:      -7.3      2.800      8.919
REMARK  Name = 
REMARK  11 active torsions:
REMARK  status: ('A' for Active; 'I' for Inactive)
REMARK    1  A    between atoms: C_1  and  O_2
REMARK    2  A    between atoms: O_2  and  C_3
REMARK    3  A    between atoms: C_8  and  C_9
REMARK    4  A    between atoms: C_11  and  C_12
REMARK    5  A    between atoms: N_14  and  C_15
REMARK    6  A    between atoms: C_15  and  C_16
REMARK    7  A    between atoms: C_15  and  C_20
REMARK    8  A    between atoms: C_16  and  C_17
REMARK    9  A    between atoms: C_17  and  O_19
REMARK   10  A    between atoms: C_29  and  O_30
REMARK   11  A    between atoms: O_30  and  C_31
REMARK                            x       y       z     vdW  Elec       q    Type
REMARK                         _______ _______ _______ _____ _____    ______ ____
ROOT
ATOM      1  C   UNL     1       2.303   6.860  19.132  0.00  0.00    +0.000 C 
ATOM      2  O   UNL     1       2.069   6.288  20.193  0.00  0.00    +0.000 OA
ATOM      3  N   UNL     1       2.880   6.237  18.046  0.00  0.00    +0.000 N 
ATOM      4  H   UNL     1       2.992   6.799  17.204  0.00  0.00    +0.000 HD
ENDROOT
BRANCH   1   7
ATOM      5  C   UNL     1       0.833  10.218  19.731  0.00  0.00    +0.000 A 
ATOM      6  N   UNL     1       1.109   8.875  19.854  0.00  0.00    +0.000 NA
ATOM      7  C   UNL     1       1.933   8.302  18.935  0.00  0.00    +0.000 A 
ATOM      8  C   UNL     1       2.471   8.987  17.858  0.00  0.00    +0.000 A 
ATOM      9  C   UNL     1       2.232  10.353  17.763  0.00  0.00    +0.000 A 
ATOM     10  C   UNL     1       1.449  10.998  18.728  0.00  0.00    +0.000 A 
BRANCH   5  16
ATOM     11  C   UNL     1      -1.205  11.620  20.524  0.00  0.00    +0.000 A 
ATOM     12  C   UNL     1      -2.047  12.042  21.570  0.00  0.00    +0.000 A 
ATOM     13  C   UNL     1      -1.834  11.614  22.879  0.00  0.00    +0.000 A 
ATOM     14  C   UNL     1      -0.790  10.743  23.144  0.00  0.00    +0.000 A 
ATOM     15  C   UNL     1       0.049  10.315  22.107  0.00  0.00    +0.000 A 
ATOM     16  C   UNL     1      -0.117  10.742  20.767  0.00  0.00    +0.000 A 
BRANCH  11  18
ATOM     17  C   UNL     1      -2.901  11.783  18.903  0.00  0.00    +0.000 C 
ATOM     18  O   UNL     1      -1.523  11.984  19.232  0.00  0.00    +0.000 OA
ENDBRANCH  11  18
ENDBRANCH   5  16
BRANCH  10  19
ATOM     19  O   UNL     1       1.346  12.361  18.798  0.00  0.00    +0.000 OA
ATOM     20  C   UNL     1       2.394  13.138  18.233  0.00  0.00    +0.000 C 
ENDBRANCH  10  19
ENDBRANCH   1   7
BRANCH   3  21
ATOM     21  C   UNL     1       3.465   4.898  18.100  0.00  0.00    +0.000 C 
BRANCH  21  22
ATOM     22  C   UNL     1       4.731   4.771  17.250  0.00  0.00    +0.000 A 
ATOM     23  C   UNL     1       4.645   4.411  15.890  0.00  0.00    +0.000 A 
ATOM     24  C   UNL     1       5.786   4.289  15.094  0.00  0.00    +0.000 A 
ATOM     25  C   UNL     1       7.043   4.519  15.639  0.00  0.00    +0.000 A 
ATOM     26  C   UNL     1       7.158   4.865  16.983  0.00  0.00    +0.000 A 
ATOM     27  C   UNL     1       6.015   4.989  17.784  0.00  0.00    +0.000 A 
ATOM     28 CL   UNL     1       6.273   5.401  19.445  0.00  0.00    +0.000 Cl
ENDBRANCH  21  22
BRANCH  21  29
ATOM     29  C   UNL     1       2.430   3.800  17.807  0.00  0.00    +0.000 C 
BRANCH  29  30
ATOM     30  C   UNL     1       2.437   2.668  18.802  0.00  0.00    +0.000 C 
ATOM     31  O   UNL     1       2.791   2.755  19.968  0.00  0.00    +0.000 OA
BRANCH  30  32
ATOM     32  O   UNL     1       2.070   1.484  18.255  0.00  0.00    +0.000 OA
ATOM     33  H   UNL     1       1.107   1.374  18.129  0.00  0.00    +0.000 HD
ENDBRANCH  30  32
ENDBRANCH  29  30
ENDBRANCH  21  29
ENDBRANCH   3  21
TORSDOF 9
ENDMDL
MODEL 9
REMARK VINA RESULT:      -7.3      2.918      9.036
REMARK  Name = 
REMARK  11 active torsions:
REMARK  status: ('A' for Active; 'I' for Inactive)
REMARK    1  A    between atoms: C_1  and  O_2
REMARK    2  A    between atoms: O_2  and  C_3
REMARK    3  A    between atoms: C_8  and  C_9
REMARK    4  A    between atoms: C_11  and  C_12
REMARK    5  A    between atoms: N_14  and  C_15
REMARK    6  A    between atoms: C_15  and  C_16
REMARK    7  A    between atoms: C_15  and  C_20
REMARK    8  A    between atoms: C_16  and  C_17
REMARK    9  A    between atoms: C_17  and  O_19
REMARK   10  A    between atoms: C_29  and  O_30
REMARK   11  A    between atoms: O_30  and  C_31
REMARK                            x       y       z     vdW  Elec       q    Type
REMARK                         _______ _______ _______ _____ _____    ______ ____
ROOT
ATOM      1  C   UNL     1       1.919   7.728  19.429  0.00  0.00    +0.000 C 
ATOM      2  O   UNL     1       1.743   7.225  20.535  0.00  0.00    +0.000 OA
ATOM      3  N   UNL     1       2.432   7.035  18.353  0.00  0.00    +0.000 N 
ATOM      4  H   UNL     1       2.498   7.543  17.473  0.00  0.00    +0.000 HD
ENDROOT
BRANCH   1   7
ATOM      5  C   UNL     1       0.315  11.059  19.788  0.00  0.00    +0.000 A 
ATOM      6  N   UNL     1       0.603   9.725  19.966  0.00  0.00    +0.000 NA
ATOM      7  C   UNL     1       1.544   9.158  19.164  0.00  0.00    +0.000 A 
ATOM      8  C   UNL     1       2.194   9.840  18.148  0.00  0.00    +0.000 A 
ATOM      9  C   UNL     1       1.938  11.198  18.001  0.00  0.00    +0.000 A 
ATOM     10  C   UNL     1       1.030  11.838  18.852  0.00  0.00    +0.000 A 
BRANCH   5  16
ATOM     11  C   UNL     1      -1.990  12.155  20.272  0.00  0.00    +0.000 A 
ATOM     12  C   UNL     1      -2.944  12.597  21.208  0.00  0.00    +0.000 A 
ATOM     13  C   UNL     1      -2.711  12.485  22.578  0.00  0.00    +0.000 A 
ATOM     14  C   UNL     1      -1.531  11.909  23.017  0.00  0.00    +0.000 A 
ATOM     15  C   UNL     1      -0.579  11.462  22.092  0.00  0.00    +0.000 A 
ATOM     16  C   UNL     1      -0.764  11.577  20.692  0.00  0.00    +0.000 A 
BRANCH  11  18
ATOM     17  C   UNL     1      -3.622  11.681  18.646  0.00  0.00    +0.000 C 
ATOM     18  O   UNL     1      -2.315  12.188  18.932  0.00  0.00    +0.000 OA
ENDBRANCH  11  18
ENDBRANCH   5  16
BRANCH  10  19
ATOM     19  O   UNL     1       0.890  13.200  18.885  0.00  0.00    +0.000 OA
ATOM     20  C   UNL     1       2.071  13.991  18.875  0.00  0.00    +0.000 C 
ENDBRANCH  10  19
ENDBRANCH   1   7
BRANCH   3  21
ATOM     21  C   UNL     1       3.013   5.697  18.458  0.00  0.00    +0.000 C 
BRANCH  21  22
ATOM     22  C   UNL     1       4.495   5.666  18.083  0.00  0.00    +0.000 A 
ATOM     23  C   UNL     1       5.049   6.679  17.274  0.00  0.00    +0.000 A 
ATOM     24  C   UNL     1       6.399   6.673  16.919  0.00  0.00    +0.000 A 
ATOM     25  C   UNL     1       7.231   5.650  17.357  0.00  0.00    +0.000 A 
ATOM     26  C   UNL     1       6.707   4.629  18.148  0.00  0.00    +0.000 A 
ATOM     27  C   UNL     1       5.353   4.633  18.508  0.00  0.00    +0.000 A 
ATOM     28 CL   UNL     1       4.803   3.307  19.473  0.00  0.00    +0.000 Cl
ENDBRANCH  21  22
BRANCH  21  29
ATOM     29  C   UNL     1       2.180   4.643  17.712  0.00  0.00    +0.000 C 
BRANCH  29  30
ATOM     30  C   UNL     1       1.357   3.759  18.615  0.00  0.00    +0.000 C 
ATOM     31  O   UNL     1       0.868   2.686  18.297  0.00  0.00    +0.000 OA
BRANCH  30  32
ATOM     32  O   UNL     1       1.138   4.311  19.832  0.00  0.00    +0.000 OA
ATOM     33  H   UNL     1       0.738   3.706  20.488  0.00  0.00    +0.000 HD
ENDBRANCH  30  32
ENDBRANCH  29  30
ENDBRANCH  21  29
ENDBRANCH   3  21
TORSDOF 9
ENDMDL
