MODEL 1
REMARK VINA RESULT:      -7.3      0.000      0.000
REMARK  Name = 
REMARK  15 active torsions:
REMARK  status: ('A' for Active; 'I' for Inactive)
REMARK    1  A    between atoms: C_1  and  C_2
REMARK    2  A    between atoms: C_2  and  C_3
REMARK    3  A    between atoms: C_3  and  C_4
REMARK    4  A    between atoms: C_4  and  S_5
REMARK    5  A    between atoms: S_5  and  N_8
REMARK    6  A    between atoms: N_8  and  C_9
REMARK    7  A    between atoms: C_9  and  C_10
REMARK    8  A    between atoms: C_9  and  C_29
REMARK    9  A    between atoms: C_10  and  C_11
REMARK   10  A    between atoms: C_11  and  C_12
REMARK   11  A    between atoms: C_17  and  C_18
REMARK   12  A    between atoms: C_18  and  C_19
REMARK   13  A    between atoms: C_19  and  C_20
REMARK   14  A    between atoms: C_20  and  C_21
REMARK   15  A    between atoms: C_29  and  O_31
REMARK                            x       y       z     vdW  Elec       q    Type
REMARK                         _______ _______ _______ _____ _____    ______ ____
ROOT
ATOM      1  C   UNL     1       2.226   6.415  19.790  0.00  0.00    +0.000 C 
ATOM      2  O   UNL     1       2.139   5.524  20.614  0.00  0.00    +0.000 OA
ATOM      3  N   UNL     1       1.964   7.769  20.067  0.00  0.00    +0.000 N 
ATOM      4  C   UNL     1       1.591   8.127  21.429  0.00  0.00    +0.000 C 
ATOM      5  C   UNL     1       0.155   8.628  21.436  0.00  0.00    +0.000 C 
ATOM      6  C   UNL     1      -0.014   9.849  20.516  0.00  0.00    +0.000 C 
ATOM      7  C   UNL     1       0.437   9.471  19.098  0.00  0.00    +0.000 C 
ATOM      8  C   UNL     1       1.842   8.863  19.086  0.00  0.00    +0.000 C 
ENDROOT
BRANCH   1   9
ATOM      9  C   UNL     1       2.731   6.158  18.387  0.00  0.00    +0.000 C 
BRANCH   9  10
ATOM     10  C   UNL     1       3.219   4.775  17.993  0.00  0.00    +0.000 C 
BRANCH  10  11
ATOM     11  C   UNL     1       4.746   4.766  17.779  0.00  0.00    +0.000 C 
BRANCH  11  12
ATOM     12  N   UNL     1       5.240   3.927  16.566  0.00  0.00    +0.000 NA
ATOM     13  H   UNL     1       5.728   3.109  16.952  0.00  0.00    +0.000 HD
BRANCH  12  14
ATOM     14  S   UNL     1       6.356   4.792  15.605  0.00  0.00    +0.000 S 
ATOM     15  O   UNL     1       7.577   4.832  16.374  0.00  0.00    +0.000 OA
ATOM     16  O   UNL     1       5.683   5.993  15.164  0.00  0.00    +0.000 OA
BRANCH  14  17
ATOM     17  C   UNL     1       6.657   3.809  14.109  0.00  0.00    +0.000 C 
BRANCH  17  18
ATOM     18  C   UNL     1       5.378   3.940  13.261  0.00  0.00    +0.000 C 
BRANCH  18  20
ATOM     19  C   UNL     1       3.989   3.310  11.292  0.00  0.00    +0.000 C 
ATOM     20  C   UNL     1       5.367   3.184  11.941  0.00  0.00    +0.000 C 
ENDBRANCH  18  20
ENDBRANCH  17  18
ENDBRANCH  14  17
ENDBRANCH  12  14
ENDBRANCH  11  12
BRANCH  11  21
ATOM     21  C   UNL     1       5.455   4.189  19.031  0.00  0.00    +0.000 C 
ATOM     22  O   UNL     1       5.082   3.199  19.634  0.00  0.00    +0.000 OA
BRANCH  21  23
ATOM     23  O   UNL     1       6.581   4.868  19.374  0.00  0.00    +0.000 OA
ATOM     24  H   UNL     1       7.370   4.524  18.901  0.00  0.00    +0.000 HD
ENDBRANCH  21  23
ENDBRANCH  11  21
ENDBRANCH  10  11
ENDBRANCH   9  10
ENDBRANCH   1   9
BRANCH   6  25
ATOM     25  C   UNL     1       0.732  11.106  21.028  0.00  0.00    +0.000 C 
BRANCH  25  26
ATOM     26  C   UNL     1      -0.188  12.121  21.733  0.00  0.00    +0.000 C 
BRANCH  26  27
ATOM     27  C   UNL     1      -1.624  11.946  21.255  0.00  0.00    +0.000 C 
BRANCH  27  28
ATOM     28  C   UNL     1      -2.167  13.000  20.281  0.00  0.00    +0.000 C 
ATOM     29  C   UNL     1      -3.144  12.286  19.328  0.00  0.00    +0.000 C 
ATOM     30  C   UNL     1      -2.415  11.516  18.224  0.00  0.00    +0.000 C 
ATOM     31  N   UNL     1      -1.577  12.416  17.433  0.00  0.00    +0.000 NA
ATOM     32  C   UNL     1      -0.542  13.023  18.270  0.00  0.00    +0.000 C 
ATOM     33  C   UNL     1      -1.127  13.787  19.461  0.00  0.00    +0.000 C 
ATOM     34  H   UNL     1      -2.167  13.152  17.044  0.00  0.00    +0.000 HD
ENDBRANCH  27  28
ENDBRANCH  26  27
ENDBRANCH  25  26
ENDBRANCH   6  25
TORSDOF 14
ENDMDL
MODEL 2
REMARK VINA RESULT:      -7.0      3.854      9.264
REMARK  Name = 
REMARK  15 active torsions:
REMARK  status: ('A' for Active; 'I' for Inactive)
REMARK    1  A    between atoms: C_1  and  C_2
REMARK    2  A    between atoms: C_2  and  C_3
REMARK    3  A    between atoms: C_3  and  C_4
REMARK    4  A    between atoms: C_4  and  S_5
REMARK    5  A    between atoms: S_5  and  N_8
REMARK    6  A    between atoms: N_8  and  C_9
REMARK    7  A    between atoms: C_9  and  C_10
REMARK    8  A    between atoms: C_9  and  C_29
REMARK    9  A    between atoms: C_10  and  C_11
REMARK   10  A    between atoms: C_11  and  C_12
REMARK   11  A    between atoms: C_17  and  C_18
REMARK   12  A    between atoms: C_18  and  C_19
REMARK   13  A    between atoms: C_19  and  C_20
REMARK   14  A    between atoms: C_20  and  C_21
REMARK   15  A    between atoms: C_29  and  O_31
REMARK                            x       y       z     vdW  Elec       q    Type
REMARK                         _______ _______ _______ _____ _____    ______ ____
ROOT
ATOM      1  C   UNL     1       1.713   7.786  19.966  0.00  0.00    +0.000 C 
ATOM      2  O   UNL     1       1.791   8.641  19.104  0.00  0.00    +0.000 OA
ATOM      3  N   UNL     1       2.180   6.468  19.809  0.00  0.00    +0.000 N 
ATOM      4  C   UNL     1       2.817   6.117  18.546  0.00  0.00    +0.000 C 
ATOM      5  C   UNL     1       1.952   5.095  17.821  0.00  0.00    +0.000 C 
ATOM      6  C   UNL     1       1.755   3.829  18.672  0.00  0.00    +0.000 C 
ATOM      7  C   UNL     1       1.137   4.225  20.020  0.00  0.00    +0.000 C 
ATOM      8  C   UNL     1       1.935   5.331  20.714  0.00  0.00    +0.000 C 
ENDROOT
BRANCH   1   9
ATOM      9  C   UNL     1       1.187   8.093  21.351  0.00  0.00    +0.000 C 
BRANCH   9  10
ATOM     10  C   UNL     1       1.448   9.450  21.982  0.00  0.00    +0.000 C 
BRANCH  10  11
ATOM     11  C   UNL     1       0.233  10.384  21.809  0.00  0.00    +0.000 C 
BRANCH  11  12
ATOM     12  N   UNL     1       0.579  11.873  21.521  0.00  0.00    +0.000 NA
ATOM     13  H   UNL     1       0.274  12.411  22.342  0.00  0.00    +0.000 HD
BRANCH  12  14
ATOM     14  S   UNL     1      -0.267  12.472  20.164  0.00  0.00    +0.000 S 
ATOM     15  O   UNL     1       0.737  12.692  19.150  0.00  0.00    +0.000 OA
ATOM     16  O   UNL     1      -1.126  13.532  20.641  0.00  0.00    +0.000 OA
BRANCH  14  17
ATOM     17  C   UNL     1      -1.373  11.151  19.592  0.00  0.00    +0.000 C 
BRANCH  17  18
ATOM     18  C   UNL     1      -1.469  11.321  18.064  0.00  0.00    +0.000 C 
BRANCH  18  20
ATOM     19  C   UNL     1      -3.192   9.840  17.044  0.00  0.00    +0.000 C 
ATOM     20  C   UNL     1      -1.694  10.050  17.259  0.00  0.00    +0.000 C 
ENDBRANCH  18  20
ENDBRANCH  17  18
ENDBRANCH  14  17
ENDBRANCH  12  14
ENDBRANCH  11  12
BRANCH  11  21
ATOM     21  C   UNL     1      -0.632  10.374  23.095  0.00  0.00    +0.000 C 
ATOM     22  O   UNL     1      -1.643  11.035  23.246  0.00  0.00    +0.000 OA
BRANCH  21  23
ATOM     23  O   UNL     1      -0.181   9.508  24.041  0.00  0.00    +0.000 OA
ATOM     24  H   UNL     1       0.770   9.655  24.243  0.00  0.00    +0.000 HD
ENDBRANCH  21  23
ENDBRANCH  11  21
ENDBRANCH  10  11
ENDBRANCH   9  10
ENDBRANCH   1   9
BRANCH   6  25
ATOM     25  C   UNL     1       3.059   3.016  18.867  0.00  0.00    +0.000 C 
BRANCH  25  26
ATOM     26  C   UNL     1       3.928   2.937  17.597  0.00  0.00    +0.000 C 
BRANCH  26  27
ATOM     27  C   UNL     1       5.246   3.669  17.817  0.00  0.00    +0.000 C 
BRANCH  27  28
ATOM     28  C   UNL     1       6.015   4.112  16.566  0.00  0.00    +0.000 C 
ATOM     29  C   UNL     1       7.336   4.748  17.038  0.00  0.00    +0.000 C 
ATOM     30  C   UNL     1       7.142   6.183  17.534  0.00  0.00    +0.000 C 
ATOM     31  N   UNL     1       6.581   7.023  16.477  0.00  0.00    +0.000 NA
ATOM     32  C   UNL     1       5.259   6.537  16.082  0.00  0.00    +0.000 C 
ATOM     33  C   UNL     1       5.288   5.080  15.613  0.00  0.00    +0.000 C 
ATOM     34  H   UNL     1       7.205   6.990  15.670  0.00  0.00    +0.000 HD
ENDBRANCH  27  28
ENDBRANCH  26  27
ENDBRANCH  25  26
ENDBRANCH   6  25
TORSDOF 14
ENDMDL
MODEL 3
REMARK VINA RESULT:      -6.8      3.880      9.484
REMARK  Name = 
REMARK  15 active torsions:
REMARK  status: ('A' for Active; 'I' for Inactive)
REMARK    1  A    between atoms: C_1  and  C_2
REMARK    2  A    between atoms: C_2  and  C_3
REMARK    3  A    between atoms: C_3  and  C_4
REMARK    4  A    between atoms: C_4  and  S_5
REMARK    5  A    between atoms: S_5  and  N_8
REMARK    6  A    between atoms: N_8  and  C_9
REMARK    7  A    between atoms: C_9  and  C_10
REMARK    8  A    between atoms: C_9  and  C_29
REMARK    9  A    between atoms: C_10  and  C_11
REMARK   10  A    between atoms: C_11  and  C_12
REMARK   11  A    between atoms: C_17  and  C_18
REMARK   12  A    between atoms: C_18  and  C_19
REMARK   13  A    between atoms: C_19  and  C_20
REMARK   14  A    between atoms: C_20  and  C_21
REMARK   15  A    between atoms: C_29  and  O_31
REMARK                            x       y       z     vdW  Elec       q    Type
REMARK                         _______ _______ _______ _____ _____    ______ ____
ROOT
ATOM      1  C   UNL     1       1.759   7.888  19.833  0.00  0.00    +0.000 C 
ATOM      2  O   UNL     1       1.804   8.701  18.929  0.00  0.00    +0.000 OA
ATOM      3  N   UNL     1       2.211   6.561  19.719  0.00  0.00    +0.000 N 
ATOM      4  C   UNL     1       2.791   6.145  18.448  0.00  0.00    +0.000 C 
ATOM      5  C   UNL     1       1.890   5.097  17.811  0.00  0.00    +0.000 C 
ATOM      6  C   UNL     1       1.722   3.874  18.728  0.00  0.00    +0.000 C 
ATOM      7  C   UNL     1       1.165   4.339  20.081  0.00  0.00    +0.000 C 
ATOM      8  C   UNL     1       1.999   5.471  20.687  0.00  0.00    +0.000 C 
ENDROOT
BRANCH   1   9
ATOM      9  C   UNL     1       1.294   8.265  21.223  0.00  0.00    +0.000 C 
BRANCH   9  10
ATOM     10  C   UNL     1      -0.164   8.612  21.472  0.00  0.00    +0.000 C 
BRANCH  10  11
ATOM     11  C   UNL     1      -0.371  10.140  21.509  0.00  0.00    +0.000 C 
BRANCH  11  12
ATOM     12  N   UNL     1       0.819  10.982  20.964  0.00  0.00    +0.000 NA
ATOM     13  H   UNL     1       1.134  11.582  21.737  0.00  0.00    +0.000 HD
BRANCH  12  14
ATOM     14  S   UNL     1       0.341  11.999  19.677  0.00  0.00    +0.000 S 
ATOM     15  O   UNL     1      -0.318  13.123  20.299  0.00  0.00    +0.000 OA
ATOM     16  O   UNL     1      -0.321  11.158  18.705  0.00  0.00    +0.000 OA
BRANCH  14  17
ATOM     17  C   UNL     1       1.854  12.598  18.873  0.00  0.00    +0.000 C 
BRANCH  17  18
ATOM     18  C   UNL     1       2.073  14.025  19.408  0.00  0.00    +0.000 C 
BRANCH  18  20
ATOM     19  C   UNL     1       2.768  14.733  21.692  0.00  0.00    +0.000 C 
ATOM     20  C   UNL     1       3.259  14.219  20.339  0.00  0.00    +0.000 C 
ENDBRANCH  18  20
ENDBRANCH  17  18
ENDBRANCH  14  17
ENDBRANCH  12  14
ENDBRANCH  11  12
BRANCH  11  21
ATOM     21  C   UNL     1      -0.609  10.608  22.967  0.00  0.00    +0.000 C 
ATOM     22  O   UNL     1      -1.142  11.660  23.271  0.00  0.00    +0.000 OA
BRANCH  21  23
ATOM     23  O   UNL     1      -0.208   9.701  23.897  0.00  0.00    +0.000 OA
ATOM     24  H   UNL     1      -0.522   8.796  23.679  0.00  0.00    +0.000 HD
ENDBRANCH  21  23
ENDBRANCH  11  21
ENDBRANCH  10  11
ENDBRANCH   9  10
ENDBRANCH   1   9
BRANCH   6  25
ATOM     25  C   UNL     1       3.030   3.062  18.907  0.00  0.00    +0.000 C 
BRANCH  25  26
ATOM     26  C   UNL     1       3.885   2.987  17.627  0.00  0.00    +0.000 C 
BRANCH  26  27
ATOM     27  C   UNL     1       5.217   3.694  17.845  0.00  0.00    +0.000 C 
BRANCH  27  28
ATOM     28  C   UNL     1       6.000   4.105  16.592  0.00  0.00    +0.000 C 
ATOM     29  C   UNL     1       7.379   4.612  17.057  0.00  0.00    +0.000 C 
ATOM     30  C   UNL     1       7.316   6.044  17.595  0.00  0.00    +0.000 C 
ATOM     31  N   UNL     1       6.812   6.959  16.571  0.00  0.00    +0.000 NA
ATOM     32  C   UNL     1       5.447   6.598  16.187  0.00  0.00    +0.000 C 
ATOM     33  C   UNL     1       5.344   5.158  15.678  0.00  0.00    +0.000 C 
ATOM     34  H   UNL     1       7.418   6.896  15.752  0.00  0.00    +0.000 HD
ENDBRANCH  27  28
ENDBRANCH  26  27
ENDBRANCH  25  26
ENDBRANCH   6  25
TORSDOF 14
ENDMDL
MODEL 4
REMARK VINA RESULT:      -6.8      2.431      3.340
REMARK  Name = 
REMARK  15 active torsions:
REMARK  status: ('A' for Active; 'I' for Inactive)
REMARK    1  A    between atoms: C_1  and  C_2
REMARK    2  A    between atoms: C_2  and  C_3
REMARK    3  A    between atoms: C_3  and  C_4
REMARK    4  A    between atoms: C_4  and  S_5
REMARK    5  A    between atoms: S_5  and  N_8
REMARK    6  A    between atoms: N_8  and  C_9
REMARK    7  A    between atoms: C_9  and  C_10
REMARK    8  A    between atoms: C_9  and  C_29
REMARK    9  A    between atoms: C_10  and  C_11
REMARK   10  A    between atoms: C_11  and  C_12
REMARK   11  A    between atoms: C_17  and  C_18
REMARK   12  A    between atoms: C_18  and  C_19
REMARK   13  A    between atoms: C_19  and  C_20
REMARK   14  A    between atoms: C_20  and  C_21
REMARK   15  A    between atoms: C_29  and  O_31
REMARK                            x       y       z     vdW  Elec       q    Type
REMARK                         _______ _______ _______ _____ _____    ______ ____
ROOT
ATOM      1  C   UNL     1       2.282   6.626  19.863  0.00  0.00    +0.000 C 
ATOM      2  O   UNL     1       2.150   5.708  20.651  0.00  0.00    +0.000 OA
ATOM      3  N   UNL     1       1.869   7.946  20.119  0.00  0.00    +0.000 N 
ATOM      4  C   UNL     1       1.269   8.233  21.415  0.00  0.00    +0.000 C 
ATOM      5  C   UNL     1      -0.190   8.615  21.214  0.00  0.00    +0.000 C 
ATOM      6  C   UNL     1      -0.324   9.844  20.298  0.00  0.00    +0.000 C 
ATOM      7  C   UNL     1       0.364   9.544  18.958  0.00  0.00    +0.000 C 
ATOM      8  C   UNL     1       1.801   9.053  19.148  0.00  0.00    +0.000 C 
ENDROOT
BRANCH   1   9
ATOM      9  C   UNL     1       3.010   6.451  18.547  0.00  0.00    +0.000 C 
BRANCH   9  10
ATOM     10  C   UNL     1       3.269   5.058  17.999  0.00  0.00    +0.000 C 
BRANCH  10  11
ATOM     11  C   UNL     1       4.580   4.475  18.565  0.00  0.00    +0.000 C 
BRANCH  11  12
ATOM     12  N   UNL     1       5.611   4.007  17.498  0.00  0.00    +0.000 NA
ATOM     13  H   UNL     1       5.822   3.023  17.703  0.00  0.00    +0.000 HD
BRANCH  12  14
ATOM     14  S   UNL     1       7.073   4.885  17.597  0.00  0.00    +0.000 S 
ATOM     15  O   UNL     1       7.828   4.511  16.425  0.00  0.00    +0.000 OA
ATOM     16  O   UNL     1       7.583   4.696  18.937  0.00  0.00    +0.000 OA
BRANCH  14  17
ATOM     17  C   UNL     1       6.654   6.647  17.466  0.00  0.00    +0.000 C 
BRANCH  17  18
ATOM     18  C   UNL     1       7.852   7.405  18.067  0.00  0.00    +0.000 C 
BRANCH  18  20
ATOM     19  C   UNL     1       8.785   9.631  18.683  0.00  0.00    +0.000 C 
ATOM     20  C   UNL     1       8.035   8.844  17.608  0.00  0.00    +0.000 C 
ENDBRANCH  18  20
ENDBRANCH  17  18
ENDBRANCH  14  17
ENDBRANCH  12  14
ENDBRANCH  11  12
BRANCH  11  21
ATOM     21  C   UNL     1       4.273   3.241  19.450  0.00  0.00    +0.000 C 
ATOM     22  O   UNL     1       5.122   2.496  19.905  0.00  0.00    +0.000 OA
BRANCH  21  23
ATOM     23  O   UNL     1       2.950   3.087  19.721  0.00  0.00    +0.000 OA
ATOM     24  H   UNL     1       2.501   2.543  19.038  0.00  0.00    +0.000 HD
ENDBRANCH  21  23
ENDBRANCH  11  21
ENDBRANCH  10  11
ENDBRANCH   9  10
ENDBRANCH   1   9
BRANCH   6  25
ATOM     25  C   UNL     1       0.230  11.143  20.936  0.00  0.00    +0.000 C 
BRANCH  25  26
ATOM     26  C   UNL     1      -0.503  12.415  20.469  0.00  0.00    +0.000 C 
BRANCH  26  27
ATOM     27  C   UNL     1      -1.993  12.135  20.313  0.00  0.00    +0.000 C 
BRANCH  27  28
ATOM     28  C   UNL     1      -2.648  12.562  18.994  0.00  0.00    +0.000 C 
ATOM     29  C   UNL     1      -4.163  12.682  19.250  0.00  0.00    +0.000 C 
ATOM     30  C   UNL     1      -4.858  11.318  19.255  0.00  0.00    +0.000 C 
ATOM     31  N   UNL     1      -4.661  10.634  17.978  0.00  0.00    +0.000 NA
ATOM     32  C   UNL     1      -3.240  10.376  17.747  0.00  0.00    +0.000 C 
ATOM     33  C   UNL     1      -2.401  11.656  17.772  0.00  0.00    +0.000 C 
ATOM     34  H   UNL     1      -5.019  11.230  17.231  0.00  0.00    +0.000 HD
ENDBRANCH  27  28
ENDBRANCH  26  27
ENDBRANCH  25  26
ENDBRANCH   6  25
TORSDOF 14
ENDMDL
MODEL 5
REMARK VINA RESULT:      -6.8      4.145      9.843
REMARK  Name = 
REMARK  15 active torsions:
REMARK  status: ('A' for Active; 'I' for Inactive)
REMARK    1  A    between atoms: C_1  and  C_2
REMARK    2  A    between atoms: C_2  and  C_3
REMARK    3  A    between atoms: C_3  and  C_4
REMARK    4  A    between atoms: C_4  and  S_5
REMARK    5  A    between atoms: S_5  and  N_8
REMARK    6  A    between atoms: N_8  and  C_9
REMARK    7  A    between atoms: C_9  and  C_10
REMARK    8  A    between atoms: C_9  and  C_29
REMARK    9  A    between atoms: C_10  and  C_11
REMARK   10  A    between atoms: C_11  and  C_12
REMARK   11  A    between atoms: C_17  and  C_18
REMARK   12  A    between atoms: C_18  and  C_19
REMARK   13  A    between atoms: C_19  and  C_20
REMARK   14  A    between atoms: C_20  and  C_21
REMARK   15  A    between atoms: C_29  and  O_31
REMARK                            x       y       z     vdW  Elec       q    Type
REMARK                         _______ _______ _______ _____ _____    ______ ____
ROOT
ATOM      1  C   UNL     1       1.591   9.054  18.460  0.00  0.00    +0.000 C 
ATOM      2  O   UNL     1       1.755   9.315  17.283  0.00  0.00    +0.000 OA
ATOM      3  N   UNL     1       2.133   7.922  19.096  0.00  0.00    +0.000 N 
ATOM      4  C   UNL     1       2.959   7.023  18.299  0.00  0.00    +0.000 C 
ATOM      5  C   UNL     1       2.253   5.681  18.172  0.00  0.00    +0.000 C 
ATOM      6  C   UNL     1       1.990   5.056  19.553  0.00  0.00    +0.000 C 
ATOM      7  C   UNL     1       1.168   6.040  20.397  0.00  0.00    +0.000 C 
ATOM      8  C   UNL     1       1.810   7.429  20.447  0.00  0.00    +0.000 C 
ENDROOT
BRANCH   1   9
ATOM      9  C   UNL     1       0.859   9.994  19.393  0.00  0.00    +0.000 C 
BRANCH   9  10
ATOM     10  C   UNL     1       0.343  11.328  18.881  0.00  0.00    +0.000 C 
BRANCH  10  11
ATOM     11  C   UNL     1      -1.190  11.301  18.712  0.00  0.00    +0.000 C 
BRANCH  11  12
ATOM     12  N   UNL     1      -1.715  11.840  17.350  0.00  0.00    +0.000 NA
ATOM     13  H   UNL     1      -2.145  12.754  17.541  0.00  0.00    +0.000 HD
BRANCH  12  14
ATOM     14  S   UNL     1      -2.919  10.826  16.687  0.00  0.00    +0.000 S 
ATOM     15  O   UNL     1      -2.919   9.639  17.509  0.00  0.00    +0.000 OA
ATOM     16  O   UNL     1      -2.684  10.777  15.262  0.00  0.00    +0.000 OA
BRANCH  14  17
ATOM     17  C   UNL     1      -4.513  11.668  16.903  0.00  0.00    +0.000 C 
BRANCH  17  18
ATOM     18  C   UNL     1      -5.074  11.160  18.243  0.00  0.00    +0.000 C 
BRANCH  18  20
ATOM     19  C   UNL     1      -6.938  10.215  19.598  0.00  0.00    +0.000 C 
ATOM     20  C   UNL     1      -6.578  10.940  18.302  0.00  0.00    +0.000 C 
ENDBRANCH  18  20
ENDBRANCH  17  18
ENDBRANCH  14  17
ENDBRANCH  12  14
ENDBRANCH  11  12
BRANCH  11  21
ATOM     21  C   UNL     1      -1.860  12.162  19.813  0.00  0.00    +0.000 C 
ATOM     22  O   UNL     1      -1.937  11.838  20.984  0.00  0.00    +0.000 OA
BRANCH  21  23
ATOM     23  O   UNL     1      -2.319  13.357  19.358  0.00  0.00    +0.000 OA
ATOM     24  H   UNL     1      -3.156  13.256  18.853  0.00  0.00    +0.000 HD
ENDBRANCH  21  23
ENDBRANCH  11  21
ENDBRANCH  10  11
ENDBRANCH   9  10
ENDBRANCH   1   9
BRANCH   6  25
ATOM     25  C   UNL     1       3.287   4.632  20.286  0.00  0.00    +0.000 C 
BRANCH  25  26
ATOM     26  C   UNL     1       4.296   3.905  19.376  0.00  0.00    +0.000 C 
BRANCH  26  27
ATOM     27  C   UNL     1       5.595   4.697  19.297  0.00  0.00    +0.000 C 
BRANCH  27  28
ATOM     28  C   UNL     1       6.417   4.561  18.009  0.00  0.00    +0.000 C 
ATOM     29  C   UNL     1       7.788   5.215  18.267  0.00  0.00    +0.000 C 
ATOM     30  C   UNL     1       7.727   6.742  18.170  0.00  0.00    +0.000 C 
ATOM     31  N   UNL     1       7.262   7.157  16.848  0.00  0.00    +0.000 NA
ATOM     32  C   UNL     1       5.904   6.671  16.605  0.00  0.00    +0.000 C 
ATOM     33  C   UNL     1       5.798   5.149  16.726  0.00  0.00    +0.000 C 
ATOM     34  H   UNL     1       7.889   6.766  16.144  0.00  0.00    +0.000 HD
ENDBRANCH  27  28
ENDBRANCH  26  27
ENDBRANCH  25  26
ENDBRANCH   6  25
TORSDOF 14
ENDMDL
MODEL 6
REMARK VINA RESULT:      -6.7      2.897      4.090
REMARK  Name = 
REMARK  15 active torsions:
REMARK  status: ('A' for Active; 'I' for Inactive)
REMARK    1  A    between atoms: C_1  and  C_2
REMARK    2  A    between atoms: C_2  and  C_3
REMARK    3  A    between atoms: C_3  and  C_4
REMARK    4  A    between atoms: C_4  and  S_5
REMARK    5  A    between atoms: S_5  and  N_8
REMARK    6  A    between atoms: N_8  and  C_9
REMARK    7  A    between atoms: C_9  and  C_10
REMARK    8  A    between atoms: C_9  and  C_29
REMARK    9  A    between atoms: C_10  and  C_11
REMARK   10  A    between atoms: C_11  and  C_12
REMARK   11  A    between atoms: C_17  and  C_18
REMARK   12  A    between atoms: C_18  and  C_19
REMARK   13  A    between atoms: C_19  and  C_20
REMARK   14  A    between atoms: C_20  and  C_21
REMARK   15  A    between atoms: C_29  and  O_31
REMARK                            x       y       z     vdW  Elec       q    Type
REMARK                         _______ _______ _______ _____ _____    ______ ____
ROOT
ATOM      1  C   UNL     1       2.224   6.428  19.507  0.00  0.00    +0.000 C 
ATOM      2  O   UNL     1       1.945   5.565  20.319  0.00  0.00    +0.000 OA
ATOM      3  N   UNL     1       2.041   7.805  19.730  0.00  0.00    +0.000 N 
ATOM      4  C   UNL     1       1.507   8.221  21.021  0.00  0.00    +0.000 C 
ATOM      5  C   UNL     1       0.132   8.838  20.815  0.00  0.00    +0.000 C 
ATOM      6  C   UNL     1       0.200  10.049  19.868  0.00  0.00    +0.000 C 
ATOM      7  C   UNL     1       0.817   9.604  18.534  0.00  0.00    +0.000 C 
ATOM      8  C   UNL     1       2.153   8.883  18.731  0.00  0.00    +0.000 C 
ENDROOT
BRANCH   1   9
ATOM      9  C   UNL     1       2.901   6.100  18.194  0.00  0.00    +0.000 C 
BRANCH   9  10
ATOM     10  C   UNL     1       3.068   4.653  17.763  0.00  0.00    +0.000 C 
BRANCH  10  11
ATOM     11  C   UNL     1       4.453   4.110  18.170  0.00  0.00    +0.000 C 
BRANCH  11  12
ATOM     12  N   UNL     1       5.422   3.814  16.989  0.00  0.00    +0.000 NA
ATOM     13  H   UNL     1       5.934   2.959  17.235  0.00  0.00    +0.000 HD
BRANCH  12  14
ATOM     14  S   UNL     1       6.566   5.065  16.777  0.00  0.00    +0.000 S 
ATOM     15  O   UNL     1       6.038   5.895  15.721  0.00  0.00    +0.000 OA
ATOM     16  O   UNL     1       7.863   4.432  16.686  0.00  0.00    +0.000 OA
BRANCH  14  17
ATOM     17  C   UNL     1       6.591   6.039  18.309  0.00  0.00    +0.000 C 
BRANCH  17  18
ATOM     18  C   UNL     1       7.871   6.892  18.239  0.00  0.00    +0.000 C 
BRANCH  18  20
ATOM     19  C   UNL     1       8.530   9.291  18.355  0.00  0.00    +0.000 C 
ATOM     20  C   UNL     1       7.739   8.249  17.565  0.00  0.00    +0.000 C 
ENDBRANCH  18  20
ENDBRANCH  17  18
ENDBRANCH  14  17
ENDBRANCH  12  14
ENDBRANCH  11  12
BRANCH  11  21
ATOM     21  C   UNL     1       4.293   2.780  18.950  0.00  0.00    +0.000 C 
ATOM     22  O   UNL     1       4.860   2.527  19.998  0.00  0.00    +0.000 OA
BRANCH  21  23
ATOM     23  O   UNL     1       3.407   1.923  18.377  0.00  0.00    +0.000 OA
ATOM     24  H   UNL     1       2.634   2.399  18.001  0.00  0.00    +0.000 HD
ENDBRANCH  21  23
ENDBRANCH  11  21
ENDBRANCH  10  11
ENDBRANCH   9  10
ENDBRANCH   1   9
BRANCH   6  25
ATOM     25  C   UNL     1       0.969  11.251  20.470  0.00  0.00    +0.000 C 
BRANCH  25  26
ATOM     26  C   UNL     1       1.097  12.444  19.502  0.00  0.00    +0.000 C 
BRANCH  26  27
ATOM     27  C   UNL     1       2.361  13.236  19.812  0.00  0.00    +0.000 C 
BRANCH  27  28
ATOM     28  C   UNL     1       2.224  14.762  19.897  0.00  0.00    +0.000 C 
ATOM     29  C   UNL     1       2.045  15.289  18.460  0.00  0.00    +0.000 C 
ATOM     30  C   UNL     1       3.373  15.363  17.703  0.00  0.00    +0.000 C 
ATOM     31  N   UNL     1       4.316  16.237  18.398  0.00  0.00    +0.000 NA
ATOM     32  C   UNL     1       4.624  15.707  19.726  0.00  0.00    +0.000 C 
ATOM     33  C   UNL     1       3.372  15.523  20.587  0.00  0.00    +0.000 C 
ATOM     34  H   UNL     1       3.893  17.161  18.496  0.00  0.00    +0.000 HD
ENDBRANCH  27  28
ENDBRANCH  26  27
ENDBRANCH  25  26
ENDBRANCH   6  25
TORSDOF 14
ENDMDL
MODEL 7
REMARK VINA RESULT:      -6.6      2.505      3.730
REMARK  Name = 
REMARK  15 active torsions:
REMARK  status: ('A' for Active; 'I' for Inactive)
REMARK    1  A    between atoms: C_1  and  C_2
REMARK    2  A    between atoms: C_2  and  C_3
REMARK    3  A    between atoms: C_3  and  C_4
REMARK    4  A    between atoms: C_4  and  S_5
REMARK    5  A    between atoms: S_5  and  N_8
REMARK    6  A    between atoms: N_8  and  C_9
REMARK    7  A    between atoms: C_9  and  C_10
REMARK    8  A    between atoms: C_9  and  C_29
REMARK    9  A    between atoms: C_10  and  C_11
REMARK   10  A    between atoms: C_11  and  C_12
REMARK   11  A    between atoms: C_17  and  C_18
REMARK   12  A    between atoms: C_18  and  C_19
REMARK   13  A    between atoms: C_19  and  C_20
REMARK   14  A    between atoms: C_20  and  C_21
REMARK   15  A    between atoms: C_29  and  O_31
REMARK                            x       y       z     vdW  Elec       q    Type
REMARK                         _______ _______ _______ _____ _____    ______ ____
ROOT
ATOM      1  C   UNL     1       2.016   7.180  19.603  0.00  0.00    +0.000 C 
ATOM      2  O   UNL     1       1.893   6.462  20.577  0.00  0.00    +0.000 OA
ATOM      3  N   UNL     1       1.682   8.547  19.587  0.00  0.00    +0.000 N 
ATOM      4  C   UNL     1       1.181   9.140  20.820  0.00  0.00    +0.000 C 
ATOM      5  C   UNL     1      -0.269   9.556  20.618  0.00  0.00    +0.000 C 
ATOM      6  C   UNL     1      -0.404  10.565  19.465  0.00  0.00    +0.000 C 
ATOM      7  C   UNL     1       0.180   9.945  18.188  0.00  0.00    +0.000 C 
ATOM      8  C   UNL     1       1.603   9.421  18.403  0.00  0.00    +0.000 C 
ENDROOT
BRANCH   1   9
ATOM      9  C   UNL     1       2.648   6.684  18.320  0.00  0.00    +0.000 C 
BRANCH   9  10
ATOM     10  C   UNL     1       2.652   5.200  17.996  0.00  0.00    +0.000 C 
BRANCH  10  11
ATOM     11  C   UNL     1       4.082   4.626  18.044  0.00  0.00    +0.000 C 
BRANCH  11  12
ATOM     12  N   UNL     1       4.502   3.789  16.802  0.00  0.00    +0.000 NA
ATOM     13  H   UNL     1       4.923   2.922  17.159  0.00  0.00    +0.000 HD
BRANCH  12  14
ATOM     14  S   UNL     1       5.680   4.593  15.862  0.00  0.00    +0.000 S 
ATOM     15  O   UNL     1       5.121   5.893  15.574  0.00  0.00    +0.000 OA
ATOM     16  O   UNL     1       6.077   3.676  14.817  0.00  0.00    +0.000 OA
BRANCH  14  17
ATOM     17  C   UNL     1       7.143   4.822  16.910  0.00  0.00    +0.000 C 
BRANCH  17  18
ATOM     18  C   UNL     1       7.288   6.343  17.096  0.00  0.00    +0.000 C 
BRANCH  18  20
ATOM     19  C   UNL     1       7.722   5.690  19.460  0.00  0.00    +0.000 C 
ATOM     20  C   UNL     1       7.863   6.806  18.426  0.00  0.00    +0.000 C 
ENDBRANCH  18  20
ENDBRANCH  17  18
ENDBRANCH  14  17
ENDBRANCH  12  14
ENDBRANCH  11  12
BRANCH  11  21
ATOM     21  C   UNL     1       4.240   3.696  19.274  0.00  0.00    +0.000 C 
ATOM     22  O   UNL     1       3.427   3.609  20.177  0.00  0.00    +0.000 OA
BRANCH  21  23
ATOM     23  O   UNL     1       5.363   2.932  19.232  0.00  0.00    +0.000 OA
ATOM     24  H   UNL     1       5.734   2.783  20.130  0.00  0.00    +0.000 HD
ENDBRANCH  21  23
ENDBRANCH  11  21
ENDBRANCH  10  11
ENDBRANCH   9  10
ENDBRANCH   1   9
BRANCH   6  25
ATOM     25  C   UNL     1       0.249  11.935  19.775  0.00  0.00    +0.000 C 
BRANCH  25  26
ATOM     26  C   UNL     1      -0.002  12.994  18.683  0.00  0.00    +0.000 C 
BRANCH  26  27
ATOM     27  C   UNL     1       1.122  14.022  18.683  0.00  0.00    +0.000 C 
BRANCH  27  28
ATOM     28  C   UNL     1       1.014  15.174  19.691  0.00  0.00    +0.000 C 
ATOM     29  C   UNL     1       0.502  16.409  18.925  0.00  0.00    +0.000 C 
ATOM     30  C   UNL     1       1.614  17.095  18.128  0.00  0.00    +0.000 C 
ATOM     31  N   UNL     1       2.698  17.520  19.012  0.00  0.00    +0.000 NA
ATOM     32  C   UNL     1       3.309  16.364  19.668  0.00  0.00    +0.000 C 
ATOM     33  C   UNL     1       2.295  15.540  20.465  0.00  0.00    +0.000 C 
ATOM     34  H   UNL     1       2.312  18.143  19.724  0.00  0.00    +0.000 HD
ENDBRANCH  27  28
ENDBRANCH  26  27
ENDBRANCH  25  26
ENDBRANCH   6  25
TORSDOF 14
ENDMDL
MODEL 8
REMARK VINA RESULT:      -6.6      2.674      3.849
REMARK  Name = 
REMARK  15 active torsions:
REMARK  status: ('A' for Active; 'I' for Inactive)
REMARK    1  A    between atoms: C_1  and  C_2
REMARK    2  A    between atoms: C_2  and  C_3
REMARK    3  A    between atoms: C_3  and  C_4
REMARK    4  A    between atoms: C_4  and  S_5
REMARK    5  A    between atoms: S_5  and  N_8
REMARK    6  A    between atoms: N_8  and  C_9
REMARK    7  A    between atoms: C_9  and  C_10
REMARK    8  A    between atoms: C_9  and  C_29
REMARK    9  A    between atoms: C_10  and  C_11
REMARK   10  A    between atoms: C_11  and  C_12
REMARK   11  A    between atoms: C_17  and  C_18
REMARK   12  A    between atoms: C_18  and  C_19
REMARK   13  A    between atoms: C_19  and  C_20
REMARK   14  A    between atoms: C_20  and  C_21
REMARK   15  A    between atoms: C_29  and  O_31
REMARK                            x       y       z     vdW  Elec       q    Type
REMARK                         _______ _______ _______ _____ _____    ______ ____
ROOT
ATOM      1  C   UNL     1       1.910   6.822  19.933  0.00  0.00    +0.000 C 
ATOM      2  O   UNL     1       1.654   6.140  20.907  0.00  0.00    +0.000 OA
ATOM      3  N   UNL     1       1.729   8.217  19.881  0.00  0.00    +0.000 N 
ATOM      4  C   UNL     1       1.227   8.883  21.075  0.00  0.00    +0.000 C 
ATOM      5  C   UNL     1      -0.155   9.450  20.784  0.00  0.00    +0.000 C 
ATOM      6  C   UNL     1      -0.113  10.447  19.613  0.00  0.00    +0.000 C 
ATOM      7  C   UNL     1       0.472   9.744  18.380  0.00  0.00    +0.000 C 
ATOM      8  C   UNL     1       1.814   9.073  18.684  0.00  0.00    +0.000 C 
ENDROOT
BRANCH   1   9
ATOM      9  C   UNL     1       2.556   6.237  18.695  0.00  0.00    +0.000 C 
BRANCH   9  10
ATOM     10  C   UNL     1       2.241   4.813  18.272  0.00  0.00    +0.000 C 
BRANCH  10  11
ATOM     11  C   UNL     1       3.532   3.982  18.120  0.00  0.00    +0.000 C 
BRANCH  11  12
ATOM     12  N   UNL     1       4.051   3.827  16.662  0.00  0.00    +0.000 NA
ATOM     13  H   UNL     1       3.998   2.827  16.434  0.00  0.00    +0.000 HD
BRANCH  12  14
ATOM     14  S   UNL     1       5.683   4.309  16.513  0.00  0.00    +0.000 S 
ATOM     15  O   UNL     1       6.182   3.625  15.344  0.00  0.00    +0.000 OA
ATOM     16  O   UNL     1       6.286   4.149  17.817  0.00  0.00    +0.000 OA
BRANCH  14  17
ATOM     17  C   UNL     1       5.690   6.093  16.175  0.00  0.00    +0.000 C 
BRANCH  17  18
ATOM     18  C   UNL     1       6.218   6.758  17.459  0.00  0.00    +0.000 C 
BRANCH  18  20
ATOM     19  C   UNL     1       7.783   8.677  17.730  0.00  0.00    +0.000 C 
ATOM     20  C   UNL     1       7.680   7.179  17.447  0.00  0.00    +0.000 C 
ENDBRANCH  18  20
ENDBRANCH  17  18
ENDBRANCH  14  17
ENDBRANCH  12  14
ENDBRANCH  11  12
BRANCH  11  21
ATOM     21  C   UNL     1       3.306   2.547  18.660  0.00  0.00    +0.000 C 
ATOM     22  O   UNL     1       2.235   1.969  18.643  0.00  0.00    +0.000 OA
BRANCH  21  23
ATOM     23  O   UNL     1       4.442   1.959  19.119  0.00  0.00    +0.000 OA
ATOM     24  H   UNL     1       5.103   2.626  19.410  0.00  0.00    +0.000 HD
ENDBRANCH  21  23
ENDBRANCH  11  21
ENDBRANCH  10  11
ENDBRANCH   9  10
ENDBRANCH   1   9
BRANCH   6  25
ATOM     25  C   UNL     1       0.668  11.744  19.944  0.00  0.00    +0.000 C 
BRANCH  25  26
ATOM     26  C   UNL     1       0.388  12.896  18.959  0.00  0.00    +0.000 C 
BRANCH  26  27
ATOM     27  C   UNL     1       1.668  13.284  18.230  0.00  0.00    +0.000 C 
BRANCH  27  28
ATOM     28  C   UNL     1       2.678  14.140  19.004  0.00  0.00    +0.000 C 
ATOM     29  C   UNL     1       1.907  15.328  19.610  0.00  0.00    +0.000 C 
ATOM     30  C   UNL     1       1.635  16.426  18.578  0.00  0.00    +0.000 C 
ATOM     31  N   UNL     1       2.888  16.930  18.018  0.00  0.00    +0.000 NA
ATOM     32  C   UNL     1       3.601  15.865  17.313  0.00  0.00    +0.000 C 
ATOM     33  C   UNL     1       3.894  14.662  18.213  0.00  0.00    +0.000 C 
ATOM     34  H   UNL     1       3.471  17.275  18.781  0.00  0.00    +0.000 HD
ENDBRANCH  27  28
ENDBRANCH  26  27
ENDBRANCH  25  26
ENDBRANCH   6  25
TORSDOF 14
ENDMDL
MODEL 9
REMARK VINA RESULT:      -6.6      2.810      3.557
REMARK  Name = 
REMARK  15 active torsions:
REMARK  status: ('A' for Active; 'I' for Inactive)
REMARK    1  A    between atoms: C_1  and  C_2
REMARK    2  A    between atoms: C_2  and  C_3
REMARK    3  A    between atoms: C_3  and  C_4
REMARK    4  A    between atoms: C_4  and  S_5
REMARK    5  A    between atoms: S_5  and  N_8
REMARK    6  A    between atoms: N_8  and  C_9
REMARK    7  A    between atoms: C_9  and  C_10
REMARK    8  A    between atoms: C_9  and  C_29
REMARK    9  A    between atoms: C_10  and  C_11
REMARK   10  A    between atoms: C_11  and  C_12
REMARK   11  A    between atoms: C_17  and  C_18
REMARK   12  A    between atoms: C_18  and  C_19
REMARK   13  A    between atoms: C_19  and  C_20
REMARK   14  A    between atoms: C_20  and  C_21
REMARK   15  A    between atoms: C_29  and  O_31
REMARK                            x       y       z     vdW  Elec       q    Type
REMARK                         _______ _______ _______ _____ _____    ______ ____
ROOT
ATOM      1  C   UNL     1       2.003   8.573  18.508  0.00  0.00    +0.000 C 
ATOM      2  O   UNL     1       2.407   8.926  17.416  0.00  0.00    +0.000 OA
ATOM      3  N   UNL     1       1.032   9.271  19.249  0.00  0.00    +0.000 N 
ATOM      4  C   UNL     1       0.459  10.474  18.659  0.00  0.00    +0.000 C 
ATOM      5  C   UNL     1       0.872  11.679  19.491  0.00  0.00    +0.000 C 
ATOM      6  C   UNL     1       0.398  11.540  20.948  0.00  0.00    +0.000 C 
ATOM      7  C   UNL     1       0.963  10.239  21.534  0.00  0.00    +0.000 C 
ATOM      8  C   UNL     1       0.650   9.028  20.652  0.00  0.00    +0.000 C 
ENDROOT
BRANCH   1   9
ATOM      9  C   UNL     1       2.443   7.270  19.140  0.00  0.00    +0.000 C 
BRANCH   9  10
ATOM     10  C   UNL     1       2.467   5.993  18.317  0.00  0.00    +0.000 C 
BRANCH  10  11
ATOM     11  C   UNL     1       3.912   5.498  18.105  0.00  0.00    +0.000 C 
BRANCH  11  12
ATOM     12  N   UNL     1       4.695   6.208  16.964  0.00  0.00    +0.000 NA
ATOM     13  H   UNL     1       4.472   5.706  16.096  0.00  0.00    +0.000 HD
BRANCH  12  14
ATOM     14  S   UNL     1       6.385   6.116  17.199  0.00  0.00    +0.000 S 
ATOM     15  O   UNL     1       6.561   5.692  18.568  0.00  0.00    +0.000 OA
ATOM     16  O   UNL     1       6.944   7.350  16.696  0.00  0.00    +0.000 OA
BRANCH  14  17
ATOM     17  C   UNL     1       7.010   4.803  16.112  0.00  0.00    +0.000 C 
BRANCH  17  18
ATOM     18  C   UNL     1       6.183   4.906  14.817  0.00  0.00    +0.000 C 
BRANCH  18  20
ATOM     19  C   UNL     1       5.932   3.495  12.781  0.00  0.00    +0.000 C 
ATOM     20  C   UNL     1       6.867   4.432  13.544  0.00  0.00    +0.000 C 
ENDBRANCH  18  20
ENDBRANCH  17  18
ENDBRANCH  14  17
ENDBRANCH  12  14
ENDBRANCH  11  12
BRANCH  11  21
ATOM     21  C   UNL     1       3.910   3.987  17.762  0.00  0.00    +0.000 C 
ATOM     22  O   UNL     1       3.231   3.484  16.884  0.00  0.00    +0.000 OA
BRANCH  21  23
ATOM     23  O   UNL     1       4.787   3.263  18.507  0.00  0.00    +0.000 OA
ATOM     24  H   UNL     1       4.349   2.496  18.938  0.00  0.00    +0.000 HD
ENDBRANCH  21  23
ENDBRANCH  11  21
ENDBRANCH  10  11
ENDBRANCH   9  10
ENDBRANCH   1   9
BRANCH   6  25
ATOM     25  C   UNL     1      -1.143  11.601  21.096  0.00  0.00    +0.000 C 
BRANCH  25  26
ATOM     26  C   UNL     1      -1.615  11.704  22.559  0.00  0.00    +0.000 C 
BRANCH  26  27
ATOM     27  C   UNL     1      -2.874  12.558  22.645  0.00  0.00    +0.000 C 
BRANCH  27  28
ATOM     28  C   UNL     1      -3.178  13.218  23.996  0.00  0.00    +0.000 C 
ATOM     29  C   UNL     1      -4.355  12.451  24.628  0.00  0.00    +0.000 C 
ATOM     30  C   UNL     1      -5.702  12.862  24.026  0.00  0.00    +0.000 C 
ATOM     31  N   UNL     1      -5.934  14.293  24.210  0.00  0.00    +0.000 NA
ATOM     32  C   UNL     1      -4.911  15.074  23.513  0.00  0.00    +0.000 C 
ATOM     33  C   UNL     1      -3.494  14.726  23.976  0.00  0.00    +0.000 C 
ATOM     34  H   UNL     1      -5.894  14.504  25.208  0.00  0.00    +0.000 HD
ENDBRANCH  27  28
ENDBRANCH  26  27
ENDBRANCH  25  26
ENDBRANCH   6  25
TORSDOF 14
ENDMDL
