MODEL 1
REMARK VINA RESULT:      -7.8      0.000      0.000
REMARK  Name = 
REMARK  7 active torsions:
REMARK  status: ('A' for Active; 'I' for Inactive)
REMARK    1  A    between atoms: C_1  and  O_2
REMARK    2  A    between atoms: O_2  and  C_3
REMARK    3  A    between atoms: C_7  and  C_8
REMARK    4  A    between atoms: N_10  and  C_11
REMARK    5  A    between atoms: C_14  and  C_15
REMARK    6  A    between atoms: C_26  and  O_27
REMARK    7  A    between atoms: O_27  and  C_28
REMARK                            x       y       z     vdW  Elec       q    Type
REMARK                         _______ _______ _______ _____ _____    ______ ____
ROOT
ATOM      1  C   UNL     1       8.205   8.583  18.183  0.00  0.00    +0.000 A 
ATOM      2  C   UNL     1       8.506   7.447  18.931  0.00  0.00    +0.000 A 
ATOM      3  C   UNL     1       7.651   6.346  18.931  0.00  0.00    +0.000 A 
ATOM      4  C   UNL     1       6.472   6.358  18.184  0.00  0.00    +0.000 A 
ATOM      5  C   UNL     1       6.174   7.488  17.414  0.00  0.00    +0.000 A 
ATOM      6  C   UNL     1       7.024   8.601  17.427  0.00  0.00    +0.000 A 
ENDROOT
BRANCH   4   7
ATOM      7  C   UNL     1       5.557   5.237  18.230  0.00  0.00    +0.000 A 
ATOM      8  C   UNL     1       4.531   5.025  17.335  0.00  0.00    +0.000 A 
ATOM      9  N   UNL     1       3.955   3.848  17.727  0.00  0.00    +0.000 N 
ATOM     10  C   UNL     1       2.893   3.162  17.163  0.00  0.00    +0.000 A 
ATOM     11  C   UNL     1       2.494   2.010  17.719  0.00  0.00    +0.000 A 
ATOM     12  C   UNL     1       3.268   1.596  18.926  0.00  0.00    +0.000 A 
ATOM     13  N   UNL     1       4.270   2.228  19.461  0.00  0.00    +0.000 NA
ATOM     14  C   UNL     1       4.642   3.391  18.845  0.00  0.00    +0.000 A 
ATOM     15  N   UNL     1       5.626   4.216  19.147  0.00  0.00    +0.000 NA
ENDBRANCH   4   7
BRANCH   1  18
ATOM     16  C   UNL     1       9.354  10.525  19.232  0.00  0.00    +0.000 C 
ATOM     17  O   UNL     1       8.988  10.355  20.391  0.00  0.00    +0.000 OA
ATOM     18  N   UNL     1       9.031   9.723  18.157  0.00  0.00    +0.000 N 
ATOM     19  H   UNL     1       9.521   9.919  17.288  0.00  0.00    +0.000 HD
BRANCH  16  24
ATOM     20  C   UNL     1      10.874  13.739  17.808  0.00  0.00    +0.000 A 
ATOM     21  C   UNL     1      12.040  13.790  18.591  0.00  0.00    +0.000 A 
ATOM     22  C   UNL     1      12.333  12.785  19.504  0.00  0.00    +0.000 A 
ATOM     23  C   UNL     1      11.440  11.739  19.667  0.00  0.00    +0.000 A 
ATOM     24  C   UNL     1      10.222  11.713  18.958  0.00  0.00    +0.000 A 
ATOM     25  C   UNL     1       9.913  12.732  18.028  0.00  0.00    +0.000 A 
BRANCH  20  27
ATOM     26  C   UNL     1      10.773  16.043  17.298  0.00  0.00    +0.000 C 
ATOM     27  O   UNL     1      10.663  14.692  16.844  0.00  0.00    +0.000 OA
ENDBRANCH  20  27
BRANCH  25  28
ATOM     28  O   UNL     1       8.690  12.611  17.418  0.00  0.00    +0.000 OA
ATOM     29  C   UNL     1       7.659  13.554  17.672  0.00  0.00    +0.000 C 
ENDBRANCH  25  28
ENDBRANCH  16  24
ENDBRANCH   1  18
TORSDOF 5
ENDMDL
MODEL 2
REMARK VINA RESULT:      -7.7      7.830      9.528
REMARK  Name = 
REMARK  7 active torsions:
REMARK  status: ('A' for Active; 'I' for Inactive)
REMARK    1  A    between atoms: C_1  and  O_2
REMARK    2  A    between atoms: O_2  and  C_3
REMARK    3  A    between atoms: C_7  and  C_8
REMARK    4  A    between atoms: N_10  and  C_11
REMARK    5  A    between atoms: C_14  and  C_15
REMARK    6  A    between atoms: C_26  and  O_27
REMARK    7  A    between atoms: O_27  and  C_28
REMARK                            x       y       z     vdW  Elec       q    Type
REMARK                         _______ _______ _______ _____ _____    ______ ____
ROOT
ATOM      1  C   UNL     1       0.639   9.245  19.666  0.00  0.00    +0.000 A 
ATOM      2  C   UNL     1       1.245   8.188  20.341  0.00  0.00    +0.000 A 
ATOM      3  C   UNL     1       2.230   7.417  19.724  0.00  0.00    +0.000 A 
ATOM      4  C   UNL     1       2.628   7.685  18.413  0.00  0.00    +0.000 A 
ATOM      5  C   UNL     1       2.038   8.759  17.735  0.00  0.00    +0.000 A 
ATOM      6  C   UNL     1       1.037   9.522  18.350  0.00  0.00    +0.000 A 
ENDROOT
BRANCH   4   7
ATOM      7  C   UNL     1       3.609   6.849  17.754  0.00  0.00    +0.000 A 
ATOM      8  C   UNL     1       3.500   5.485  17.601  0.00  0.00    +0.000 A 
ATOM      9  N   UNL     1       4.615   5.116  16.900  0.00  0.00    +0.000 N 
ATOM     10  C   UNL     1       4.997   3.859  16.458  0.00  0.00    +0.000 A 
ATOM     11  C   UNL     1       6.144   3.731  15.777  0.00  0.00    +0.000 A 
ATOM     12  C   UNL     1       6.898   5.002  15.576  0.00  0.00    +0.000 A 
ATOM     13  N   UNL     1       6.548   6.186  15.979  0.00  0.00    +0.000 NA
ATOM     14  C   UNL     1       5.363   6.261  16.659  0.00  0.00    +0.000 A 
ATOM     15  N   UNL     1       4.754   7.319  17.156  0.00  0.00    +0.000 NA
ENDBRANCH   4   7
BRANCH   1  18
ATOM     16  C   UNL     1      -0.168  11.142  21.058  0.00  0.00    +0.000 C 
ATOM     17  O   UNL     1       0.918  11.605  21.390  0.00  0.00    +0.000 OA
ATOM     18  N   UNL     1      -0.364  10.046  20.242  0.00  0.00    +0.000 N 
ATOM     19  H   UNL     1      -1.321   9.870  19.951  0.00  0.00    +0.000 HD
BRANCH  16  24
ATOM     20  C   UNL     1      -3.370  13.207  21.453  0.00  0.00    +0.000 A 
ATOM     21  C   UNL     1      -3.558  13.048  22.837  0.00  0.00    +0.000 A 
ATOM     22  C   UNL     1      -2.644  12.340  23.606  0.00  0.00    +0.000 A 
ATOM     23  C   UNL     1      -1.553  11.751  22.988  0.00  0.00    +0.000 A 
ATOM     24  C   UNL     1      -1.392  11.822  21.590  0.00  0.00    +0.000 A 
ATOM     25  C   UNL     1      -2.317  12.538  20.797  0.00  0.00    +0.000 A 
BRANCH  20  27
ATOM     26  C   UNL     1      -4.888  15.016  21.498  0.00  0.00    +0.000 C 
ATOM     27  O   UNL     1      -4.233  13.997  20.738  0.00  0.00    +0.000 OA
ENDBRANCH  20  27
BRANCH  25  28
ATOM     28  O   UNL     1      -2.067  12.515  19.449  0.00  0.00    +0.000 OA
ATOM     29  C   UNL     1      -2.875  11.739  18.577  0.00  0.00    +0.000 C 
ENDBRANCH  25  28
ENDBRANCH  16  24
ENDBRANCH   1  18
TORSDOF 5
ENDMDL
MODEL 3
REMARK VINA RESULT:      -7.7      6.823      9.387
REMARK  Name = 
REMARK  7 active torsions:
REMARK  status: ('A' for Active; 'I' for Inactive)
REMARK    1  A    between atoms: C_1  and  O_2
REMARK    2  A    between atoms: O_2  and  C_3
REMARK    3  A    between atoms: C_7  and  C_8
REMARK    4  A    between atoms: N_10  and  C_11
REMARK    5  A    between atoms: C_14  and  C_15
REMARK    6  A    between atoms: C_26  and  O_27
REMARK    7  A    between atoms: O_27  and  C_28
REMARK                            x       y       z     vdW  Elec       q    Type
REMARK                         _______ _______ _______ _____ _____    ______ ____
ROOT
ATOM      1  C   UNL     1       2.369   8.058  18.404  0.00  0.00    +0.000 A 
ATOM      2  C   UNL     1       1.986   7.796  19.718  0.00  0.00    +0.000 A 
ATOM      3  C   UNL     1       1.171   8.688  20.415  0.00  0.00    +0.000 A 
ATOM      4  C   UNL     1       0.724   9.865  19.812  0.00  0.00    +0.000 A 
ATOM      5  C   UNL     1       1.087  10.124  18.486  0.00  0.00    +0.000 A 
ATOM      6  C   UNL     1       1.919   9.236  17.791  0.00  0.00    +0.000 A 
ENDROOT
BRANCH   4   7
ATOM      7  C   UNL     1      -0.075  10.817  20.555  0.00  0.00    +0.000 A 
ATOM      8  C   UNL     1      -1.228  11.407  20.087  0.00  0.00    +0.000 A 
ATOM      9  N   UNL     1      -1.667  12.196  21.114  0.00  0.00    +0.000 N 
ATOM     10  C   UNL     1      -2.795  12.996  21.186  0.00  0.00    +0.000 A 
ATOM     11  C   UNL     1      -3.031  13.689  22.309  0.00  0.00    +0.000 A 
ATOM     12  C   UNL     1      -2.009  13.511  23.381  0.00  0.00    +0.000 A 
ATOM     13  N   UNL     1      -0.950  12.759  23.328  0.00  0.00    +0.000 NA
ATOM     14  C   UNL     1      -0.765  12.066  22.164  0.00  0.00    +0.000 A 
ATOM     15  N   UNL     1       0.193  11.219  21.842  0.00  0.00    +0.000 NA
ENDBRANCH   4   7
BRANCH   1  18
ATOM     16  C   UNL     1       4.018   6.210  18.171  0.00  0.00    +0.000 C 
ATOM     17  O   UNL     1       4.139   5.917  19.357  0.00  0.00    +0.000 OA
ATOM     18  N   UNL     1       3.196   7.194  17.662  0.00  0.00    +0.000 N 
ATOM     19  H   UNL     1       3.106   7.224  16.650  0.00  0.00    +0.000 HD
BRANCH  16  24
ATOM     20  C   UNL     1       6.581   5.136  15.534  0.00  0.00    +0.000 A 
ATOM     21  C   UNL     1       6.168   3.803  15.366  0.00  0.00    +0.000 A 
ATOM     22  C   UNL     1       5.067   3.303  16.049  0.00  0.00    +0.000 A 
ATOM     23  C   UNL     1       4.392   4.124  16.937  0.00  0.00    +0.000 A 
ATOM     24  C   UNL     1       4.842   5.436  17.190  0.00  0.00    +0.000 A 
ATOM     25  C   UNL     1       5.962   5.954  16.502  0.00  0.00    +0.000 A 
BRANCH  20  27
ATOM     26  C   UNL     1       7.633   5.162  13.420  0.00  0.00    +0.000 C 
ATOM     27  O   UNL     1       7.607   5.630  14.771  0.00  0.00    +0.000 OA
ENDBRANCH  20  27
BRANCH  25  28
ATOM     28  O   UNL     1       6.318   7.233  16.850  0.00  0.00    +0.000 OA
ATOM     29  C   UNL     1       7.517   7.479  17.569  0.00  0.00    +0.000 C 
ENDBRANCH  25  28
ENDBRANCH  16  24
ENDBRANCH   1  18
TORSDOF 5
ENDMDL
MODEL 4
REMARK VINA RESULT:      -7.5      6.802      9.334
REMARK  Name = 
REMARK  7 active torsions:
REMARK  status: ('A' for Active; 'I' for Inactive)
REMARK    1  A    between atoms: C_1  and  O_2
REMARK    2  A    between atoms: O_2  and  C_3
REMARK    3  A    between atoms: C_7  and  C_8
REMARK    4  A    between atoms: N_10  and  C_11
REMARK    5  A    between atoms: C_14  and  C_15
REMARK    6  A    between atoms: C_26  and  O_27
REMARK    7  A    between atoms: O_27  and  C_28
REMARK                            x       y       z     vdW  Elec       q    Type
REMARK                         _______ _______ _______ _____ _____    ______ ____
ROOT
ATOM      1  C   UNL     1       2.484   8.028  18.221  0.00  0.00    +0.000 A 
ATOM      2  C   UNL     1       2.010   9.230  17.700  0.00  0.00    +0.000 A 
ATOM      3  C   UNL     1       1.163  10.048  18.447  0.00  0.00    +0.000 A 
ATOM      4  C   UNL     1       0.767   9.678  19.733  0.00  0.00    +0.000 A 
ATOM      5  C   UNL     1       1.255   8.482  20.271  0.00  0.00    +0.000 A 
ATOM      6  C   UNL     1       2.093   7.653  19.514  0.00  0.00    +0.000 A 
ENDROOT
BRANCH   4   7
ATOM      7  C   UNL     1      -0.158  10.499  20.486  0.00  0.00    +0.000 A 
ATOM      8  C   UNL     1      -0.405  10.367  21.834  0.00  0.00    +0.000 A 
ATOM      9  N   UNL     1      -1.303  11.355  22.130  0.00  0.00    +0.000 N 
ATOM     10  C   UNL     1      -1.875  11.685  23.348  0.00  0.00    +0.000 A 
ATOM     11  C   UNL     1      -2.739  12.708  23.404  0.00  0.00    +0.000 A 
ATOM     12  C   UNL     1      -2.994  13.385  22.100  0.00  0.00    +0.000 A 
ATOM     13  N   UNL     1      -2.461  13.089  20.953  0.00  0.00    +0.000 NA
ATOM     14  C   UNL     1      -1.577  12.045  20.955  0.00  0.00    +0.000 A 
ATOM     15  N   UNL     1      -0.874  11.546  19.957  0.00  0.00    +0.000 NA
ENDBRANCH   4   7
BRANCH   1  18
ATOM     16  C   UNL     1       4.154   6.194  18.040  0.00  0.00    +0.000 C 
ATOM     17  O   UNL     1       4.251   5.912  19.230  0.00  0.00    +0.000 OA
ATOM     18  N   UNL     1       3.334   7.166  17.504  0.00  0.00    +0.000 N 
ATOM     19  H   UNL     1       3.266   7.186  16.490  0.00  0.00    +0.000 HD
BRANCH  16  24
ATOM     20  C   UNL     1       6.772   5.123  15.457  0.00  0.00    +0.000 A 
ATOM     21  C   UNL     1       6.386   3.779  15.306  0.00  0.00    +0.000 A 
ATOM     22  C   UNL     1       5.285   3.271  15.981  0.00  0.00    +0.000 A 
ATOM     23  C   UNL     1       4.583   4.094  16.846  0.00  0.00    +0.000 A 
ATOM     24  C   UNL     1       5.005   5.418  17.083  0.00  0.00    +0.000 A 
ATOM     25  C   UNL     1       6.126   5.945  16.402  0.00  0.00    +0.000 A 
BRANCH  20  27
ATOM     26  C   UNL     1       7.767   5.254  13.319  0.00  0.00    +0.000 C 
ATOM     27  O   UNL     1       7.801   5.622  14.700  0.00  0.00    +0.000 OA
ENDBRANCH  20  27
BRANCH  25  28
ATOM     28  O   UNL     1       6.453   7.236  16.733  0.00  0.00    +0.000 OA
ATOM     29  C   UNL     1       7.567   7.507  17.570  0.00  0.00    +0.000 C 
ENDBRANCH  25  28
ENDBRANCH  16  24
ENDBRANCH   1  18
TORSDOF 5
ENDMDL
MODEL 5
REMARK VINA RESULT:      -7.4      8.291     11.229
REMARK  Name = 
REMARK  7 active torsions:
REMARK  status: ('A' for Active; 'I' for Inactive)
REMARK    1  A    between atoms: C_1  and  O_2
REMARK    2  A    between atoms: O_2  and  C_3
REMARK    3  A    between atoms: C_7  and  C_8
REMARK    4  A    between atoms: N_10  and  C_11
REMARK    5  A    between atoms: C_14  and  C_15
REMARK    6  A    between atoms: C_26  and  O_27
REMARK    7  A    between atoms: O_27  and  C_28
REMARK                            x       y       z     vdW  Elec       q    Type
REMARK                         _______ _______ _______ _____ _____    ______ ____
ROOT
ATOM      1  C   UNL     1       1.284   8.836  20.747  0.00  0.00    +0.000 A 
ATOM      2  C   UNL     1       0.766   8.671  22.029  0.00  0.00    +0.000 A 
ATOM      3  C   UNL     1       0.025   9.684  22.636  0.00  0.00    +0.000 A 
ATOM      4  C   UNL     1      -0.212  10.889  21.973  0.00  0.00    +0.000 A 
ATOM      5  C   UNL     1       0.288  11.055  20.676  0.00  0.00    +0.000 A 
ATOM      6  C   UNL     1       1.047  10.043  20.073  0.00  0.00    +0.000 A 
ENDROOT
BRANCH   4   7
ATOM      7  C   UNL     1      -0.933  11.962  22.626  0.00  0.00    +0.000 A 
ATOM      8  C   UNL     1      -2.260  11.907  22.989  0.00  0.00    +0.000 A 
ATOM      9  N   UNL     1      -2.512  13.105  23.598  0.00  0.00    +0.000 N 
ATOM     10  C   UNL     1      -3.685  13.568  24.171  0.00  0.00    +0.000 A 
ATOM     11  C   UNL     1      -3.702  14.790  24.721  0.00  0.00    +0.000 A 
ATOM     12  C   UNL     1      -2.409  15.530  24.642  0.00  0.00    +0.000 A 
ATOM     13  N   UNL     1      -1.301  15.105  24.114  0.00  0.00    +0.000 NA
ATOM     14  C   UNL     1      -1.337  13.847  23.577  0.00  0.00    +0.000 A 
ATOM     15  N   UNL     1      -0.370  13.157  23.006  0.00  0.00    +0.000 NA
ENDBRANCH   4   7
BRANCH   1  18
ATOM     16  C   UNL     1       2.206   7.705  18.732  0.00  0.00    +0.000 C 
ATOM     17  O   UNL     1       1.728   8.438  17.871  0.00  0.00    +0.000 OA
ATOM     18  N   UNL     1       2.045   7.848  20.095  0.00  0.00    +0.000 N 
ATOM     19  H   UNL     1       2.613   7.241  20.679  0.00  0.00    +0.000 HD
BRANCH  16  24
ATOM     20  C   UNL     1       3.750   4.239  18.208  0.00  0.00    +0.000 A 
ATOM     21  C   UNL     1       4.752   4.589  17.286  0.00  0.00    +0.000 A 
ATOM     22  C   UNL     1       4.941   5.910  16.900  0.00  0.00    +0.000 A 
ATOM     23  C   UNL     1       4.100   6.888  17.406  0.00  0.00    +0.000 A 
ATOM     24  C   UNL     1       3.033   6.549  18.261  0.00  0.00    +0.000 A 
ATOM     25  C   UNL     1       2.830   5.208  18.659  0.00  0.00    +0.000 A 
BRANCH  20  27
ATOM     26  C   UNL     1       2.813   2.100  17.856  0.00  0.00    +0.000 C 
ATOM     27  O   UNL     1       3.654   2.944  18.646  0.00  0.00    +0.000 OA
ENDBRANCH  20  27
BRANCH  25  28
ATOM     28  O   UNL     1       1.746   5.000  19.473  0.00  0.00    +0.000 OA
ATOM     29  C   UNL     1       1.921   4.572  20.815  0.00  0.00    +0.000 C 
ENDBRANCH  25  28
ENDBRANCH  16  24
ENDBRANCH   1  18
TORSDOF 5
ENDMDL
MODEL 6
REMARK VINA RESULT:      -7.4      7.723      9.438
REMARK  Name = 
REMARK  7 active torsions:
REMARK  status: ('A' for Active; 'I' for Inactive)
REMARK    1  A    between atoms: C_1  and  O_2
REMARK    2  A    between atoms: O_2  and  C_3
REMARK    3  A    between atoms: C_7  and  C_8
REMARK    4  A    between atoms: N_10  and  C_11
REMARK    5  A    between atoms: C_14  and  C_15
REMARK    6  A    between atoms: C_26  and  O_27
REMARK    7  A    between atoms: O_27  and  C_28
REMARK                            x       y       z     vdW  Elec       q    Type
REMARK                         _______ _______ _______ _____ _____    ______ ____
ROOT
ATOM      1  C   UNL     1       0.718   9.262  19.659  0.00  0.00    +0.000 A 
ATOM      2  C   UNL     1       1.296   8.197  20.346  0.00  0.00    +0.000 A 
ATOM      3  C   UNL     1       2.265   7.399  19.740  0.00  0.00    +0.000 A 
ATOM      4  C   UNL     1       2.676   7.646  18.429  0.00  0.00    +0.000 A 
ATOM      5  C   UNL     1       2.114   8.727  17.739  0.00  0.00    +0.000 A 
ATOM      6  C   UNL     1       1.128   9.519  18.342  0.00  0.00    +0.000 A 
ENDROOT
BRANCH   4   7
ATOM      7  C   UNL     1       3.640   6.782  17.782  0.00  0.00    +0.000 A 
ATOM      8  C   UNL     1       4.898   7.173  17.381  0.00  0.00    +0.000 A 
ATOM      9  N   UNL     1       5.471   6.047  16.858  0.00  0.00    +0.000 N 
ATOM     10  C   UNL     1       6.739   5.873  16.327  0.00  0.00    +0.000 A 
ATOM     11  C   UNL     1       7.092   4.664  15.871  0.00  0.00    +0.000 A 
ATOM     12  C   UNL     1       6.037   3.616  15.989  0.00  0.00    +0.000 A 
ATOM     13  N   UNL     1       4.847   3.765  16.490  0.00  0.00    +0.000 NA
ATOM     14  C   UNL     1       4.544   5.016  16.951  0.00  0.00    +0.000 A 
ATOM     15  N   UNL     1       3.438   5.447  17.526  0.00  0.00    +0.000 NA
ENDBRANCH   4   7
BRANCH   1  18
ATOM     16  C   UNL     1      -0.051  11.196  21.020  0.00  0.00    +0.000 C 
ATOM     17  O   UNL     1       1.045  11.645  21.344  0.00  0.00    +0.000 OA
ATOM     18  N   UNL     1      -0.269  10.092  20.223  0.00  0.00    +0.000 N 
ATOM     19  H   UNL     1      -1.230   9.928  19.936  0.00  0.00    +0.000 HD
BRANCH  16  24
ATOM     20  C   UNL     1      -3.208  13.335  21.388  0.00  0.00    +0.000 A 
ATOM     21  C   UNL     1      -3.403  13.192  22.773  0.00  0.00    +0.000 A 
ATOM     22  C   UNL     1      -2.506  12.472  23.551  0.00  0.00    +0.000 A 
ATOM     23  C   UNL     1      -1.427  11.854  22.942  0.00  0.00    +0.000 A 
ATOM     24  C   UNL     1      -1.261  11.908  21.543  0.00  0.00    +0.000 A 
ATOM     25  C   UNL     1      -2.168  12.637  20.741  0.00  0.00    +0.000 A 
BRANCH  20  27
ATOM     26  C   UNL     1      -5.396  13.657  20.558  0.00  0.00    +0.000 C 
ATOM     27  O   UNL     1      -4.053  14.136  20.664  0.00  0.00    +0.000 OA
ENDBRANCH  20  27
BRANCH  25  28
ATOM     28  O   UNL     1      -1.916  12.595  19.394  0.00  0.00    +0.000 OA
ATOM     29  C   UNL     1      -2.750  11.844  18.525  0.00  0.00    +0.000 C 
ENDBRANCH  25  28
ENDBRANCH  16  24
ENDBRANCH   1  18
TORSDOF 5
ENDMDL
MODEL 7
REMARK VINA RESULT:      -7.4      7.996     11.068
REMARK  Name = 
REMARK  7 active torsions:
REMARK  status: ('A' for Active; 'I' for Inactive)
REMARK    1  A    between atoms: C_1  and  O_2
REMARK    2  A    between atoms: O_2  and  C_3
REMARK    3  A    between atoms: C_7  and  C_8
REMARK    4  A    between atoms: N_10  and  C_11
REMARK    5  A    between atoms: C_14  and  C_15
REMARK    6  A    between atoms: C_26  and  O_27
REMARK    7  A    between atoms: O_27  and  C_28
REMARK                            x       y       z     vdW  Elec       q    Type
REMARK                         _______ _______ _______ _____ _____    ______ ____
ROOT
ATOM      1  C   UNL     1       1.442   8.553  20.207  0.00  0.00    +0.000 A 
ATOM      2  C   UNL     1       0.905   9.641  19.523  0.00  0.00    +0.000 A 
ATOM      3  C   UNL     1       0.246  10.660  20.209  0.00  0.00    +0.000 A 
ATOM      4  C   UNL     1       0.106  10.611  21.597  0.00  0.00    +0.000 A 
ATOM      5  C   UNL     1       0.661   9.531  22.293  0.00  0.00    +0.000 A 
ATOM      6  C   UNL     1       1.309   8.499  21.602  0.00  0.00    +0.000 A 
ENDROOT
BRANCH   4   7
ATOM      7  C   UNL     1      -0.629  11.641  22.302  0.00  0.00    +0.000 A 
ATOM      8  C   UNL     1      -1.953  11.548  22.669  0.00  0.00    +0.000 A 
ATOM      9  N   UNL     1      -2.220  12.712  23.334  0.00  0.00    +0.000 N 
ATOM     10  C   UNL     1      -3.398  13.130  23.932  0.00  0.00    +0.000 A 
ATOM     11  C   UNL     1      -3.430  14.324  24.538  0.00  0.00    +0.000 A 
ATOM     12  C   UNL     1      -2.151  15.089  24.487  0.00  0.00    +0.000 A 
ATOM     13  N   UNL     1      -1.039  14.706  23.934  0.00  0.00    +0.000 NA
ATOM     14  C   UNL     1      -1.058  13.474  23.340  0.00  0.00    +0.000 A 
ATOM     15  N   UNL     1      -0.083  12.826  22.734  0.00  0.00    +0.000 NA
ENDBRANCH   4   7
BRANCH   1  18
ATOM     16  C   UNL     1       2.565   7.491  18.257  0.00  0.00    +0.000 C 
ATOM     17  O   UNL     1       2.481   8.422  17.463  0.00  0.00    +0.000 OA
ATOM     18  N   UNL     1       2.110   7.496  19.560  0.00  0.00    +0.000 N 
ATOM     19  H   UNL     1       2.374   6.698  20.130  0.00  0.00    +0.000 HD
BRANCH  16  24
ATOM     20  C   UNL     1       3.445   3.840  17.501  0.00  0.00    +0.000 A 
ATOM     21  C   UNL     1       4.656   4.049  16.818  0.00  0.00    +0.000 A 
ATOM     22  C   UNL     1       5.179   5.326  16.664  0.00  0.00    +0.000 A 
ATOM     23  C   UNL     1       4.474   6.410  17.160  0.00  0.00    +0.000 A 
ATOM     24  C   UNL     1       3.215   6.234  17.768  0.00  0.00    +0.000 A 
ATOM     25  C   UNL     1       2.671   4.939  17.928  0.00  0.00    +0.000 A 
BRANCH  20  27
ATOM     26  C   UNL     1       3.723   1.845  18.733  0.00  0.00    +0.000 C 
ATOM     27  O   UNL     1       3.005   2.561  17.726  0.00  0.00    +0.000 OA
ENDBRANCH  20  27
BRANCH  25  28
ATOM     28  O   UNL     1       1.431   4.897  18.513  0.00  0.00    +0.000 OA
ATOM     29  C   UNL     1       1.252   4.295  19.786  0.00  0.00    +0.000 C 
ENDBRANCH  25  28
ENDBRANCH  16  24
ENDBRANCH   1  18
TORSDOF 5
ENDMDL
MODEL 8
REMARK VINA RESULT:      -7.3      7.827      9.506
REMARK  Name = 
REMARK  7 active torsions:
REMARK  status: ('A' for Active; 'I' for Inactive)
REMARK    1  A    between atoms: C_1  and  O_2
REMARK    2  A    between atoms: O_2  and  C_3
REMARK    3  A    between atoms: C_7  and  C_8
REMARK    4  A    between atoms: N_10  and  C_11
REMARK    5  A    between atoms: C_14  and  C_15
REMARK    6  A    between atoms: C_26  and  O_27
REMARK    7  A    between atoms: O_27  and  C_28
REMARK                            x       y       z     vdW  Elec       q    Type
REMARK                         _______ _______ _______ _____ _____    ______ ____
ROOT
ATOM      1  C   UNL     1       0.604   9.543  19.557  0.00  0.00    +0.000 A 
ATOM      2  C   UNL     1       0.979   9.680  18.223  0.00  0.00    +0.000 A 
ATOM      3  C   UNL     1       1.906   8.811  17.649  0.00  0.00    +0.000 A 
ATOM      4  C   UNL     1       2.482   7.785  18.401  0.00  0.00    +0.000 A 
ATOM      5  C   UNL     1       2.094   7.629  19.737  0.00  0.00    +0.000 A 
ATOM      6  C   UNL     1       1.175   8.512  20.317  0.00  0.00    +0.000 A 
ENDROOT
BRANCH   4   7
ATOM      7  C   UNL     1       3.487   6.919  17.821  0.00  0.00    +0.000 A 
ATOM      8  C   UNL     1       3.367   5.553  17.696  0.00  0.00    +0.000 A 
ATOM      9  N   UNL     1       4.514   5.150  17.070  0.00  0.00    +0.000 N 
ATOM     10  C   UNL     1       4.902   3.878  16.683  0.00  0.00    +0.000 A 
ATOM     11  C   UNL     1       6.084   3.716  16.073  0.00  0.00    +0.000 A 
ATOM     12  C   UNL     1       6.868   4.971  15.884  0.00  0.00    +0.000 A 
ATOM     13  N   UNL     1       6.513   6.170  16.237  0.00  0.00    +0.000 NA
ATOM     14  C   UNL     1       5.292   6.279  16.845  0.00  0.00    +0.000 A 
ATOM     15  N   UNL     1       4.671   7.358  17.279  0.00  0.00    +0.000 NA
ENDBRANCH   4   7
BRANCH   1  18
ATOM     16  C   UNL     1      -0.023  11.521  20.931  0.00  0.00    +0.000 C 
ATOM     17  O   UNL     1       1.102  11.963  21.146  0.00  0.00    +0.000 OA
ATOM     18  N   UNL     1      -0.321  10.399  20.184  0.00  0.00    +0.000 N 
ATOM     19  H   UNL     1      -1.305  10.241  19.987  0.00  0.00    +0.000 HD
BRANCH  16  24
ATOM     20  C   UNL     1      -3.184  13.606  21.504  0.00  0.00    +0.000 A 
ATOM     21  C   UNL     1      -3.171  13.633  22.910  0.00  0.00    +0.000 A 
ATOM     22  C   UNL     1      -2.141  13.038  23.627  0.00  0.00    +0.000 A 
ATOM     23  C   UNL     1      -1.134  12.377  22.942  0.00  0.00    +0.000 A 
ATOM     24  C   UNL     1      -1.174  12.260  21.538  0.00  0.00    +0.000 A 
ATOM     25  C   UNL     1      -2.219  12.859  20.798  0.00  0.00    +0.000 A 
BRANCH  20  27
ATOM     26  C   UNL     1      -5.472  13.734  20.932  0.00  0.00    +0.000 C 
ATOM     27  O   UNL     1      -4.159  14.288  20.822  0.00  0.00    +0.000 OA
ENDBRANCH  20  27
BRANCH  25  28
ATOM     28  O   UNL     1      -2.162  12.657  19.443  0.00  0.00    +0.000 OA
ATOM     29  C   UNL     1      -3.086  11.791  18.802  0.00  0.00    +0.000 C 
ENDBRANCH  25  28
ENDBRANCH  16  24
ENDBRANCH   1  18
TORSDOF 5
ENDMDL
MODEL 9
REMARK VINA RESULT:      -7.3      8.082     11.168
REMARK  Name = 
REMARK  7 active torsions:
REMARK  status: ('A' for Active; 'I' for Inactive)
REMARK    1  A    between atoms: C_1  and  O_2
REMARK    2  A    between atoms: O_2  and  C_3
REMARK    3  A    between atoms: C_7  and  C_8
REMARK    4  A    between atoms: N_10  and  C_11
REMARK    5  A    between atoms: C_14  and  C_15
REMARK    6  A    between atoms: C_26  and  O_27
REMARK    7  A    between atoms: O_27  and  C_28
REMARK                            x       y       z     vdW  Elec       q    Type
REMARK                         _______ _______ _______ _____ _____    ______ ____
ROOT
ATOM      1  C   UNL     1       1.428   8.566  20.601  0.00  0.00    +0.000 A 
ATOM      2  C   UNL     1       0.934   9.627  19.846  0.00  0.00    +0.000 A 
ATOM      3  C   UNL     1       0.174  10.634  20.441  0.00  0.00    +0.000 A 
ATOM      4  C   UNL     1      -0.112  10.598  21.807  0.00  0.00    +0.000 A 
ATOM      5  C   UNL     1       0.399   9.546  22.576  0.00  0.00    +0.000 A 
ATOM      6  C   UNL     1       1.148   8.526  21.974  0.00  0.00    +0.000 A 
ENDROOT
BRANCH   4   7
ATOM      7  C   UNL     1      -0.948  11.613  22.414  0.00  0.00    +0.000 A 
ATOM      8  C   UNL     1      -0.736  12.969  22.308  0.00  0.00    +0.000 A 
ATOM      9  N   UNL     1      -1.770  13.545  22.993  0.00  0.00    +0.000 N 
ATOM     10  C   UNL     1      -2.054  14.887  23.186  0.00  0.00    +0.000 A 
ATOM     11  C   UNL     1      -3.138  15.226  23.897  0.00  0.00    +0.000 A 
ATOM     12  C   UNL     1      -3.931  14.075  24.418  0.00  0.00    +0.000 A 
ATOM     13  N   UNL     1      -3.679  12.813  24.239  0.00  0.00    +0.000 NA
ATOM     14  C   UNL     1      -2.567  12.524  23.495  0.00  0.00    +0.000 A 
ATOM     15  N   UNL     1      -2.088  11.350  23.135  0.00  0.00    +0.000 NA
ENDBRANCH   4   7
BRANCH   1  18
ATOM     16  C   UNL     1       2.397   7.284  18.702  0.00  0.00    +0.000 C 
ATOM     17  O   UNL     1       1.962   7.963  17.777  0.00  0.00    +0.000 OA
ATOM     18  N   UNL     1       2.193   7.523  20.045  0.00  0.00    +0.000 N 
ATOM     19  H   UNL     1       2.730   6.950  20.690  0.00  0.00    +0.000 HD
BRANCH  16  24
ATOM     20  C   UNL     1       4.058   3.833  18.618  0.00  0.00    +0.000 A 
ATOM     21  C   UNL     1       4.901   4.029  17.511  0.00  0.00    +0.000 A 
ATOM     22  C   UNL     1       4.956   5.254  16.860  0.00  0.00    +0.000 A 
ATOM     23  C   UNL     1       4.137   6.285  17.291  0.00  0.00    +0.000 A 
ATOM     24  C   UNL     1       3.219   6.085  18.341  0.00  0.00    +0.000 A 
ATOM     25  C   UNL     1       3.153   4.841  19.009  0.00  0.00    +0.000 A 
BRANCH  20  27
ATOM     26  C   UNL     1       3.578   1.521  18.590  0.00  0.00    +0.000 C 
ATOM     27  O   UNL     1       4.101   2.645  19.302  0.00  0.00    +0.000 OA
ENDBRANCH  20  27
BRANCH  25  28
ATOM     28  O   UNL     1       2.205   4.761  19.997  0.00  0.00    +0.000 OA
ATOM     29  C   UNL     1       1.028   3.991  19.808  0.00  0.00    +0.000 C 
ENDBRANCH  25  28
ENDBRANCH  16  24
ENDBRANCH   1  18
TORSDOF 5
ENDMDL
