MODEL 1
REMARK VINA RESULT:      -7.8      0.000      0.000
REMARK  Name = 
REMARK  9 active torsions:
REMARK  status: ('A' for Active; 'I' for Inactive)
REMARK    1  A    between atoms: N_4  and  O_5
REMARK    2  A    between atoms: O_5  and  C_6
REMARK    3  A    between atoms: C_6  and  C_7
REMARK    4  A    between atoms: C_7  and  N_8
REMARK    5  A    between atoms: C_9  and  C_11
REMARK    6  A    between atoms: C_11  and  C_12
REMARK    7  A    between atoms: C_17  and  N_18
REMARK    8  A    between atoms: N_18  and  S_19
REMARK    9  A    between atoms: S_19  and  C_22
REMARK                            x       y       z     vdW  Elec       q    Type
REMARK                         _______ _______ _______ _____ _____    ______ ____
ROOT
ATOM      1  C   UNL     1       3.157   4.040  19.451  0.00  0.00    +0.000 A 
ATOM      2  C   UNL     1       2.312   3.200  18.710  0.00  0.00    +0.000 A 
ATOM      3 CL   UNL     1       0.749   2.733  19.274  0.00  0.00    +0.000 Cl
ATOM      4  C   UNL     1       2.714   2.704  17.467  0.00  0.00    +0.000 A 
ATOM      5  C   UNL     1       3.963   3.034  16.942  0.00  0.00    +0.000 A 
ATOM      6  C   UNL     1       4.819   3.861  17.662  0.00  0.00    +0.000 A 
ATOM      7  C   UNL     1       4.414   4.357  18.908  0.00  0.00    +0.000 A 
ATOM      8  F   UNL     1       5.227   5.185  19.585  0.00  0.00    +0.000 F 
ENDROOT
BRANCH   6   9
ATOM      9  N   UNL     1       6.099   4.144  17.093  0.00  0.00    +0.000 N 
ATOM     10  H   UNL     1       6.569   3.369  16.622  0.00  0.00    +0.000 HD
BRANCH   9  11
ATOM     11  S   UNL     1       6.260   5.549  16.153  0.00  0.00    +0.000 S 
ATOM     12  O   UNL     1       4.964   6.192  16.173  0.00  0.00    +0.000 OA
ATOM     13  O   UNL     1       7.450   6.254  16.577  0.00  0.00    +0.000 OA
BRANCH  11  14
ATOM     14  C   UNL     1       6.536   4.923  14.513  0.00  0.00    +0.000 A 
ATOM     15  C   UNL     1       7.583   5.418  13.727  0.00  0.00    +0.000 A 
ATOM     16  C   UNL     1       7.764   4.912  12.437  0.00  0.00    +0.000 A 
ATOM     17  C   UNL     1       6.909   3.924  11.944  0.00  0.00    +0.000 A 
ATOM     18  C   UNL     1       5.887   3.414  12.744  0.00  0.00    +0.000 A 
ATOM     19  C   UNL     1       5.707   3.902  14.036  0.00  0.00    +0.000 A 
ENDBRANCH  11  14
ENDBRANCH   9  11
ENDBRANCH   6   9
BRANCH   1  20
ATOM     20  C   UNL     1       2.743   4.662  20.764  0.00  0.00    +0.000 C 
BRANCH  20  22
ATOM     21  N   UNL     1       2.489   7.010  20.164  0.00  0.00    +0.000 N 
ATOM     22  C   UNL     1       1.834   5.864  20.561  0.00  0.00    +0.000 C 
ATOM     23  O   UNL     1       0.620   5.809  20.719  0.00  0.00    +0.000 OA
ATOM     24  H   UNL     1       3.474   6.954  19.921  0.00  0.00    +0.000 HD
BRANCH  21  25
ATOM     25  C   UNL     1       1.751   8.234  19.901  0.00  0.00    +0.000 C 
BRANCH  25  26
ATOM     26  C   UNL     1       1.893   8.719  18.464  0.00  0.00    +0.000 C 
BRANCH  26  27
ATOM     27  O   UNL     1       1.335  10.039  18.346  0.00  0.00    +0.000 OA
BRANCH  27  31
ATOM     28  N   UNL     1      -2.188  10.086  17.869  0.00  0.00    +0.000 NA
ATOM     29  C   UNL     1      -1.010  10.291  18.349  0.00  0.00    +0.000 C 
ATOM     30  N   UNL     1      -0.811  10.938  19.521  0.00  0.00    +0.000 N 
ATOM     31  N   UNL     1       0.109   9.879  17.697  0.00  0.00    +0.000 N 
ATOM     32  H   UNL     1      -2.875  10.537  18.475  0.00  0.00    +0.000 HD
ATOM     33  H   UNL     1      -1.598  10.947  20.153  0.00  0.00    +0.000 HD
ATOM     34  H   UNL     1       0.035  10.616  19.975  0.00  0.00    +0.000 HD
ATOM     35  H   UNL     1      -0.005   9.049  17.119  0.00  0.00    +0.000 HD
ENDBRANCH  27  31
ENDBRANCH  26  27
ENDBRANCH  25  26
ENDBRANCH  21  25
ENDBRANCH  20  22
ENDBRANCH   1  20
TORSDOF 9
ENDMDL
MODEL 2
REMARK VINA RESULT:      -7.8      3.651      6.996
REMARK  Name = 
REMARK  9 active torsions:
REMARK  status: ('A' for Active; 'I' for Inactive)
REMARK    1  A    between atoms: N_4  and  O_5
REMARK    2  A    between atoms: O_5  and  C_6
REMARK    3  A    between atoms: C_6  and  C_7
REMARK    4  A    between atoms: C_7  and  N_8
REMARK    5  A    between atoms: C_9  and  C_11
REMARK    6  A    between atoms: C_11  and  C_12
REMARK    7  A    between atoms: C_17  and  N_18
REMARK    8  A    between atoms: N_18  and  S_19
REMARK    9  A    between atoms: S_19  and  C_22
REMARK                            x       y       z     vdW  Elec       q    Type
REMARK                         _______ _______ _______ _____ _____    ______ ____
ROOT
ATOM      1  C   UNL     1       2.737   7.439  18.238  0.00  0.00    +0.000 A 
ATOM      2  C   UNL     1       1.999   8.519  18.744  0.00  0.00    +0.000 A 
ATOM      3 CL   UNL     1       1.703   9.947  17.820  0.00  0.00    +0.000 Cl
ATOM      4  C   UNL     1       1.469   8.477  20.037  0.00  0.00    +0.000 A 
ATOM      5  C   UNL     1       1.665   7.359  20.847  0.00  0.00    +0.000 A 
ATOM      6  C   UNL     1       2.398   6.277  20.368  0.00  0.00    +0.000 A 
ATOM      7  C   UNL     1       2.929   6.322  19.073  0.00  0.00    +0.000 A 
ATOM      8  F   UNL     1       3.605   5.263  18.599  0.00  0.00    +0.000 F 
ENDROOT
BRANCH   6   9
ATOM      9  N   UNL     1       2.595   5.170  21.250  0.00  0.00    +0.000 N 
ATOM     10  H   UNL     1       2.654   5.386  22.246  0.00  0.00    +0.000 HD
BRANCH   9  11
ATOM     11  S   UNL     1       1.622   3.796  21.032  0.00  0.00    +0.000 S 
ATOM     12  O   UNL     1       1.672   3.070  22.281  0.00  0.00    +0.000 OA
ATOM     13  O   UNL     1       0.361   4.211  20.459  0.00  0.00    +0.000 OA
BRANCH  11  14
ATOM     14  C   UNL     1       2.505   2.851  19.812  0.00  0.00    +0.000 A 
ATOM     15  C   UNL     1       3.756   2.298  20.105  0.00  0.00    +0.000 A 
ATOM     16  C   UNL     1       4.429   1.572  19.119  0.00  0.00    +0.000 A 
ATOM     17  C   UNL     1       3.853   1.402  17.858  0.00  0.00    +0.000 A 
ATOM     18  C   UNL     1       2.592   1.930  17.581  0.00  0.00    +0.000 A 
ATOM     19  C   UNL     1       1.909   2.644  18.563  0.00  0.00    +0.000 A 
ENDBRANCH  11  14
ENDBRANCH   9  11
ENDBRANCH   6   9
BRANCH   1  20
ATOM     20  C   UNL     1       3.269   7.403  16.825  0.00  0.00    +0.000 C 
BRANCH  20  22
ATOM     21  N   UNL     1       4.993   6.024  15.794  0.00  0.00    +0.000 N 
ATOM     22  C   UNL     1       4.720   6.953  16.776  0.00  0.00    +0.000 C 
ATOM     23  O   UNL     1       5.575   7.396  17.533  0.00  0.00    +0.000 OA
ATOM     24  H   UNL     1       4.272   5.800  15.115  0.00  0.00    +0.000 HD
BRANCH  21  25
ATOM     25  C   UNL     1       6.343   5.521  15.604  0.00  0.00    +0.000 C 
BRANCH  25  26
ATOM     26  C   UNL     1       6.712   4.418  16.588  0.00  0.00    +0.000 C 
BRANCH  26  27
ATOM     27  O   UNL     1       7.992   4.708  17.175  0.00  0.00    +0.000 OA
BRANCH  27  31
ATOM     28  N   UNL     1       7.996   5.474  20.647  0.00  0.00    +0.000 NA
ATOM     29  C   UNL     1       8.017   5.587  19.364  0.00  0.00    +0.000 C 
ATOM     30  N   UNL     1       8.207   6.777  18.746  0.00  0.00    +0.000 N 
ATOM     31  N   UNL     1       7.836   4.514  18.549  0.00  0.00    +0.000 N 
ATOM     32  H   UNL     1       8.077   6.404  21.062  0.00  0.00    +0.000 HD
ATOM     33  H   UNL     1       8.662   7.487  19.301  0.00  0.00    +0.000 HD
ATOM     34  H   UNL     1       8.658   6.652  17.849  0.00  0.00    +0.000 HD
ATOM     35  H   UNL     1       8.145   3.622  18.930  0.00  0.00    +0.000 HD
ENDBRANCH  27  31
ENDBRANCH  26  27
ENDBRANCH  25  26
ENDBRANCH  21  25
ENDBRANCH  20  22
ENDBRANCH   1  20
TORSDOF 9
ENDMDL
MODEL 3
REMARK VINA RESULT:      -7.8      1.106      1.195
REMARK  Name = 
REMARK  9 active torsions:
REMARK  status: ('A' for Active; 'I' for Inactive)
REMARK    1  A    between atoms: N_4  and  O_5
REMARK    2  A    between atoms: O_5  and  C_6
REMARK    3  A    between atoms: C_6  and  C_7
REMARK    4  A    between atoms: C_7  and  N_8
REMARK    5  A    between atoms: C_9  and  C_11
REMARK    6  A    between atoms: C_11  and  C_12
REMARK    7  A    between atoms: C_17  and  N_18
REMARK    8  A    between atoms: N_18  and  S_19
REMARK    9  A    between atoms: S_19  and  C_22
REMARK                            x       y       z     vdW  Elec       q    Type
REMARK                         _______ _______ _______ _____ _____    ______ ____
ROOT
ATOM      1  C   UNL     1       2.866   4.582  19.323  0.00  0.00    +0.000 A 
ATOM      2  C   UNL     1       2.064   3.616  18.698  0.00  0.00    +0.000 A 
ATOM      3 CL   UNL     1       0.467   3.250  19.242  0.00  0.00    +0.000 Cl
ATOM      4  C   UNL     1       2.538   2.902  17.594  0.00  0.00    +0.000 A 
ATOM      5  C   UNL     1       3.819   3.138  17.094  0.00  0.00    +0.000 A 
ATOM      6  C   UNL     1       4.634   4.088  17.701  0.00  0.00    +0.000 A 
ATOM      7  C   UNL     1       4.156   4.802  18.808  0.00  0.00    +0.000 A 
ATOM      8  F   UNL     1       4.931   5.744  19.370  0.00  0.00    +0.000 F 
ENDROOT
BRANCH   6   9
ATOM      9  N   UNL     1       5.948   4.270  17.169  0.00  0.00    +0.000 N 
ATOM     10  H   UNL     1       6.381   3.451  16.738  0.00  0.00    +0.000 HD
BRANCH   9  11
ATOM     11  S   UNL     1       6.231   5.631  16.194  0.00  0.00    +0.000 S 
ATOM     12  O   UNL     1       4.994   6.379  16.186  0.00  0.00    +0.000 OA
ATOM     13  O   UNL     1       7.473   6.245  16.609  0.00  0.00    +0.000 OA
BRANCH  11  14
ATOM     14  C   UNL     1       6.464   4.940  14.573  0.00  0.00    +0.000 A 
ATOM     15  C   UNL     1       7.561   5.314  13.789  0.00  0.00    +0.000 A 
ATOM     16  C   UNL     1       7.707   4.761  12.513  0.00  0.00    +0.000 A 
ATOM     17  C   UNL     1       6.768   3.845  12.035  0.00  0.00    +0.000 A 
ATOM     18  C   UNL     1       5.694   3.453  12.833  0.00  0.00    +0.000 A 
ATOM     19  C   UNL     1       5.548   3.990  14.111  0.00  0.00    +0.000 A 
ENDBRANCH  11  14
ENDBRANCH   9  11
ENDBRANCH   6   9
BRANCH   1  20
ATOM     20  C   UNL     1       2.376   5.431  20.471  0.00  0.00    +0.000 C 
BRANCH  20  22
ATOM     21  N   UNL     1       1.660   7.686  21.056  0.00  0.00    +0.000 N 
ATOM     22  C   UNL     1       2.119   6.868  20.046  0.00  0.00    +0.000 C 
ATOM     23  O   UNL     1       2.322   7.265  18.904  0.00  0.00    +0.000 OA
ATOM     24  H   UNL     1       1.642   7.330  22.007  0.00  0.00    +0.000 HD
BRANCH  21  25
ATOM     25  C   UNL     1       1.397   9.094  20.809  0.00  0.00    +0.000 C 
BRANCH  25  26
ATOM     26  C   UNL     1      -0.008   9.353  20.280  0.00  0.00    +0.000 C 
BRANCH  26  27
ATOM     27  O   UNL     1      -0.003  10.541  19.469  0.00  0.00    +0.000 OA
BRANCH  27  31
ATOM     28  N   UNL     1      -2.700  11.824  17.541  0.00  0.00    +0.000 NA
ATOM     29  C   UNL     1      -1.540  11.667  18.080  0.00  0.00    +0.000 C 
ATOM     30  N   UNL     1      -0.544  12.571  17.928  0.00  0.00    +0.000 N 
ATOM     31  N   UNL     1      -1.242  10.571  18.827  0.00  0.00    +0.000 N 
ATOM     32  H   UNL     1      -2.686  12.669  16.968  0.00  0.00    +0.000 HD
ATOM     33  H   UNL     1      -0.839  13.504  17.677  0.00  0.00    +0.000 HD
ATOM     34  H   UNL     1       0.072  12.572  18.730  0.00  0.00    +0.000 HD
ATOM     35  H   UNL     1      -2.029  10.153  19.318  0.00  0.00    +0.000 HD
ENDBRANCH  27  31
ENDBRANCH  26  27
ENDBRANCH  25  26
ENDBRANCH  21  25
ENDBRANCH  20  22
ENDBRANCH   1  20
TORSDOF 9
ENDMDL
MODEL 4
REMARK VINA RESULT:      -7.7      1.794      2.378
REMARK  Name = 
REMARK  9 active torsions:
REMARK  status: ('A' for Active; 'I' for Inactive)
REMARK    1  A    between atoms: N_4  and  O_5
REMARK    2  A    between atoms: O_5  and  C_6
REMARK    3  A    between atoms: C_6  and  C_7
REMARK    4  A    between atoms: C_7  and  N_8
REMARK    5  A    between atoms: C_9  and  C_11
REMARK    6  A    between atoms: C_11  and  C_12
REMARK    7  A    between atoms: C_17  and  N_18
REMARK    8  A    between atoms: N_18  and  S_19
REMARK    9  A    between atoms: S_19  and  C_22
REMARK                            x       y       z     vdW  Elec       q    Type
REMARK                         _______ _______ _______ _____ _____    ______ ____
ROOT
ATOM      1  C   UNL     1       3.049   4.325  19.396  0.00  0.00    +0.000 A 
ATOM      2  C   UNL     1       2.250   3.375  18.742  0.00  0.00    +0.000 A 
ATOM      3 CL   UNL     1       0.676   2.948  19.307  0.00  0.00    +0.000 Cl
ATOM      4  C   UNL     1       2.709   2.730  17.590  0.00  0.00    +0.000 A 
ATOM      5  C   UNL     1       3.970   3.019  17.071  0.00  0.00    +0.000 A 
ATOM      6  C   UNL     1       4.783   3.954  17.706  0.00  0.00    +0.000 A 
ATOM      7  C   UNL     1       4.320   4.599  18.860  0.00  0.00    +0.000 A 
ATOM      8  F   UNL     1       5.090   5.527  19.452  0.00  0.00    +0.000 F 
ENDROOT
BRANCH   6   9
ATOM      9  N   UNL     1       6.078   4.191  17.150  0.00  0.00    +0.000 N 
ATOM     10  H   UNL     1       6.535   3.393  16.705  0.00  0.00    +0.000 HD
BRANCH   9  11
ATOM     11  S   UNL     1       6.289   5.569  16.182  0.00  0.00    +0.000 S 
ATOM     12  O   UNL     1       5.034   6.286  16.231  0.00  0.00    +0.000 OA
ATOM     13  O   UNL     1       7.530   6.210  16.556  0.00  0.00    +0.000 OA
BRANCH  11  14
ATOM     14  C   UNL     1       6.477   4.902  14.545  0.00  0.00    +0.000 A 
ATOM     15  C   UNL     1       5.553   3.980  14.040  0.00  0.00    +0.000 A 
ATOM     16  C   UNL     1       5.739   3.465  12.754  0.00  0.00    +0.000 A 
ATOM     17  C   UNL     1       6.832   3.871  11.986  0.00  0.00    +0.000 A 
ATOM     18  C   UNL     1       7.732   4.813  12.485  0.00  0.00    +0.000 A 
ATOM     19  C   UNL     1       7.548   5.341  13.760  0.00  0.00    +0.000 A 
ENDBRANCH  11  14
ENDBRANCH   9  11
ENDBRANCH   6   9
BRANCH   1  20
ATOM     20  C   UNL     1       2.573   5.103  20.599  0.00  0.00    +0.000 C 
BRANCH  20  22
ATOM     21  N   UNL     1       1.701   7.270  21.293  0.00  0.00    +0.000 N 
ATOM     22  C   UNL     1       2.106   6.500  20.224  0.00  0.00    +0.000 C 
ATOM     23  O   UNL     1       2.110   6.910  19.069  0.00  0.00    +0.000 OA
ATOM     24  H   UNL     1       1.850   6.920  22.235  0.00  0.00    +0.000 HD
BRANCH  21  25
ATOM     25  C   UNL     1       1.256   8.639  21.096  0.00  0.00    +0.000 C 
BRANCH  25  26
ATOM     26  C   UNL     1       0.461   9.183  22.276  0.00  0.00    +0.000 C 
BRANCH  26  27
ATOM     27  O   UNL     1      -0.532  10.108  21.800  0.00  0.00    +0.000 OA
BRANCH  27  31
ATOM     28  N   UNL     1      -1.136  13.223  23.404  0.00  0.00    +0.000 NA
ATOM     29  C   UNL     1      -1.032  12.301  22.510  0.00  0.00    +0.000 C 
ATOM     30  N   UNL     1      -1.219  12.547  21.192  0.00  0.00    +0.000 N 
ATOM     31  N   UNL     1      -0.741  11.015  22.841  0.00  0.00    +0.000 N 
ATOM     32  H   UNL     1      -1.431  14.090  22.951  0.00  0.00    +0.000 HD
ATOM     33  H   UNL     1      -1.103  13.510  20.909  0.00  0.00    +0.000 HD
ATOM     34  H   UNL     1      -0.669  11.917  20.623  0.00  0.00    +0.000 HD
ATOM     35  H   UNL     1      -0.173  10.900  23.678  0.00  0.00    +0.000 HD
ENDBRANCH  27  31
ENDBRANCH  26  27
ENDBRANCH  25  26
ENDBRANCH  21  25
ENDBRANCH  20  22
ENDBRANCH   1  20
TORSDOF 9
ENDMDL
MODEL 5
REMARK VINA RESULT:      -7.7      1.581      1.815
REMARK  Name = 
REMARK  9 active torsions:
REMARK  status: ('A' for Active; 'I' for Inactive)
REMARK    1  A    between atoms: N_4  and  O_5
REMARK    2  A    between atoms: O_5  and  C_6
REMARK    3  A    between atoms: C_6  and  C_7
REMARK    4  A    between atoms: C_7  and  N_8
REMARK    5  A    between atoms: C_9  and  C_11
REMARK    6  A    between atoms: C_11  and  C_12
REMARK    7  A    between atoms: C_17  and  N_18
REMARK    8  A    between atoms: N_18  and  S_19
REMARK    9  A    between atoms: S_19  and  C_22
REMARK                            x       y       z     vdW  Elec       q    Type
REMARK                         _______ _______ _______ _____ _____    ______ ____
ROOT
ATOM      1  C   UNL     1       3.099   4.455  19.407  0.00  0.00    +0.000 A 
ATOM      2  C   UNL     1       2.269   3.464  18.862  0.00  0.00    +0.000 A 
ATOM      3 CL   UNL     1       0.717   3.095  19.520  0.00  0.00    +0.000 Cl
ATOM      4  C   UNL     1       2.678   2.727  17.747  0.00  0.00    +0.000 A 
ATOM      5  C   UNL     1       3.919   2.965  17.156  0.00  0.00    +0.000 A 
ATOM      6  C   UNL     1       4.761   3.939  17.684  0.00  0.00    +0.000 A 
ATOM      7  C   UNL     1       4.349   4.675  18.802  0.00  0.00    +0.000 A 
ATOM      8  F   UNL     1       5.147   5.641  19.288  0.00  0.00    +0.000 F 
ENDROOT
BRANCH   6   9
ATOM      9  N   UNL     1       6.034   4.121  17.060  0.00  0.00    +0.000 N 
ATOM     10  H   UNL     1       6.419   3.313  16.568  0.00  0.00    +0.000 HD
BRANCH   9  11
ATOM     11  S   UNL     1       6.267   5.514  16.118  0.00  0.00    +0.000 S 
ATOM     12  O   UNL     1       5.006   6.221  16.134  0.00  0.00    +0.000 OA
ATOM     13  O   UNL     1       7.490   6.159  16.543  0.00  0.00    +0.000 OA
BRANCH  11  14
ATOM     14  C   UNL     1       6.516   4.871  14.480  0.00  0.00    +0.000 A 
ATOM     15  C   UNL     1       7.566   5.338  13.682  0.00  0.00    +0.000 A 
ATOM     16  C   UNL     1       7.724   4.820  12.393  0.00  0.00    +0.000 A 
ATOM     17  C   UNL     1       6.844   3.847  11.915  0.00  0.00    +0.000 A 
ATOM     18  C   UNL     1       5.818   3.365  12.727  0.00  0.00    +0.000 A 
ATOM     19  C   UNL     1       5.661   3.866  14.017  0.00  0.00    +0.000 A 
ENDBRANCH  11  14
ENDBRANCH   9  11
ENDBRANCH   6   9
BRANCH   1  20
ATOM     20  C   UNL     1       2.676   5.328  20.564  0.00  0.00    +0.000 C 
BRANCH  20  22
ATOM     21  N   UNL     1       1.628   7.461  21.105  0.00  0.00    +0.000 N 
ATOM     22  C   UNL     1       2.122   6.664  20.095  0.00  0.00    +0.000 C 
ATOM     23  O   UNL     1       2.134   7.007  18.918  0.00  0.00    +0.000 OA
ATOM     24  H   UNL     1       1.771   7.176  22.070  0.00  0.00    +0.000 HD
BRANCH  21  25
ATOM     25  C   UNL     1       1.092   8.780  20.816  0.00  0.00    +0.000 C 
BRANCH  25  26
ATOM     26  C   UNL     1       0.767   9.580  22.071  0.00  0.00    +0.000 C 
BRANCH  26  27
ATOM     27  O   UNL     1       1.135  10.955  21.873  0.00  0.00    +0.000 OA
BRANCH  27  31
ATOM     28  N   UNL     1       0.630  12.895  18.937  0.00  0.00    +0.000 NA
ATOM     29  C   UNL     1       1.114  12.440  20.040  0.00  0.00    +0.000 C 
ATOM     30  N   UNL     1       2.140  13.045  20.683  0.00  0.00    +0.000 N 
ATOM     31  N   UNL     1       0.631  11.310  20.620  0.00  0.00    +0.000 N 
ATOM     32  H   UNL     1       1.183  13.702  18.642  0.00  0.00    +0.000 HD
ATOM     33  H   UNL     1       2.277  14.021  20.462  0.00  0.00    +0.000 HD
ATOM     34  H   UNL     1       2.087  12.887  21.681  0.00  0.00    +0.000 HD
ATOM     35  H   UNL     1      -0.354  11.119  20.445  0.00  0.00    +0.000 HD
ENDBRANCH  27  31
ENDBRANCH  26  27
ENDBRANCH  25  26
ENDBRANCH  21  25
ENDBRANCH  20  22
ENDBRANCH   1  20
TORSDOF 9
ENDMDL
MODEL 6
REMARK VINA RESULT:      -7.6      3.244      5.326
REMARK  Name = 
REMARK  9 active torsions:
REMARK  status: ('A' for Active; 'I' for Inactive)
REMARK    1  A    between atoms: N_4  and  O_5
REMARK    2  A    between atoms: O_5  and  C_6
REMARK    3  A    between atoms: C_6  and  C_7
REMARK    4  A    between atoms: C_7  and  N_8
REMARK    5  A    between atoms: C_9  and  C_11
REMARK    6  A    between atoms: C_11  and  C_12
REMARK    7  A    between atoms: C_17  and  N_18
REMARK    8  A    between atoms: N_18  and  S_19
REMARK    9  A    between atoms: S_19  and  C_22
REMARK                            x       y       z     vdW  Elec       q    Type
REMARK                         _______ _______ _______ _____ _____    ______ ____
ROOT
ATOM      1  C   UNL     1       0.919   9.745  19.427  0.00  0.00    +0.000 A 
ATOM      2  C   UNL     1       0.664   9.145  20.668  0.00  0.00    +0.000 A 
ATOM      3 CL   UNL     1      -0.345   9.881  21.860  0.00  0.00    +0.000 Cl
ATOM      4  C   UNL     1       1.229   7.907  20.991  0.00  0.00    +0.000 A 
ATOM      5  C   UNL     1       2.056   7.248  20.082  0.00  0.00    +0.000 A 
ATOM      6  C   UNL     1       2.328   7.827  18.847  0.00  0.00    +0.000 A 
ATOM      7  C   UNL     1       1.761   9.067  18.526  0.00  0.00    +0.000 A 
ATOM      8  F   UNL     1       1.994   9.608  17.319  0.00  0.00    +0.000 F 
ENDROOT
BRANCH   6   9
ATOM      9  N   UNL     1       3.206   7.124  17.965  0.00  0.00    +0.000 N 
ATOM     10  H   UNL     1       4.058   7.615  17.685  0.00  0.00    +0.000 HD
BRANCH   9  11
ATOM     11  S   UNL     1       3.585   5.512  18.337  0.00  0.00    +0.000 S 
ATOM     12  O   UNL     1       4.142   5.531  19.672  0.00  0.00    +0.000 OA
ATOM     13  O   UNL     1       2.444   4.684  18.016  0.00  0.00    +0.000 OA
BRANCH  11  14
ATOM     14  C   UNL     1       4.895   5.120  17.201  0.00  0.00    +0.000 A 
ATOM     15  C   UNL     1       4.744   4.093  16.264  0.00  0.00    +0.000 A 
ATOM     16  C   UNL     1       5.799   3.803  15.395  0.00  0.00    +0.000 A 
ATOM     17  C   UNL     1       6.986   4.534  15.464  0.00  0.00    +0.000 A 
ATOM     18  C   UNL     1       7.120   5.576  16.381  0.00  0.00    +0.000 A 
ATOM     19  C   UNL     1       6.068   5.881  17.243  0.00  0.00    +0.000 A 
ENDBRANCH  11  14
ENDBRANCH   9  11
ENDBRANCH   6   9
BRANCH   1  20
ATOM     20  C   UNL     1       0.277  11.044  19.000  0.00  0.00    +0.000 C 
BRANCH  20  22
ATOM     21  N   UNL     1      -1.245  10.112  17.340  0.00  0.00    +0.000 N 
ATOM     22  C   UNL     1      -1.147  10.838  18.508  0.00  0.00    +0.000 C 
ATOM     23  O   UNL     1      -2.123  11.267  19.112  0.00  0.00    +0.000 OA
ATOM     24  H   UNL     1      -0.410   9.672  16.964  0.00  0.00    +0.000 HD
BRANCH  21  25
ATOM     25  C   UNL     1      -2.542   9.808  16.761  0.00  0.00    +0.000 C 
BRANCH  25  26
ATOM     26  C   UNL     1      -2.944  10.777  15.656  0.00  0.00    +0.000 C 
BRANCH  26  27
ATOM     27  O   UNL     1      -4.270  11.271  15.910  0.00  0.00    +0.000 OA
BRANCH  27  31
ATOM     28  N   UNL     1      -5.341  12.880  18.894  0.00  0.00    +0.000 NA
ATOM     29  C   UNL     1      -5.305  12.128  17.848  0.00  0.00    +0.000 C 
ATOM     30  N   UNL     1      -6.371  11.396  17.447  0.00  0.00    +0.000 N 
ATOM     31  N   UNL     1      -4.183  12.014  17.089  0.00  0.00    +0.000 N 
ATOM     32  H   UNL     1      -6.246  12.762  19.353  0.00  0.00    +0.000 HD
ATOM     33  H   UNL     1      -7.268  11.716  17.781  0.00  0.00    +0.000 HD
ATOM     34  H   UNL     1      -6.365  11.266  16.444  0.00  0.00    +0.000 HD
ATOM     35  H   UNL     1      -3.581  12.834  17.076  0.00  0.00    +0.000 HD
ENDBRANCH  27  31
ENDBRANCH  26  27
ENDBRANCH  25  26
ENDBRANCH  21  25
ENDBRANCH  20  22
ENDBRANCH   1  20
TORSDOF 9
ENDMDL
MODEL 7
REMARK VINA RESULT:      -7.6      1.380      1.759
REMARK  Name = 
REMARK  9 active torsions:
REMARK  status: ('A' for Active; 'I' for Inactive)
REMARK    1  A    between atoms: N_4  and  O_5
REMARK    2  A    between atoms: O_5  and  C_6
REMARK    3  A    between atoms: C_6  and  C_7
REMARK    4  A    between atoms: C_7  and  N_8
REMARK    5  A    between atoms: C_9  and  C_11
REMARK    6  A    between atoms: C_11  and  C_12
REMARK    7  A    between atoms: C_17  and  N_18
REMARK    8  A    between atoms: N_18  and  S_19
REMARK    9  A    between atoms: S_19  and  C_22
REMARK                            x       y       z     vdW  Elec       q    Type
REMARK                         _______ _______ _______ _____ _____    ______ ____
ROOT
ATOM      1  C   UNL     1       3.094   4.390  19.472  0.00  0.00    +0.000 A 
ATOM      2  C   UNL     1       2.273   3.453  18.830  0.00  0.00    +0.000 A 
ATOM      3 CL   UNL     1       0.704   3.042  19.422  0.00  0.00    +0.000 Cl
ATOM      4  C   UNL     1       2.703   2.807  17.668  0.00  0.00    +0.000 A 
ATOM      5  C   UNL     1       3.958   3.083  17.126  0.00  0.00    +0.000 A 
ATOM      6  C   UNL     1       4.792   4.005  17.749  0.00  0.00    +0.000 A 
ATOM      7  C   UNL     1       4.359   4.651  18.914  0.00  0.00    +0.000 A 
ATOM      8  F   UNL     1       5.151   5.568  19.495  0.00  0.00    +0.000 F 
ENDROOT
BRANCH   6   9
ATOM      9  N   UNL     1       6.080   4.229  17.171  0.00  0.00    +0.000 N 
ATOM     10  H   UNL     1       6.521   3.426  16.718  0.00  0.00    +0.000 HD
BRANCH   9  11
ATOM     11  S   UNL     1       6.287   5.604  16.197  0.00  0.00    +0.000 S 
ATOM     12  O   UNL     1       5.023   6.307  16.227  0.00  0.00    +0.000 OA
ATOM     13  O   UNL     1       7.516   6.261  16.582  0.00  0.00    +0.000 OA
BRANCH  11  14
ATOM     14  C   UNL     1       6.502   4.930  14.566  0.00  0.00    +0.000 A 
ATOM     15  C   UNL     1       5.614   3.971  14.068  0.00  0.00    +0.000 A 
ATOM     16  C   UNL     1       5.820   3.451  12.787  0.00  0.00    +0.000 A 
ATOM     17  C   UNL     1       6.898   3.891  12.017  0.00  0.00    +0.000 A 
ATOM     18  C   UNL     1       7.762   4.870  12.508  0.00  0.00    +0.000 A 
ATOM     19  C   UNL     1       7.557   5.402  13.779  0.00  0.00    +0.000 A 
ENDBRANCH  11  14
ENDBRANCH   9  11
ENDBRANCH   6   9
BRANCH   1  20
ATOM     20  C   UNL     1       2.650   5.169  20.687  0.00  0.00    +0.000 C 
BRANCH  20  22
ATOM     21  N   UNL     1       1.296   7.101  21.299  0.00  0.00    +0.000 N 
ATOM     22  C   UNL     1       2.063   6.521  20.312  0.00  0.00    +0.000 C 
ATOM     23  O   UNL     1       2.273   7.054  19.228  0.00  0.00    +0.000 OA
ATOM     24  H   UNL     1       1.273   6.672  22.219  0.00  0.00    +0.000 HD
BRANCH  21  25
ATOM     25  C   UNL     1       0.693   8.408  21.099  0.00  0.00    +0.000 C 
BRANCH  25  26
ATOM     26  C   UNL     1       1.449   9.528  21.803  0.00  0.00    +0.000 C 
BRANCH  26  27
ATOM     27  O   UNL     1       0.744  10.768  21.624  0.00  0.00    +0.000 OA
BRANCH  27  31
ATOM     28  N   UNL     1       0.495  12.221  18.389  0.00  0.00    +0.000 NA
ATOM     29  C   UNL     1       0.218  11.830  19.584  0.00  0.00    +0.000 C 
ATOM     30  N   UNL     1      -1.017  11.965  20.121  0.00  0.00    +0.000 N 
ATOM     31  N   UNL     1       1.160  11.269  20.388  0.00  0.00    +0.000 N 
ATOM     32  H   UNL     1      -0.329  12.677  17.991  0.00  0.00    +0.000 HD
ATOM     33  H   UNL     1      -1.772  12.059  19.457  0.00  0.00    +0.000 HD
ATOM     34  H   UNL     1      -1.199  11.238  20.801  0.00  0.00    +0.000 HD
ATOM     35  H   UNL     1       1.895  10.758  19.904  0.00  0.00    +0.000 HD
ENDBRANCH  27  31
ENDBRANCH  26  27
ENDBRANCH  25  26
ENDBRANCH  21  25
ENDBRANCH  20  22
ENDBRANCH   1  20
TORSDOF 9
ENDMDL
MODEL 8
REMARK VINA RESULT:      -7.6      1.364      1.582
REMARK  Name = 
REMARK  9 active torsions:
REMARK  status: ('A' for Active; 'I' for Inactive)
REMARK    1  A    between atoms: N_4  and  O_5
REMARK    2  A    between atoms: O_5  and  C_6
REMARK    3  A    between atoms: C_6  and  C_7
REMARK    4  A    between atoms: C_7  and  N_8
REMARK    5  A    between atoms: C_9  and  C_11
REMARK    6  A    between atoms: C_11  and  C_12
REMARK    7  A    between atoms: C_17  and  N_18
REMARK    8  A    between atoms: N_18  and  S_19
REMARK    9  A    between atoms: S_19  and  C_22
REMARK                            x       y       z     vdW  Elec       q    Type
REMARK                         _______ _______ _______ _____ _____    ______ ____
ROOT
ATOM      1  C   UNL     1       3.138   4.257  19.476  0.00  0.00    +0.000 A 
ATOM      2  C   UNL     1       2.263   3.409  18.781  0.00  0.00    +0.000 A 
ATOM      3 CL   UNL     1       0.691   3.017  19.377  0.00  0.00    +0.000 Cl
ATOM      4  C   UNL     1       2.639   2.843  17.560  0.00  0.00    +0.000 A 
ATOM      5  C   UNL     1       3.893   3.110  17.011  0.00  0.00    +0.000 A 
ATOM      6  C   UNL     1       4.780   3.943  17.686  0.00  0.00    +0.000 A 
ATOM      7  C   UNL     1       4.401   4.509  18.909  0.00  0.00    +0.000 A 
ATOM      8  F   UNL     1       5.243   5.343  19.542  0.00  0.00    +0.000 F 
ENDROOT
BRANCH   6   9
ATOM      9  N   UNL     1       6.064   4.160  17.095  0.00  0.00    +0.000 N 
ATOM     10  H   UNL     1       6.484   3.362  16.614  0.00  0.00    +0.000 HD
BRANCH   9  11
ATOM     11  S   UNL     1       6.282   5.558  16.157  0.00  0.00    +0.000 S 
ATOM     12  O   UNL     1       5.014   6.252  16.174  0.00  0.00    +0.000 OA
ATOM     13  O   UNL     1       7.498   6.214  16.584  0.00  0.00    +0.000 OA
BRANCH  11  14
ATOM     14  C   UNL     1       6.539   4.922  14.517  0.00  0.00    +0.000 A 
ATOM     15  C   UNL     1       7.606   5.375  13.735  0.00  0.00    +0.000 A 
ATOM     16  C   UNL     1       7.770   4.864  12.444  0.00  0.00    +0.000 A 
ATOM     17  C   UNL     1       6.879   3.910  11.949  0.00  0.00    +0.000 A 
ATOM     18  C   UNL     1       5.834   3.440  12.746  0.00  0.00    +0.000 A 
ATOM     19  C   UNL     1       5.671   3.935  14.038  0.00  0.00    +0.000 A 
ENDBRANCH  11  14
ENDBRANCH   9  11
ENDBRANCH   6   9
BRANCH   1  20
ATOM     20  C   UNL     1       2.754   4.952  20.760  0.00  0.00    +0.000 C 
BRANCH  20  22
ATOM     21  N   UNL     1       2.381   6.925  19.380  0.00  0.00    +0.000 N 
ATOM     22  C   UNL     1       1.978   6.233  20.502  0.00  0.00    +0.000 C 
ATOM     23  O   UNL     1       1.059   6.605  21.222  0.00  0.00    +0.000 OA
ATOM     24  H   UNL     1       3.055   6.495  18.754  0.00  0.00    +0.000 HD
BRANCH  21  25
ATOM     25  C   UNL     1       1.714   8.154  18.986  0.00  0.00    +0.000 C 
BRANCH  25  26
ATOM     26  C   UNL     1       2.442   8.897  17.873  0.00  0.00    +0.000 C 
BRANCH  26  27
ATOM     27  O   UNL     1       1.736  10.111  17.565  0.00  0.00    +0.000 OA
BRANCH  27  31
ATOM     28  N   UNL     1       3.012  13.400  18.002  0.00  0.00    +0.000 NA
ATOM     29  C   UNL     1       2.229  12.378  17.991  0.00  0.00    +0.000 C 
ATOM     30  N   UNL     1       0.918  12.469  18.318  0.00  0.00    +0.000 N 
ATOM     31  N   UNL     1       2.677  11.137  17.664  0.00  0.00    +0.000 N 
ATOM     32  H   UNL     1       2.493  14.211  18.344  0.00  0.00    +0.000 HD
ATOM     33  H   UNL     1       0.512  13.389  18.234  0.00  0.00    +0.000 HD
ATOM     34  H   UNL     1       0.373  11.769  17.830  0.00  0.00    +0.000 HD
ATOM     35  H   UNL     1       3.457  11.116  17.010  0.00  0.00    +0.000 HD
ENDBRANCH  27  31
ENDBRANCH  26  27
ENDBRANCH  25  26
ENDBRANCH  21  25
ENDBRANCH  20  22
ENDBRANCH   1  20
TORSDOF 9
ENDMDL
MODEL 9
REMARK VINA RESULT:      -7.6      3.515      5.590
REMARK  Name = 
REMARK  9 active torsions:
REMARK  status: ('A' for Active; 'I' for Inactive)
REMARK    1  A    between atoms: N_4  and  O_5
REMARK    2  A    between atoms: O_5  and  C_6
REMARK    3  A    between atoms: C_6  and  C_7
REMARK    4  A    between atoms: C_7  and  N_8
REMARK    5  A    between atoms: C_9  and  C_11
REMARK    6  A    between atoms: C_11  and  C_12
REMARK    7  A    between atoms: C_17  and  N_18
REMARK    8  A    between atoms: N_18  and  S_19
REMARK    9  A    between atoms: S_19  and  C_22
REMARK                            x       y       z     vdW  Elec       q    Type
REMARK                         _______ _______ _______ _____ _____    ______ ____
ROOT
ATOM      1  C   UNL     1       0.704   9.942  19.607  0.00  0.00    +0.000 A 
ATOM      2  C   UNL     1       0.504   9.366  20.870  0.00  0.00    +0.000 A 
ATOM      3 CL   UNL     1      -0.488  10.104  22.075  0.00  0.00    +0.000 Cl
ATOM      4  C   UNL     1       1.113   8.152  21.204  0.00  0.00    +0.000 A 
ATOM      5  C   UNL     1       1.929   7.493  20.286  0.00  0.00    +0.000 A 
ATOM      6  C   UNL     1       2.146   8.049  19.029  0.00  0.00    +0.000 A 
ATOM      7  C   UNL     1       1.536   9.265  18.697  0.00  0.00    +0.000 A 
ATOM      8  F   UNL     1       1.716   9.782  17.471  0.00  0.00    +0.000 F 
ENDROOT
BRANCH   6   9
ATOM      9  N   UNL     1       3.016   7.348  18.137  0.00  0.00    +0.000 N 
ATOM     10  H   UNL     1       3.929   7.773  17.965  0.00  0.00    +0.000 HD
BRANCH   9  11
ATOM     11  S   UNL     1       3.210   5.677  18.364  0.00  0.00    +0.000 S 
ATOM     12  O   UNL     1       3.882   5.522  19.635  0.00  0.00    +0.000 OA
ATOM     13  O   UNL     1       1.946   5.026  18.103  0.00  0.00    +0.000 OA
BRANCH  11  14
ATOM     14  C   UNL     1       4.350   5.214  17.081  0.00  0.00    +0.000 A 
ATOM     15  C   UNL     1       4.963   6.187  16.285  0.00  0.00    +0.000 A 
ATOM     16  C   UNL     1       5.844   5.788  15.276  0.00  0.00    +0.000 A 
ATOM     17  C   UNL     1       6.108   4.432  15.072  0.00  0.00    +0.000 A 
ATOM     18  C   UNL     1       5.517   3.468  15.888  0.00  0.00    +0.000 A 
ATOM     19  C   UNL     1       4.648   3.858  16.904  0.00  0.00    +0.000 A 
ENDBRANCH  11  14
ENDBRANCH   9  11
ENDBRANCH   6   9
BRANCH   1  20
ATOM     20  C   UNL     1       0.013  11.211  19.170  0.00  0.00    +0.000 C 
BRANCH  20  22
ATOM     21  N   UNL     1      -1.589  10.185  17.648  0.00  0.00    +0.000 N 
ATOM     22  C   UNL     1      -1.434  10.963  18.775  0.00  0.00    +0.000 C 
ATOM     23  O   UNL     1      -2.379  11.404  19.417  0.00  0.00    +0.000 OA
ATOM     24  H   UNL     1      -0.771   9.740  17.241  0.00  0.00    +0.000 HD
BRANCH  21  25
ATOM     25  C   UNL     1      -2.914   9.836  17.163  0.00  0.00    +0.000 C 
BRANCH  25  26
ATOM     26  C   UNL     1      -3.525  10.912  16.274  0.00  0.00    +0.000 C 
BRANCH  26  27
ATOM     27  O   UNL     1      -4.000  10.315  15.056  0.00  0.00    +0.000 OA
BRANCH  27  31
ATOM     28  N   UNL     1      -2.050   9.425  12.219  0.00  0.00    +0.000 NA
ATOM     29  C   UNL     1      -3.030   9.792  12.970  0.00  0.00    +0.000 C 
ATOM     30  N   UNL     1      -4.282   9.972  12.487  0.00  0.00    +0.000 N 
ATOM     31  N   UNL     1      -2.862  10.036  14.296  0.00  0.00    +0.000 N 
ATOM     32  H   UNL     1      -2.377   9.369  11.253  0.00  0.00    +0.000 HD
ATOM     33  H   UNL     1      -4.489   9.490  11.625  0.00  0.00    +0.000 HD
ATOM     34  H   UNL     1      -4.976   9.787  13.200  0.00  0.00    +0.000 HD
ATOM     35  H   UNL     1      -2.124   9.499  14.747  0.00  0.00    +0.000 HD
ENDBRANCH  27  31
ENDBRANCH  26  27
ENDBRANCH  25  26
ENDBRANCH  21  25
ENDBRANCH  20  22
ENDBRANCH   1  20
TORSDOF 9
ENDMDL
