MODEL 1
REMARK VINA RESULT:      -7.6      0.000      0.000
REMARK  Name = 
REMARK  8 active torsions:
REMARK  status: ('A' for Active; 'I' for Inactive)
REMARK    1  A    between atoms: C_1  and  C_2
REMARK    2  A    between atoms: C_5  and  C_6
REMARK    3  A    between atoms: C_7  and  S_8
REMARK    4  A    between atoms: S_8  and  N_11
REMARK    5  A    between atoms: N_11  and  C_12
REMARK    6  A    between atoms: N_11  and  C_13
REMARK    7  A    between atoms: C_13  and  C_14
REMARK    8  A    between atoms: N_16  and  C_17
REMARK                            x       y       z     vdW  Elec       q    Type
REMARK                         _______ _______ _______ _____ _____    ______ ____
ROOT
ATOM      1  N   UNL     1       3.589   5.040  18.413  0.00  0.00    +0.000 NA
ATOM      2  C   UNL     1       2.344   4.661  17.695  0.00  0.00    +0.000 C 
ENDROOT
BRANCH   1   3
ATOM      3  S   UNL     1       4.937   4.034  18.044  0.00  0.00    +0.000 S 
ATOM      4  O   UNL     1       4.462   2.989  17.163  0.00  0.00    +0.000 OA
ATOM      5  O   UNL     1       5.648   3.752  19.268  0.00  0.00    +0.000 OA
BRANCH   3  12
ATOM      6  C   UNL     1       5.284   4.309  14.705  0.00  0.00    +0.000 C 
ATOM      7  C   UNL     1       6.132   4.982  15.714  0.00  0.00    +0.000 A 
ATOM      8  N   UNL     1       7.149   5.762  15.323  0.00  0.00    +0.000 NA
ATOM      9  O   UNL     1       7.740   6.228  16.484  0.00  0.00    +0.000 OA
ATOM     10  C   UNL     1       7.091   5.718  17.567  0.00  0.00    +0.000 A 
ATOM     11  C   UNL     1       7.624   6.111  18.885  0.00  0.00    +0.000 C 
ATOM     12  C   UNL     1       6.062   4.924  17.122  0.00  0.00    +0.000 A 
ENDBRANCH   3  12
ENDBRANCH   1   3
BRANCH   1  13
ATOM     13  C   UNL     1       3.319   5.087  19.887  0.00  0.00    +0.000 C 
BRANCH  13  14
ATOM     14  C   UNL     1       2.151   5.956  20.313  0.00  0.00    +0.000 C 
ATOM     15  O   UNL     1       1.098   5.434  20.669  0.00  0.00    +0.000 OA
ATOM     16  N   UNL     1       2.380   7.317  20.157  0.00  0.00    +0.000 N 
ATOM     17  H   UNL     1       3.221   7.588  19.662  0.00  0.00    +0.000 HD
BRANCH  16  18
ATOM     18  C   UNL     1       1.482   8.341  20.517  0.00  0.00    +0.000 A 
ATOM     19  C   UNL     1       1.098   8.578  21.842  0.00  0.00    +0.000 A 
ATOM     20  C   UNL     1       0.171   9.575  22.149  0.00  0.00    +0.000 A 
ATOM     21  C   UNL     1      -0.369  10.343  21.128  0.00  0.00    +0.000 A 
ATOM     22  F   UNL     1      -1.279  11.282  21.418  0.00  0.00    +0.000 F 
ATOM     23  C   UNL     1       0.024  10.149  19.809  0.00  0.00    +0.000 A 
ATOM     24  C   UNL     1       0.962   9.156  19.503  0.00  0.00    +0.000 A 
ENDBRANCH  16  18
ENDBRANCH  13  14
ENDBRANCH   1  13
TORSDOF 5
ENDMDL
MODEL 2
REMARK VINA RESULT:      -7.4      0.444      1.974
REMARK  Name = 
REMARK  8 active torsions:
REMARK  status: ('A' for Active; 'I' for Inactive)
REMARK    1  A    between atoms: C_1  and  C_2
REMARK    2  A    between atoms: C_5  and  C_6
REMARK    3  A    between atoms: C_7  and  S_8
REMARK    4  A    between atoms: S_8  and  N_11
REMARK    5  A    between atoms: N_11  and  C_12
REMARK    6  A    between atoms: N_11  and  C_13
REMARK    7  A    between atoms: C_13  and  C_14
REMARK    8  A    between atoms: N_16  and  C_17
REMARK                            x       y       z     vdW  Elec       q    Type
REMARK                         _______ _______ _______ _____ _____    ______ ____
ROOT
ATOM      1  N   UNL     1       3.530   5.071  18.391  0.00  0.00    +0.000 NA
ATOM      2  C   UNL     1       2.230   4.679  17.786  0.00  0.00    +0.000 C 
ENDROOT
BRANCH   1   3
ATOM      3  S   UNL     1       4.828   4.010  17.995  0.00  0.00    +0.000 S 
ATOM      4  O   UNL     1       4.303   3.014  17.087  0.00  0.00    +0.000 OA
ATOM      5  O   UNL     1       5.523   3.662  19.211  0.00  0.00    +0.000 OA
BRANCH   3  12
ATOM      6  C   UNL     1       7.333   6.008  19.032  0.00  0.00    +0.000 C 
ATOM      7  C   UNL     1       7.018   5.688  17.621  0.00  0.00    +0.000 A 
ATOM      8  N   UNL     1       7.746   6.226  16.633  0.00  0.00    +0.000 NA
ATOM      9  O   UNL     1       7.203   5.745  15.455  0.00  0.00    +0.000 OA
ATOM     10  C   UNL     1       6.145   4.935  15.734  0.00  0.00    +0.000 A 
ATOM     11  C   UNL     1       5.446   4.359  14.568  0.00  0.00    +0.000 C 
ATOM     12  C   UNL     1       5.996   4.869  17.097  0.00  0.00    +0.000 A 
ENDBRANCH   3  12
ENDBRANCH   1   3
BRANCH   1  13
ATOM     13  C   UNL     1       3.365   5.216  19.874  0.00  0.00    +0.000 C 
BRANCH  13  14
ATOM     14  C   UNL     1       2.183   6.054  20.324  0.00  0.00    +0.000 C 
ATOM     15  O   UNL     1       1.162   5.504  20.727  0.00  0.00    +0.000 OA
ATOM     16  N   UNL     1       2.360   7.418  20.135  0.00  0.00    +0.000 N 
ATOM     17  H   UNL     1       3.173   7.708  19.606  0.00  0.00    +0.000 HD
BRANCH  16  18
ATOM     18  C   UNL     1       1.440   8.418  20.507  0.00  0.00    +0.000 A 
ATOM     19  C   UNL     1       0.805   9.245  19.572  0.00  0.00    +0.000 A 
ATOM     20  C   UNL     1      -0.067  10.254  19.988  0.00  0.00    +0.000 A 
ATOM     21  C   UNL     1      -0.309  10.430  21.342  0.00  0.00    +0.000 A 
ATOM     22  F   UNL     1      -1.124  11.415  21.743  0.00  0.00    +0.000 F 
ATOM     23  C   UNL     1       0.282   9.599  22.285  0.00  0.00    +0.000 A 
ATOM     24  C   UNL     1       1.148   8.581  21.867  0.00  0.00    +0.000 A 
ENDBRANCH  16  18
ENDBRANCH  13  14
ENDBRANCH   1  13
TORSDOF 5
ENDMDL
MODEL 3
REMARK VINA RESULT:      -7.4      4.518      7.954
REMARK  Name = 
REMARK  8 active torsions:
REMARK  status: ('A' for Active; 'I' for Inactive)
REMARK    1  A    between atoms: C_1  and  C_2
REMARK    2  A    between atoms: C_5  and  C_6
REMARK    3  A    between atoms: C_7  and  S_8
REMARK    4  A    between atoms: S_8  and  N_11
REMARK    5  A    between atoms: N_11  and  C_12
REMARK    6  A    between atoms: N_11  and  C_13
REMARK    7  A    between atoms: C_13  and  C_14
REMARK    8  A    between atoms: N_16  and  C_17
REMARK                            x       y       z     vdW  Elec       q    Type
REMARK                         _______ _______ _______ _____ _____    ______ ____
ROOT
ATOM      1  N   UNL     1       4.745   4.703  18.570  0.00  0.00    +0.000 NA
ATOM      2  C   UNL     1       4.191   5.702  19.520  0.00  0.00    +0.000 C 
ENDROOT
BRANCH   1   3
ATOM      3  S   UNL     1       4.170   3.100  18.835  0.00  0.00    +0.000 S 
ATOM      4  O   UNL     1       4.966   2.531  19.900  0.00  0.00    +0.000 OA
ATOM      5  O   UNL     1       4.011   2.454  17.554  0.00  0.00    +0.000 OA
BRANCH   3  12
ATOM      6  C   UNL     1       1.343   4.264  17.422  0.00  0.00    +0.000 C 
ATOM      7  C   UNL     1       1.447   3.681  18.778  0.00  0.00    +0.000 A 
ATOM      8  N   UNL     1       0.362   3.602  19.560  0.00  0.00    +0.000 NA
ATOM      9  O   UNL     1       0.785   3.027  20.744  0.00  0.00    +0.000 OA
ATOM     10  C   UNL     1       2.123   2.776  20.680  0.00  0.00    +0.000 A 
ATOM     11  C   UNL     1       2.727   2.178  21.886  0.00  0.00    +0.000 C 
ATOM     12  C   UNL     1       2.580   3.173  19.448  0.00  0.00    +0.000 A 
ENDBRANCH   3  12
ENDBRANCH   1   3
BRANCH   1  13
ATOM     13  C   UNL     1       6.243   4.766  18.599  0.00  0.00    +0.000 C 
BRANCH  13  14
ATOM     14  C   UNL     1       6.933   4.573  17.262  0.00  0.00    +0.000 C 
ATOM     15  O   UNL     1       8.142   4.362  17.223  0.00  0.00    +0.000 OA
ATOM     16  N   UNL     1       6.098   4.758  16.169  0.00  0.00    +0.000 N 
ATOM     17  H   UNL     1       5.173   5.127  16.353  0.00  0.00    +0.000 HD
BRANCH  16  18
ATOM     18  C   UNL     1       6.472   4.595  14.820  0.00  0.00    +0.000 A 
ATOM     19  C   UNL     1       7.524   5.311  14.237  0.00  0.00    +0.000 A 
ATOM     20  C   UNL     1       7.833   5.151  12.885  0.00  0.00    +0.000 A 
ATOM     21  C   UNL     1       7.091   4.267  12.116  0.00  0.00    +0.000 A 
ATOM     22  F   UNL     1       7.369   4.132  10.812  0.00  0.00    +0.000 F 
ATOM     23  C   UNL     1       6.065   3.519  12.682  0.00  0.00    +0.000 A 
ATOM     24  C   UNL     1       5.763   3.673  14.040  0.00  0.00    +0.000 A 
ENDBRANCH  16  18
ENDBRANCH  13  14
ENDBRANCH   1  13
TORSDOF 5
ENDMDL
MODEL 4
REMARK VINA RESULT:      -7.4      0.278      1.043
REMARK  Name = 
REMARK  8 active torsions:
REMARK  status: ('A' for Active; 'I' for Inactive)
REMARK    1  A    between atoms: C_1  and  C_2
REMARK    2  A    between atoms: C_5  and  C_6
REMARK    3  A    between atoms: C_7  and  S_8
REMARK    4  A    between atoms: S_8  and  N_11
REMARK    5  A    between atoms: N_11  and  C_12
REMARK    6  A    between atoms: N_11  and  C_13
REMARK    7  A    between atoms: C_13  and  C_14
REMARK    8  A    between atoms: N_16  and  C_17
REMARK                            x       y       z     vdW  Elec       q    Type
REMARK                         _______ _______ _______ _____ _____    ______ ____
ROOT
ATOM      1  N   UNL     1       3.441   5.075  18.426  0.00  0.00    +0.000 NA
ATOM      2  C   UNL     1       2.126   4.616  17.905  0.00  0.00    +0.000 C 
ENDROOT
BRANCH   1   3
ATOM      3  S   UNL     1       4.744   4.010  18.058  0.00  0.00    +0.000 S 
ATOM      4  O   UNL     1       4.266   3.079  17.059  0.00  0.00    +0.000 OA
ATOM      5  O   UNL     1       5.345   3.578  19.297  0.00  0.00    +0.000 OA
BRANCH   3  12
ATOM      6  C   UNL     1       5.333   4.556  14.787  0.00  0.00    +0.000 C 
ATOM      7  C   UNL     1       6.156   5.070  15.906  0.00  0.00    +0.000 A 
ATOM      8  N   UNL     1       7.249   5.803  15.652  0.00  0.00    +0.000 NA
ATOM      9  O   UNL     1       7.791   6.118  16.885  0.00  0.00    +0.000 OA
ATOM     10  C   UNL     1       7.036   5.563  17.874  0.00  0.00    +0.000 A 
ATOM     11  C   UNL     1       7.505   5.796  19.254  0.00  0.00    +0.000 C 
ATOM     12  C   UNL     1       5.987   4.893  17.295  0.00  0.00    +0.000 A 
ENDBRANCH   3  12
ENDBRANCH   1   3
BRANCH   1  13
ATOM     13  C   UNL     1       3.331   5.330  19.899  0.00  0.00    +0.000 C 
BRANCH  13  14
ATOM     14  C   UNL     1       2.134   6.154  20.335  0.00  0.00    +0.000 C 
ATOM     15  O   UNL     1       1.116   5.591  20.728  0.00  0.00    +0.000 OA
ATOM     16  N   UNL     1       2.295   7.519  20.146  0.00  0.00    +0.000 N 
ATOM     17  H   UNL     1       3.110   7.819  19.625  0.00  0.00    +0.000 HD
BRANCH  16  18
ATOM     18  C   UNL     1       1.359   8.508  20.506  0.00  0.00    +0.000 A 
ATOM     19  C   UNL     1       0.761   9.359  19.569  0.00  0.00    +0.000 A 
ATOM     20  C   UNL     1      -0.129  10.356  19.976  0.00  0.00    +0.000 A 
ATOM     21  C   UNL     1      -0.427  10.495  21.323  0.00  0.00    +0.000 A 
ATOM     22  F   UNL     1      -1.261  11.468  21.717  0.00  0.00    +0.000 F 
ATOM     23  C   UNL     1       0.126   9.639  22.267  0.00  0.00    +0.000 A 
ATOM     24  C   UNL     1       1.011   8.634  21.857  0.00  0.00    +0.000 A 
ENDBRANCH  16  18
ENDBRANCH  13  14
ENDBRANCH   1  13
TORSDOF 5
ENDMDL
MODEL 5
REMARK VINA RESULT:      -7.3      1.097      1.122
REMARK  Name = 
REMARK  8 active torsions:
REMARK  status: ('A' for Active; 'I' for Inactive)
REMARK    1  A    between atoms: C_1  and  C_2
REMARK    2  A    between atoms: C_5  and  C_6
REMARK    3  A    between atoms: C_7  and  S_8
REMARK    4  A    between atoms: S_8  and  N_11
REMARK    5  A    between atoms: N_11  and  C_12
REMARK    6  A    between atoms: N_11  and  C_13
REMARK    7  A    between atoms: C_13  and  C_14
REMARK    8  A    between atoms: N_16  and  C_17
REMARK                            x       y       z     vdW  Elec       q    Type
REMARK                         _______ _______ _______ _____ _____    ______ ____
ROOT
ATOM      1  N   UNL     1       3.602   4.801  18.339  0.00  0.00    +0.000 NA
ATOM      2  C   UNL     1       2.615   4.083  17.492  0.00  0.00    +0.000 C 
ENDROOT
BRANCH   1   3
ATOM      3  S   UNL     1       5.234   4.322  18.063  0.00  0.00    +0.000 S 
ATOM      4  O   UNL     1       5.267   3.633  16.792  0.00  0.00    +0.000 OA
ATOM      5  O   UNL     1       5.750   3.736  19.277  0.00  0.00    +0.000 OA
BRANCH   3  12
ATOM      6  C   UNL     1       4.973   6.823  15.822  0.00  0.00    +0.000 C 
ATOM      7  C   UNL     1       6.009   6.717  16.875  0.00  0.00    +0.000 A 
ATOM      8  N   UNL     1       6.958   7.658  16.977  0.00  0.00    +0.000 NA
ATOM      9  O   UNL     1       7.763   7.273  18.034  0.00  0.00    +0.000 OA
ATOM     10  C   UNL     1       7.309   6.098  18.554  0.00  0.00    +0.000 A 
ATOM     11  C   UNL     1       8.084   5.547  19.682  0.00  0.00    +0.000 C 
ATOM     12  C   UNL     1       6.195   5.714  17.848  0.00  0.00    +0.000 A 
ENDBRANCH   3  12
ENDBRANCH   1   3
BRANCH   1  13
ATOM     13  C   UNL     1       3.218   4.658  19.781  0.00  0.00    +0.000 C 
BRANCH  13  14
ATOM     14  C   UNL     1       2.152   5.617  20.275  0.00  0.00    +0.000 C 
ATOM     15  O   UNL     1       1.138   5.181  20.812  0.00  0.00    +0.000 OA
ATOM     16  N   UNL     1       2.411   6.946  19.968  0.00  0.00    +0.000 N 
ATOM     17  H   UNL     1       3.187   7.133  19.345  0.00  0.00    +0.000 HD
BRANCH  16  18
ATOM     18  C   UNL     1       1.609   8.041  20.348  0.00  0.00    +0.000 A 
ATOM     19  C   UNL     1       1.164   8.231  21.661  0.00  0.00    +0.000 A 
ATOM     20  C   UNL     1       0.334   9.307  21.984  0.00  0.00    +0.000 A 
ATOM     21  C   UNL     1      -0.045  10.198  20.992  0.00  0.00    +0.000 A 
ATOM     22  F   UNL     1      -0.863  11.216  21.295  0.00  0.00    +0.000 F 
ATOM     23  C   UNL     1       0.414  10.050  19.689  0.00  0.00    +0.000 A 
ATOM     24  C   UNL     1       1.254   8.977  19.368  0.00  0.00    +0.000 A 
ENDBRANCH  16  18
ENDBRANCH  13  14
ENDBRANCH   1  13
TORSDOF 5
ENDMDL
MODEL 6
REMARK VINA RESULT:      -7.2      0.798      1.768
REMARK  Name = 
REMARK  8 active torsions:
REMARK  status: ('A' for Active; 'I' for Inactive)
REMARK    1  A    between atoms: C_1  and  C_2
REMARK    2  A    between atoms: C_5  and  C_6
REMARK    3  A    between atoms: C_7  and  S_8
REMARK    4  A    between atoms: S_8  and  N_11
REMARK    5  A    between atoms: N_11  and  C_12
REMARK    6  A    between atoms: N_11  and  C_13
REMARK    7  A    between atoms: C_13  and  C_14
REMARK    8  A    between atoms: N_16  and  C_17
REMARK                            x       y       z     vdW  Elec       q    Type
REMARK                         _______ _______ _______ _____ _____    ______ ____
ROOT
ATOM      1  N   UNL     1       4.030   5.309  18.766  0.00  0.00    +0.000 NA
ATOM      2  C   UNL     1       3.159   4.813  17.668  0.00  0.00    +0.000 C 
ENDROOT
BRANCH   1   3
ATOM      3  S   UNL     1       5.618   4.640  18.748  0.00  0.00    +0.000 S 
ATOM      4  O   UNL     1       5.477   3.208  18.604  0.00  0.00    +0.000 OA
ATOM      5  O   UNL     1       6.380   5.242  19.816  0.00  0.00    +0.000 OA
BRANCH   3  12
ATOM      6  C   UNL     1       7.698   7.244  18.263  0.00  0.00    +0.000 C 
ATOM      7  C   UNL     1       7.286   6.270  17.226  0.00  0.00    +0.000 A 
ATOM      8  N   UNL     1       7.732   6.399  15.970  0.00  0.00    +0.000 NA
ATOM      9  O   UNL     1       7.168   5.357  15.257  0.00  0.00    +0.000 OA
ATOM     10  C   UNL     1       6.375   4.614  16.078  0.00  0.00    +0.000 A 
ATOM     11  C   UNL     1       5.684   3.471  15.450  0.00  0.00    +0.000 C 
ATOM     12  C   UNL     1       6.424   5.159  17.337  0.00  0.00    +0.000 A 
ENDBRANCH   3  12
ENDBRANCH   1   3
BRANCH   1  13
ATOM     13  C   UNL     1       3.348   5.084  20.082  0.00  0.00    +0.000 C 
BRANCH  13  14
ATOM     14  C   UNL     1       2.142   5.962  20.355  0.00  0.00    +0.000 C 
ATOM     15  O   UNL     1       1.045   5.448  20.558  0.00  0.00    +0.000 OA
ATOM     16  N   UNL     1       2.403   7.321  20.248  0.00  0.00    +0.000 N 
ATOM     17  H   UNL     1       3.306   7.588  19.876  0.00  0.00    +0.000 HD
BRANCH  16  18
ATOM     18  C   UNL     1       1.474   8.351  20.494  0.00  0.00    +0.000 A 
ATOM     19  C   UNL     1       0.930   8.590  21.761  0.00  0.00    +0.000 A 
ATOM     20  C   UNL     1      -0.022   9.595  21.951  0.00  0.00    +0.000 A 
ATOM     21  C   UNL     1      -0.424  10.366  20.871  0.00  0.00    +0.000 A 
ATOM     22  F   UNL     1      -1.357  11.312  21.047  0.00  0.00    +0.000 F 
ATOM     23  C   UNL     1       0.129  10.170  19.612  0.00  0.00    +0.000 A 
ATOM     24  C   UNL     1       1.091   9.170  19.424  0.00  0.00    +0.000 A 
ENDBRANCH  16  18
ENDBRANCH  13  14
ENDBRANCH   1  13
TORSDOF 5
ENDMDL
MODEL 7
REMARK VINA RESULT:      -7.2      4.419      7.950
REMARK  Name = 
REMARK  8 active torsions:
REMARK  status: ('A' for Active; 'I' for Inactive)
REMARK    1  A    between atoms: C_1  and  C_2
REMARK    2  A    between atoms: C_5  and  C_6
REMARK    3  A    between atoms: C_7  and  S_8
REMARK    4  A    between atoms: S_8  and  N_11
REMARK    5  A    between atoms: N_11  and  C_12
REMARK    6  A    between atoms: N_11  and  C_13
REMARK    7  A    between atoms: C_13  and  C_14
REMARK    8  A    between atoms: N_16  and  C_17
REMARK                            x       y       z     vdW  Elec       q    Type
REMARK                         _______ _______ _______ _____ _____    ______ ____
ROOT
ATOM      1  N   UNL     1       4.559   5.216  18.445  0.00  0.00    +0.000 NA
ATOM      2  C   UNL     1       3.989   6.056  19.531  0.00  0.00    +0.000 C 
ENDROOT
BRANCH   1   3
ATOM      3  S   UNL     1       4.288   3.528  18.659  0.00  0.00    +0.000 S 
ATOM      4  O   UNL     1       5.204   3.075  19.682  0.00  0.00    +0.000 OA
ATOM      5  O   UNL     1       4.210   2.909  17.357  0.00  0.00    +0.000 OA
BRANCH   3  12
ATOM      6  C   UNL     1       1.262   4.312  17.404  0.00  0.00    +0.000 C 
ATOM      7  C   UNL     1       1.507   3.654  18.708  0.00  0.00    +0.000 A 
ATOM      8  N   UNL     1       0.476   3.340  19.504  0.00  0.00    +0.000 NA
ATOM      9  O   UNL     1       1.028   2.755  20.629  0.00  0.00    +0.000 OA
ATOM     10  C   UNL     1       2.386   2.734  20.516  0.00  0.00    +0.000 A 
ATOM     11  C   UNL     1       3.120   2.155  21.658  0.00  0.00    +0.000 C 
ATOM     12  C   UNL     1       2.730   3.292  19.310  0.00  0.00    +0.000 A 
ENDBRANCH   3  12
ENDBRANCH   1   3
BRANCH   1  13
ATOM     13  C   UNL     1       6.017   5.529  18.287  0.00  0.00    +0.000 C 
BRANCH  13  14
ATOM     14  C   UNL     1       6.672   4.988  17.031  0.00  0.00    +0.000 C 
ATOM     15  O   UNL     1       7.779   4.461  17.096  0.00  0.00    +0.000 OA
ATOM     16  N   UNL     1       5.952   5.243  15.871  0.00  0.00    +0.000 N 
ATOM     17  H   UNL     1       5.156   5.863  15.950  0.00  0.00    +0.000 HD
BRANCH  16  18
ATOM     18  C   UNL     1       6.312   4.813  14.578  0.00  0.00    +0.000 A 
ATOM     19  C   UNL     1       5.599   3.827  13.885  0.00  0.00    +0.000 A 
ATOM     20  C   UNL     1       6.017   3.399  12.623  0.00  0.00    +0.000 A 
ATOM     21  C   UNL     1       7.146   3.965  12.050  0.00  0.00    +0.000 A 
ATOM     22  F   UNL     1       7.563   3.536  10.851  0.00  0.00    +0.000 F 
ATOM     23  C   UNL     1       7.848   4.970  12.704  0.00  0.00    +0.000 A 
ATOM     24  C   UNL     1       7.423   5.405  13.964  0.00  0.00    +0.000 A 
ENDBRANCH  16  18
ENDBRANCH  13  14
ENDBRANCH   1  13
TORSDOF 5
ENDMDL
MODEL 8
REMARK VINA RESULT:      -7.1      2.504      4.405
REMARK  Name = 
REMARK  8 active torsions:
REMARK  status: ('A' for Active; 'I' for Inactive)
REMARK    1  A    between atoms: C_1  and  C_2
REMARK    2  A    between atoms: C_5  and  C_6
REMARK    3  A    between atoms: C_7  and  S_8
REMARK    4  A    between atoms: S_8  and  N_11
REMARK    5  A    between atoms: N_11  and  C_12
REMARK    6  A    between atoms: N_11  and  C_13
REMARK    7  A    between atoms: C_13  and  C_14
REMARK    8  A    between atoms: N_16  and  C_17
REMARK                            x       y       z     vdW  Elec       q    Type
REMARK                         _______ _______ _______ _____ _____    ______ ____
ROOT
ATOM      1  N   UNL     1       4.567   3.628  17.859  0.00  0.00    +0.000 NA
ATOM      2  C   UNL     1       4.664   4.204  16.492  0.00  0.00    +0.000 C 
ENDROOT
BRANCH   1   3
ATOM      3  S   UNL     1       3.042   2.903  18.200  0.00  0.00    +0.000 S 
ATOM      4  O   UNL     1       3.097   1.543  17.711  0.00  0.00    +0.000 OA
ATOM      5  O   UNL     1       2.000   3.825  17.814  0.00  0.00    +0.000 OA
BRANCH   3  12
ATOM      6  C   UNL     1       0.578   4.010  20.211  0.00  0.00    +0.000 C 
ATOM      7  C   UNL     1       1.778   3.266  20.654  0.00  0.00    +0.000 A 
ATOM      8  N   UNL     1       1.960   3.000  21.955  0.00  0.00    +0.000 NA
ATOM      9  O   UNL     1       3.157   2.312  22.039  0.00  0.00    +0.000 OA
ATOM     10  C   UNL     1       3.699   2.179  20.797  0.00  0.00    +0.000 A 
ATOM     11  C   UNL     1       4.997   1.480  20.729  0.00  0.00    +0.000 C 
ATOM     12  C   UNL     1       2.854   2.768  19.889  0.00  0.00    +0.000 A 
ENDBRANCH   3  12
ENDBRANCH   1   3
BRANCH   1  13
ATOM     13  C   UNL     1       4.919   4.679  18.868  0.00  0.00    +0.000 C 
BRANCH  13  14
ATOM     14  C   UNL     1       4.338   6.057  18.611  0.00  0.00    +0.000 C 
ATOM     15  O   UNL     1       4.965   6.869  17.936  0.00  0.00    +0.000 OA
ATOM     16  N   UNL     1       3.143   6.293  19.278  0.00  0.00    +0.000 N 
ATOM     17  H   UNL     1       2.851   5.602  19.958  0.00  0.00    +0.000 HD
BRANCH  16  18
ATOM     18  C   UNL     1       2.373   7.469  19.178  0.00  0.00    +0.000 A 
ATOM     19  C   UNL     1       1.761   8.067  20.286  0.00  0.00    +0.000 A 
ATOM     20  C   UNL     1       0.970   9.207  20.136  0.00  0.00    +0.000 A 
ATOM     21  C   UNL     1       0.796   9.754  18.873  0.00  0.00    +0.000 A 
ATOM     22  F   UNL     1       0.015  10.833  18.723  0.00  0.00    +0.000 F 
ATOM     23  C   UNL     1       1.422   9.199  17.764  0.00  0.00    +0.000 A 
ATOM     24  C   UNL     1       2.224   8.062  17.918  0.00  0.00    +0.000 A 
ENDBRANCH  16  18
ENDBRANCH  13  14
ENDBRANCH   1  13
TORSDOF 5
ENDMDL
MODEL 9
REMARK VINA RESULT:      -7.0      3.882      7.911
REMARK  Name = 
REMARK  8 active torsions:
REMARK  status: ('A' for Active; 'I' for Inactive)
REMARK    1  A    between atoms: C_1  and  C_2
REMARK    2  A    between atoms: C_5  and  C_6
REMARK    3  A    between atoms: C_7  and  S_8
REMARK    4  A    between atoms: S_8  and  N_11
REMARK    5  A    between atoms: N_11  and  C_12
REMARK    6  A    between atoms: N_11  and  C_13
REMARK    7  A    between atoms: C_13  and  C_14
REMARK    8  A    between atoms: N_16  and  C_17
REMARK                            x       y       z     vdW  Elec       q    Type
REMARK                         _______ _______ _______ _____ _____    ______ ____
ROOT
ATOM      1  N   UNL     1       4.986   5.076  18.950  0.00  0.00    +0.000 NA
ATOM      2  C   UNL     1       4.905   3.598  18.809  0.00  0.00    +0.000 C 
ENDROOT
BRANCH   1   3
ATOM      3  S   UNL     1       3.781   5.925  18.058  0.00  0.00    +0.000 S 
ATOM      4  O   UNL     1       3.000   4.937  17.347  0.00  0.00    +0.000 OA
ATOM      5  O   UNL     1       4.406   7.044  17.395  0.00  0.00    +0.000 OA
BRANCH   3  12
ATOM      6  C   UNL     1       2.340   4.709  20.849  0.00  0.00    +0.000 C 
ATOM      7  C   UNL     1       2.139   6.070  20.302  0.00  0.00    +0.000 A 
ATOM      8  N   UNL     1       1.310   6.923  20.918  0.00  0.00    +0.000 NA
ATOM      9  O   UNL     1       1.334   8.086  20.169  0.00  0.00    +0.000 OA
ATOM     10  C   UNL     1       2.162   7.925  19.099  0.00  0.00    +0.000 A 
ATOM     11  C   UNL     1       2.274   9.081  18.188  0.00  0.00    +0.000 C 
ATOM     12  C   UNL     1       2.695   6.660  19.148  0.00  0.00    +0.000 A 
ENDBRANCH   3  12
ENDBRANCH   1   3
BRANCH   1  13
ATOM     13  C   UNL     1       6.367   5.536  18.593  0.00  0.00    +0.000 C 
BRANCH  13  14
ATOM     14  C   UNL     1       6.943   4.954  17.316  0.00  0.00    +0.000 C 
ATOM     15  O   UNL     1       7.978   4.295  17.357  0.00  0.00    +0.000 OA
ATOM     16  N   UNL     1       6.252   5.326  16.171  0.00  0.00    +0.000 N 
ATOM     17  H   UNL     1       5.538   6.037  16.274  0.00  0.00    +0.000 HD
BRANCH  16  18
ATOM     18  C   UNL     1       6.548   4.892  14.863  0.00  0.00    +0.000 A 
ATOM     19  C   UNL     1       7.623   5.399  14.124  0.00  0.00    +0.000 A 
ATOM     20  C   UNL     1       7.853   4.972  12.815  0.00  0.00    +0.000 A 
ATOM     21  C   UNL     1       7.009   4.030  12.246  0.00  0.00    +0.000 A 
ATOM     22  F   UNL     1       7.212   3.639  10.981  0.00  0.00    +0.000 F 
ATOM     23  C   UNL     1       5.957   3.486  12.973  0.00  0.00    +0.000 A 
ATOM     24  C   UNL     1       5.733   3.907  14.290  0.00  0.00    +0.000 A 
ENDBRANCH  16  18
ENDBRANCH  13  14
ENDBRANCH   1  13
TORSDOF 5
ENDMDL
