MODEL 1
REMARK VINA RESULT:      -7.3      0.000      0.000
REMARK  Name = 
REMARK  14 active torsions:
REMARK  status: ('A' for Active; 'I' for Inactive)
REMARK    1  A    between atoms: C_1  and  C_2
REMARK    2  A    between atoms: C_2  and  C_3
REMARK    3  A    between atoms: C_3  and  C_4
REMARK    4  A    between atoms: C_4  and  C_5
REMARK    5  A    between atoms: C_5  and  C_6
REMARK    6  A    between atoms: C_6  and  C_7
REMARK    7  A    between atoms: C_7  and  C_8
REMARK    8  A    between atoms: C_8  and  C_9
REMARK    9  A    between atoms: C_9  and  C_10
REMARK   10  A    between atoms: C_10  and  C_11
REMARK   11  A    between atoms: C_12  and  C_13
REMARK   12  A    between atoms: N_15  and  C_16
REMARK   13  A    between atoms: C_16  and  C_17
REMARK   14  A    between atoms: C_17  and  C_18
REMARK                            x       y       z     vdW  Elec       q    Type
REMARK                         _______ _______ _______ _____ _____    ______ ____
ROOT
ATOM      1  C   UNL     1       7.396   6.553  17.505  0.00  0.00    +0.000 C 
ATOM      2  O   UNL     1       7.462   6.212  18.684  0.00  0.00    +0.000 OA
ATOM      3  N   UNL     1       7.597   7.839  17.071  0.00  0.00    +0.000 N 
ATOM      4  H   UNL     1       7.498   8.073  16.091  0.00  0.00    +0.000 HD
ENDROOT
BRANCH   1   7
ATOM      5  C   UNL     1       5.844   5.204  16.084  0.00  0.00    +0.000 C 
ATOM      6  C   UNL     1       5.668   4.194  14.977  0.00  0.00    +0.000 C 
ATOM      7  C   UNL     1       7.097   5.584  16.422  0.00  0.00    +0.000 C 
BRANCH   5   8
ATOM      8  C   UNL     1       4.619   5.780  16.770  0.00  0.00    +0.000 C 
BRANCH   8   9
ATOM      9  C   UNL     1       3.939   4.917  17.824  0.00  0.00    +0.000 C 
BRANCH   9  10
ATOM     10  C   UNL     1       3.306   3.670  17.216  0.00  0.00    +0.000 C 
BRANCH  10  11
ATOM     11  C   UNL     1       3.039   2.653  18.310  0.00  0.00    +0.000 C 
BRANCH  11  12
ATOM     12  C   UNL     1       1.565   2.287  18.350  0.00  0.00    +0.000 C 
BRANCH  12  13
ATOM     13  C   UNL     1       0.874   3.036  19.481  0.00  0.00    +0.000 C 
BRANCH  13  14
ATOM     14  C   UNL     1       1.525   2.701  20.815  0.00  0.00    +0.000 C 
BRANCH  14  16
ATOM     15  C   UNL     1       1.685   5.197  20.724  0.00  0.00    +0.000 C 
ATOM     16  C   UNL     1       2.145   3.943  21.444  0.00  0.00    +0.000 C 
ENDBRANCH  14  16
ENDBRANCH  13  14
ENDBRANCH  12  13
ENDBRANCH  11  12
ENDBRANCH  10  11
ENDBRANCH   9  10
ENDBRANCH   8   9
ENDBRANCH   5   8
ENDBRANCH   1   7
BRANCH   3  17
ATOM     17  C   UNL     1       7.869   8.869  18.061  0.00  0.00    +0.000 C 
BRANCH  17  18
ATOM     18  C   UNL     1       8.816   9.965  17.581  0.00  0.00    +0.000 C 
BRANCH  18  19
ATOM     19  C   UNL     1       9.391  10.747  18.723  0.00  0.00    +0.000 A 
ATOM     20  C   UNL     1       9.276  10.445  20.067  0.00  0.00    +0.000 A 
ATOM     21  N   UNL     1       9.938  11.406  20.784  0.00  0.00    +0.000 N 
ATOM     22  C   UNL     1      10.476  12.346  19.937  0.00  0.00    +0.000 A 
ATOM     23  C   UNL     1      11.219  13.497  20.221  0.00  0.00    +0.000 A 
ATOM     24  C   UNL     1      11.640  14.280  19.142  0.00  0.00    +0.000 A 
ATOM     25  C   UNL     1      11.338  13.918  17.832  0.00  0.00    +0.000 A 
ATOM     26  C   UNL     1      10.599  12.759  17.566  0.00  0.00    +0.000 A 
ATOM     27  C   UNL     1      10.153  11.957  18.636  0.00  0.00    +0.000 A 
ATOM     28  H   UNL     1      10.022  11.429  21.791  0.00  0.00    +0.000 HD
ENDBRANCH  18  19
ENDBRANCH  17  18
ENDBRANCH   3  17
TORSDOF 12
ENDMDL
MODEL 2
REMARK VINA RESULT:      -7.0      1.436      2.281
REMARK  Name = 
REMARK  14 active torsions:
REMARK  status: ('A' for Active; 'I' for Inactive)
REMARK    1  A    between atoms: C_1  and  C_2
REMARK    2  A    between atoms: C_2  and  C_3
REMARK    3  A    between atoms: C_3  and  C_4
REMARK    4  A    between atoms: C_4  and  C_5
REMARK    5  A    between atoms: C_5  and  C_6
REMARK    6  A    between atoms: C_6  and  C_7
REMARK    7  A    between atoms: C_7  and  C_8
REMARK    8  A    between atoms: C_8  and  C_9
REMARK    9  A    between atoms: C_9  and  C_10
REMARK   10  A    between atoms: C_10  and  C_11
REMARK   11  A    between atoms: C_12  and  C_13
REMARK   12  A    between atoms: N_15  and  C_16
REMARK   13  A    between atoms: C_16  and  C_17
REMARK   14  A    between atoms: C_17  and  C_18
REMARK                            x       y       z     vdW  Elec       q    Type
REMARK                         _______ _______ _______ _____ _____    ______ ____
ROOT
ATOM      1  C   UNL     1       7.487   6.686  17.569  0.00  0.00    +0.000 C 
ATOM      2  O   UNL     1       7.307   6.459  18.763  0.00  0.00    +0.000 OA
ATOM      3  N   UNL     1       7.725   7.937  17.058  0.00  0.00    +0.000 N 
ATOM      4  H   UNL     1       7.834   8.075  16.061  0.00  0.00    +0.000 HD
ENDROOT
BRANCH   1   7
ATOM      5  C   UNL     1       6.395   5.304  15.795  0.00  0.00    +0.000 C 
ATOM      6  C   UNL     1       6.498   4.167  14.808  0.00  0.00    +0.000 C 
ATOM      7  C   UNL     1       7.474   5.605  16.552  0.00  0.00    +0.000 C 
BRANCH   5   8
ATOM      8  C   UNL     1       5.100   6.089  15.897  0.00  0.00    +0.000 C 
BRANCH   8   9
ATOM      9  C   UNL     1       4.187   5.779  17.075  0.00  0.00    +0.000 C 
BRANCH   9  10
ATOM     10  C   UNL     1       3.720   7.047  17.781  0.00  0.00    +0.000 C 
BRANCH  10  11
ATOM     11  C   UNL     1       2.430   6.764  18.528  0.00  0.00    +0.000 C 
BRANCH  11  12
ATOM     12  C   UNL     1       2.218   5.268  18.680  0.00  0.00    +0.000 C 
BRANCH  12  13
ATOM     13  C   UNL     1       1.999   4.919  20.145  0.00  0.00    +0.000 C 
BRANCH  13  14
ATOM     14  C   UNL     1       0.885   3.891  20.286  0.00  0.00    +0.000 C 
BRANCH  14  16
ATOM     15  C   UNL     1       2.733   2.693  21.473  0.00  0.00    +0.000 C 
ATOM     16  C   UNL     1       1.230   2.858  21.352  0.00  0.00    +0.000 C 
ENDBRANCH  14  16
ENDBRANCH  13  14
ENDBRANCH  12  13
ENDBRANCH  11  12
ENDBRANCH  10  11
ENDBRANCH   9  10
ENDBRANCH   8   9
ENDBRANCH   5   8
ENDBRANCH   1   7
BRANCH   3  17
ATOM     17  C   UNL     1       7.730   9.068  17.972  0.00  0.00    +0.000 C 
BRANCH  17  18
ATOM     18  C   UNL     1       9.003   9.197  18.803  0.00  0.00    +0.000 C 
BRANCH  18  19
ATOM     19  C   UNL     1       9.506  10.609  18.840  0.00  0.00    +0.000 A 
ATOM     20  C   UNL     1      10.098  11.299  17.798  0.00  0.00    +0.000 A 
ATOM     21  N   UNL     1      10.415  12.556  18.239  0.00  0.00    +0.000 N 
ATOM     22  C   UNL     1      10.056  12.704  19.558  0.00  0.00    +0.000 A 
ATOM     23  C   UNL     1      10.195  13.802  20.414  0.00  0.00    +0.000 A 
ATOM     24  C   UNL     1       9.735  13.664  21.727  0.00  0.00    +0.000 A 
ATOM     25  C   UNL     1       9.150  12.477  22.160  0.00  0.00    +0.000 A 
ATOM     26  C   UNL     1       9.013  11.390  21.289  0.00  0.00    +0.000 A 
ATOM     27  C   UNL     1       9.478  11.499  19.962  0.00  0.00    +0.000 A 
ATOM     28  H   UNL     1      10.852  13.277  17.681  0.00  0.00    +0.000 HD
ENDBRANCH  18  19
ENDBRANCH  17  18
ENDBRANCH   3  17
TORSDOF 12
ENDMDL
MODEL 3
REMARK VINA RESULT:      -6.8      1.563      2.020
REMARK  Name = 
REMARK  14 active torsions:
REMARK  status: ('A' for Active; 'I' for Inactive)
REMARK    1  A    between atoms: C_1  and  C_2
REMARK    2  A    between atoms: C_2  and  C_3
REMARK    3  A    between atoms: C_3  and  C_4
REMARK    4  A    between atoms: C_4  and  C_5
REMARK    5  A    between atoms: C_5  and  C_6
REMARK    6  A    between atoms: C_6  and  C_7
REMARK    7  A    between atoms: C_7  and  C_8
REMARK    8  A    between atoms: C_8  and  C_9
REMARK    9  A    between atoms: C_9  and  C_10
REMARK   10  A    between atoms: C_10  and  C_11
REMARK   11  A    between atoms: C_12  and  C_13
REMARK   12  A    between atoms: N_15  and  C_16
REMARK   13  A    between atoms: C_16  and  C_17
REMARK   14  A    between atoms: C_17  and  C_18
REMARK                            x       y       z     vdW  Elec       q    Type
REMARK                         _______ _______ _______ _____ _____    ______ ____
ROOT
ATOM      1  C   UNL     1       7.646   7.163  17.616  0.00  0.00    +0.000 C 
ATOM      2  O   UNL     1       7.898   6.644  18.702  0.00  0.00    +0.000 OA
ATOM      3  N   UNL     1       7.842   8.494  17.343  0.00  0.00    +0.000 N 
ATOM      4  H   UNL     1       7.586   8.877  16.442  0.00  0.00    +0.000 HD
ENDROOT
BRANCH   1   7
ATOM      5  C   UNL     1       5.841   5.911  16.424  0.00  0.00    +0.000 C 
ATOM      6  C   UNL     1       5.415   5.109  15.219  0.00  0.00    +0.000 C 
ATOM      7  C   UNL     1       7.108   6.379  16.477  0.00  0.00    +0.000 C 
BRANCH   5   8
ATOM      8  C   UNL     1       4.836   6.190  17.527  0.00  0.00    +0.000 C 
BRANCH   8   9
ATOM      9  C   UNL     1       3.561   5.358  17.537  0.00  0.00    +0.000 C 
BRANCH   9  10
ATOM     10  C   UNL     1       3.835   3.903  17.904  0.00  0.00    +0.000 C 
BRANCH  10  11
ATOM     11  C   UNL     1       2.747   3.021  17.321  0.00  0.00    +0.000 C 
BRANCH  11  12
ATOM     12  C   UNL     1       1.536   2.991  18.237  0.00  0.00    +0.000 C 
BRANCH  12  13
ATOM     13  C   UNL     1       1.869   2.232  19.514  0.00  0.00    +0.000 C 
BRANCH  13  14
ATOM     14  C   UNL     1       1.239   2.917  20.718  0.00  0.00    +0.000 C 
BRANCH  14  16
ATOM     15  C   UNL     1       2.250   5.187  21.010  0.00  0.00    +0.000 C 
ATOM     16  C   UNL     1       1.066   4.410  20.466  0.00  0.00    +0.000 C 
ENDBRANCH  14  16
ENDBRANCH  13  14
ENDBRANCH  12  13
ENDBRANCH  11  12
ENDBRANCH  10  11
ENDBRANCH   9  10
ENDBRANCH   8   9
ENDBRANCH   5   8
ENDBRANCH   1   7
BRANCH   3  17
ATOM     17  C   UNL     1       8.341   9.352  18.406  0.00  0.00    +0.000 C 
BRANCH  17  18
ATOM     18  C   UNL     1       9.372  10.380  17.949  0.00  0.00    +0.000 C 
BRANCH  18  19
ATOM     19  C   UNL     1       8.994  11.771  18.358  0.00  0.00    +0.000 A 
ATOM     20  C   UNL     1       8.463  12.753  17.542  0.00  0.00    +0.000 A 
ATOM     21  N   UNL     1       8.261  13.878  18.296  0.00  0.00    +0.000 N 
ATOM     22  C   UNL     1       8.663  13.661  19.593  0.00  0.00    +0.000 A 
ATOM     23  C   UNL     1       8.651  14.520  20.698  0.00  0.00    +0.000 A 
ATOM     24  C   UNL     1       9.130  14.021  21.913  0.00  0.00    +0.000 A 
ATOM     25  C   UNL     1       9.593  12.713  22.018  0.00  0.00    +0.000 A 
ATOM     26  C   UNL     1       9.592  11.865  20.904  0.00  0.00    +0.000 A 
ATOM     27  C   UNL     1       9.124  12.345  19.664  0.00  0.00    +0.000 A 
ATOM     28  H   UNL     1       7.874  14.747  17.955  0.00  0.00    +0.000 HD
ENDBRANCH  18  19
ENDBRANCH  17  18
ENDBRANCH   3  17
TORSDOF 12
ENDMDL
MODEL 4
REMARK VINA RESULT:      -6.8      5.664      8.592
REMARK  Name = 
REMARK  14 active torsions:
REMARK  status: ('A' for Active; 'I' for Inactive)
REMARK    1  A    between atoms: C_1  and  C_2
REMARK    2  A    between atoms: C_2  and  C_3
REMARK    3  A    between atoms: C_3  and  C_4
REMARK    4  A    between atoms: C_4  and  C_5
REMARK    5  A    between atoms: C_5  and  C_6
REMARK    6  A    between atoms: C_6  and  C_7
REMARK    7  A    between atoms: C_7  and  C_8
REMARK    8  A    between atoms: C_8  and  C_9
REMARK    9  A    between atoms: C_9  and  C_10
REMARK   10  A    between atoms: C_10  and  C_11
REMARK   11  A    between atoms: C_12  and  C_13
REMARK   12  A    between atoms: N_15  and  C_16
REMARK   13  A    between atoms: C_16  and  C_17
REMARK   14  A    between atoms: C_17  and  C_18
REMARK                            x       y       z     vdW  Elec       q    Type
REMARK                         _______ _______ _______ _____ _____    ______ ____
ROOT
ATOM      1  C   UNL     1       2.317   6.552  19.055  0.00  0.00    +0.000 C 
ATOM      2  O   UNL     1       3.028   7.010  18.163  0.00  0.00    +0.000 OA
ATOM      3  N   UNL     1       1.669   5.346  18.970  0.00  0.00    +0.000 N 
ATOM      4  H   UNL     1       1.068   5.030  19.721  0.00  0.00    +0.000 HD
ENDROOT
BRANCH   1   7
ATOM      5  C   UNL     1       1.401   8.426  20.433  0.00  0.00    +0.000 C 
ATOM      6  C   UNL     1       1.266   9.076  21.788  0.00  0.00    +0.000 C 
ATOM      7  C   UNL     1       2.100   7.273  20.334  0.00  0.00    +0.000 C 
BRANCH   5   8
ATOM      8  C   UNL     1       0.737   9.067  19.228  0.00  0.00    +0.000 C 
BRANCH   8   9
ATOM      9  C   UNL     1       1.486  10.199  18.538  0.00  0.00    +0.000 C 
BRANCH   9  10
ATOM     10  C   UNL     1       0.934  11.566  18.927  0.00  0.00    +0.000 C 
BRANCH  10  11
ATOM     11  C   UNL     1      -0.500  11.415  19.401  0.00  0.00    +0.000 C 
BRANCH  11  12
ATOM     12  C   UNL     1      -1.458  12.073  18.422  0.00  0.00    +0.000 C 
BRANCH  12  13
ATOM     13  C   UNL     1      -2.812  11.382  18.475  0.00  0.00    +0.000 C 
BRANCH  13  14
ATOM     14  C   UNL     1      -2.752  10.042  17.756  0.00  0.00    +0.000 C 
BRANCH  14  16
ATOM     15  C   UNL     1      -3.245   9.868  15.309  0.00  0.00    +0.000 C 
ATOM     16  C   UNL     1      -2.192  10.205  16.348  0.00  0.00    +0.000 C 
ENDBRANCH  14  16
ENDBRANCH  13  14
ENDBRANCH  12  13
ENDBRANCH  11  12
ENDBRANCH  10  11
ENDBRANCH   9  10
ENDBRANCH   8   9
ENDBRANCH   5   8
ENDBRANCH   1   7
BRANCH   3  17
ATOM     17  C   UNL     1       1.797   4.576  17.743  0.00  0.00    +0.000 C 
BRANCH  17  18
ATOM     18  C   UNL     1       2.666   3.328  17.874  0.00  0.00    +0.000 C 
BRANCH  18  19
ATOM     19  C   UNL     1       4.117   3.671  18.024  0.00  0.00    +0.000 A 
ATOM     20  C   UNL     1       4.851   3.651  19.196  0.00  0.00    +0.000 A 
ATOM     21  N   UNL     1       6.135   4.032  18.908  0.00  0.00    +0.000 N 
ATOM     22  C   UNL     1       6.258   4.316  17.568  0.00  0.00    +0.000 A 
ATOM     23  C   UNL     1       7.371   4.746  16.836  0.00  0.00    +0.000 A 
ATOM     24  C   UNL     1       7.201   4.962  15.465  0.00  0.00    +0.000 A 
ATOM     25  C   UNL     1       5.969   4.747  14.853  0.00  0.00    +0.000 A 
ATOM     26  C   UNL     1       4.868   4.311  15.600  0.00  0.00    +0.000 A 
ATOM     27  C   UNL     1       5.009   4.095  16.986  0.00  0.00    +0.000 A 
ATOM     28  H   UNL     1       6.888   4.097  19.578  0.00  0.00    +0.000 HD
ENDBRANCH  18  19
ENDBRANCH  17  18
ENDBRANCH   3  17
TORSDOF 12
ENDMDL
MODEL 5
REMARK VINA RESULT:      -6.7      3.049      8.411
REMARK  Name = 
REMARK  14 active torsions:
REMARK  status: ('A' for Active; 'I' for Inactive)
REMARK    1  A    between atoms: C_1  and  C_2
REMARK    2  A    between atoms: C_2  and  C_3
REMARK    3  A    between atoms: C_3  and  C_4
REMARK    4  A    between atoms: C_4  and  C_5
REMARK    5  A    between atoms: C_5  and  C_6
REMARK    6  A    between atoms: C_6  and  C_7
REMARK    7  A    between atoms: C_7  and  C_8
REMARK    8  A    between atoms: C_8  and  C_9
REMARK    9  A    between atoms: C_9  and  C_10
REMARK   10  A    between atoms: C_10  and  C_11
REMARK   11  A    between atoms: C_12  and  C_13
REMARK   12  A    between atoms: N_15  and  C_16
REMARK   13  A    between atoms: C_16  and  C_17
REMARK   14  A    between atoms: C_17  and  C_18
REMARK                            x       y       z     vdW  Elec       q    Type
REMARK                         _______ _______ _______ _____ _____    ______ ____
ROOT
ATOM      1  C   UNL     1       4.586   4.494  17.721  0.00  0.00    +0.000 C 
ATOM      2  O   UNL     1       4.387   3.396  18.236  0.00  0.00    +0.000 OA
ATOM      3  N   UNL     1       4.316   5.688  18.342  0.00  0.00    +0.000 N 
ATOM      4  H   UNL     1       4.467   6.565  17.860  0.00  0.00    +0.000 HD
ENDROOT
BRANCH   1   7
ATOM      5  C   UNL     1       6.482   4.675  16.103  0.00  0.00    +0.000 C 
ATOM      6  C   UNL     1       6.940   4.838  14.674  0.00  0.00    +0.000 C 
ATOM      7  C   UNL     1       5.155   4.632  16.357  0.00  0.00    +0.000 C 
BRANCH   5   8
ATOM      8  C   UNL     1       7.515   4.542  17.207  0.00  0.00    +0.000 C 
BRANCH   8   9
ATOM      9  C   UNL     1       7.572   5.653  18.246  0.00  0.00    +0.000 C 
BRANCH   9  10
ATOM     10  C   UNL     1       7.663   7.031  17.600  0.00  0.00    +0.000 C 
BRANCH  10  11
ATOM     11  C   UNL     1       8.464   7.958  18.495  0.00  0.00    +0.000 C 
BRANCH  11  12
ATOM     12  C   UNL     1       8.297   9.402  18.056  0.00  0.00    +0.000 C 
BRANCH  12  13
ATOM     13  C   UNL     1       9.064  10.323  18.993  0.00  0.00    +0.000 C 
BRANCH  13  14
ATOM     14  C   UNL     1      10.041  11.186  18.208  0.00  0.00    +0.000 C 
BRANCH  14  16
ATOM     15  C   UNL     1      11.003  12.270  20.247  0.00  0.00    +0.000 C 
ATOM     16  C   UNL     1      11.309  11.442  19.013  0.00  0.00    +0.000 C 
ENDBRANCH  14  16
ENDBRANCH  13  14
ENDBRANCH  12  13
ENDBRANCH  11  12
ENDBRANCH  10  11
ENDBRANCH   9  10
ENDBRANCH   8   9
ENDBRANCH   5   8
ENDBRANCH   1   7
BRANCH   3  17
ATOM     17  C   UNL     1       3.730   5.658  19.673  0.00  0.00    +0.000 C 
BRANCH  17  18
ATOM     18  C   UNL     1       2.236   5.970  19.706  0.00  0.00    +0.000 C 
BRANCH  18  19
ATOM     19  C   UNL     1       1.955   7.397  19.342  0.00  0.00    +0.000 A 
ATOM     20  C   UNL     1       2.193   7.996  18.118  0.00  0.00    +0.000 A 
ATOM     21  N   UNL     1       1.801   9.306  18.196  0.00  0.00    +0.000 N 
ATOM     22  C   UNL     1       1.322   9.586  19.454  0.00  0.00    +0.000 A 
ATOM     23  C   UNL     1       0.827  10.783  19.986  0.00  0.00    +0.000 A 
ATOM     24  C   UNL     1       0.407  10.775  21.318  0.00  0.00    +0.000 A 
ATOM     25  C   UNL     1       0.470   9.614  22.084  0.00  0.00    +0.000 A 
ATOM     26  C   UNL     1       0.962   8.424  21.534  0.00  0.00    +0.000 A 
ATOM     27  C   UNL     1       1.403   8.406  20.195  0.00  0.00    +0.000 A 
ATOM     28  H   UNL     1       1.854   9.976  17.441  0.00  0.00    +0.000 HD
ENDBRANCH  18  19
ENDBRANCH  17  18
ENDBRANCH   3  17
TORSDOF 12
ENDMDL
MODEL 6
REMARK VINA RESULT:      -6.7      1.864      2.668
REMARK  Name = 
REMARK  14 active torsions:
REMARK  status: ('A' for Active; 'I' for Inactive)
REMARK    1  A    between atoms: C_1  and  C_2
REMARK    2  A    between atoms: C_2  and  C_3
REMARK    3  A    between atoms: C_3  and  C_4
REMARK    4  A    between atoms: C_4  and  C_5
REMARK    5  A    between atoms: C_5  and  C_6
REMARK    6  A    between atoms: C_6  and  C_7
REMARK    7  A    between atoms: C_7  and  C_8
REMARK    8  A    between atoms: C_8  and  C_9
REMARK    9  A    between atoms: C_9  and  C_10
REMARK   10  A    between atoms: C_10  and  C_11
REMARK   11  A    between atoms: C_12  and  C_13
REMARK   12  A    between atoms: N_15  and  C_16
REMARK   13  A    between atoms: C_16  and  C_17
REMARK   14  A    between atoms: C_17  and  C_18
REMARK                            x       y       z     vdW  Elec       q    Type
REMARK                         _______ _______ _______ _____ _____    ______ ____
ROOT
ATOM      1  C   UNL     1       7.498   6.485  17.588  0.00  0.00    +0.000 C 
ATOM      2  O   UNL     1       7.644   6.019  18.716  0.00  0.00    +0.000 OA
ATOM      3  N   UNL     1       7.758   7.793  17.264  0.00  0.00    +0.000 N 
ATOM      4  H   UNL     1       7.590   8.134  16.326  0.00  0.00    +0.000 HD
ENDROOT
BRANCH   1   7
ATOM      5  C   UNL     1       5.746   5.267  16.286  0.00  0.00    +0.000 C 
ATOM      6  C   UNL     1       5.396   4.407  15.097  0.00  0.00    +0.000 C 
ATOM      7  C   UNL     1       7.031   5.656  16.449  0.00  0.00    +0.000 C 
BRANCH   5   8
ATOM      8  C   UNL     1       4.652   5.689  17.250  0.00  0.00    +0.000 C 
BRANCH   8   9
ATOM      9  C   UNL     1       4.040   7.069  17.049  0.00  0.00    +0.000 C 
BRANCH   9  10
ATOM     10  C   UNL     1       3.012   7.396  18.128  0.00  0.00    +0.000 C 
BRANCH  10  11
ATOM     11  C   UNL     1       3.020   6.303  19.181  0.00  0.00    +0.000 C 
BRANCH  11  12
ATOM     12  C   UNL     1       1.984   6.588  20.254  0.00  0.00    +0.000 C 
BRANCH  12  13
ATOM     13  C   UNL     1       1.611   8.064  20.239  0.00  0.00    +0.000 C 
BRANCH  13  14
ATOM     14  C   UNL     1       1.177   8.516  21.626  0.00  0.00    +0.000 C 
BRANCH  14  16
ATOM     15  C   UNL     1      -0.150   9.989  20.100  0.00  0.00    +0.000 C 
ATOM     16  C   UNL     1       0.246   9.720  21.539  0.00  0.00    +0.000 C 
ENDBRANCH  14  16
ENDBRANCH  13  14
ENDBRANCH  12  13
ENDBRANCH  11  12
ENDBRANCH  10  11
ENDBRANCH   9  10
ENDBRANCH   8   9
ENDBRANCH   5   8
ENDBRANCH   1   7
BRANCH   3  17
ATOM     17  C   UNL     1       8.195   8.693  18.318  0.00  0.00    +0.000 C 
BRANCH  17  18
ATOM     18  C   UNL     1       8.536  10.101  17.839  0.00  0.00    +0.000 C 
BRANCH  18  19
ATOM     19  C   UNL     1       9.407  10.829  18.818  0.00  0.00    +0.000 A 
ATOM     20  C   UNL     1       9.436  10.645  20.188  0.00  0.00    +0.000 A 
ATOM     21  N   UNL     1      10.363  11.504  20.719  0.00  0.00    +0.000 N 
ATOM     22  C   UNL     1      10.936  12.261  19.724  0.00  0.00    +0.000 A 
ATOM     23  C   UNL     1      11.913  13.260  19.799  0.00  0.00    +0.000 A 
ATOM     24  C   UNL     1      12.309  13.871  18.606  0.00  0.00    +0.000 A 
ATOM     25  C   UNL     1      11.755  13.489  17.387  0.00  0.00    +0.000 A 
ATOM     26  C   UNL     1      10.784  12.483  17.329  0.00  0.00    +0.000 A 
ATOM     27  C   UNL     1      10.359  11.857  18.519  0.00  0.00    +0.000 A 
ATOM     28  H   UNL     1      10.597  11.576  21.699  0.00  0.00    +0.000 HD
ENDBRANCH  18  19
ENDBRANCH  17  18
ENDBRANCH   3  17
TORSDOF 12
ENDMDL
MODEL 7
REMARK VINA RESULT:      -6.7      5.357      8.055
REMARK  Name = 
REMARK  14 active torsions:
REMARK  status: ('A' for Active; 'I' for Inactive)
REMARK    1  A    between atoms: C_1  and  C_2
REMARK    2  A    between atoms: C_2  and  C_3
REMARK    3  A    between atoms: C_3  and  C_4
REMARK    4  A    between atoms: C_4  and  C_5
REMARK    5  A    between atoms: C_5  and  C_6
REMARK    6  A    between atoms: C_6  and  C_7
REMARK    7  A    between atoms: C_7  and  C_8
REMARK    8  A    between atoms: C_8  and  C_9
REMARK    9  A    between atoms: C_9  and  C_10
REMARK   10  A    between atoms: C_10  and  C_11
REMARK   11  A    between atoms: C_12  and  C_13
REMARK   12  A    between atoms: N_15  and  C_16
REMARK   13  A    between atoms: C_16  and  C_17
REMARK   14  A    between atoms: C_17  and  C_18
REMARK                            x       y       z     vdW  Elec       q    Type
REMARK                         _______ _______ _______ _____ _____    ______ ____
ROOT
ATOM      1  C   UNL     1       2.963   2.460  18.450  0.00  0.00    +0.000 C 
ATOM      2  O   UNL     1       2.442   1.752  17.591  0.00  0.00    +0.000 OA
ATOM      3  N   UNL     1       3.778   3.527  18.168  0.00  0.00    +0.000 N 
ATOM      4  H   UNL     1       4.209   4.058  18.915  0.00  0.00    +0.000 HD
ENDROOT
BRANCH   1   7
ATOM      5  C   UNL     1       1.825   2.891  20.634  0.00  0.00    +0.000 C 
ATOM      6  C   UNL     1       1.710   2.579  22.106  0.00  0.00    +0.000 C 
ATOM      7  C   UNL     1       2.745   2.226  19.900  0.00  0.00    +0.000 C 
BRANCH   5   8
ATOM      8  C   UNL     1       0.897   3.920  20.014  0.00  0.00    +0.000 C 
BRANCH   8   9
ATOM      9  C   UNL     1       1.079   5.370  20.441  0.00  0.00    +0.000 C 
BRANCH   9  10
ATOM     10  C   UNL     1       2.395   5.950  19.934  0.00  0.00    +0.000 C 
BRANCH  10  11
ATOM     11  C   UNL     1       2.216   7.427  19.636  0.00  0.00    +0.000 C 
BRANCH  11  12
ATOM     12  C   UNL     1       2.215   7.674  18.138  0.00  0.00    +0.000 C 
BRANCH  12  13
ATOM     13  C   UNL     1       1.683   9.069  17.841  0.00  0.00    +0.000 C 
BRANCH  13  14
ATOM     14  C   UNL     1       0.867   9.587  19.017  0.00  0.00    +0.000 C 
BRANCH  14  16
ATOM     15  C   UNL     1       0.037  11.944  18.897  0.00  0.00    +0.000 C 
ATOM     16  C   UNL     1       1.192  11.049  19.302  0.00  0.00    +0.000 C 
ENDBRANCH  14  16
ENDBRANCH  13  14
ENDBRANCH  12  13
ENDBRANCH  11  12
ENDBRANCH  10  11
ENDBRANCH   9  10
ENDBRANCH   8   9
ENDBRANCH   5   8
ENDBRANCH   1   7
BRANCH   3  17
ATOM     17  C   UNL     1       4.075   3.821  16.775  0.00  0.00    +0.000 C 
BRANCH  17  18
ATOM     18  C   UNL     1       4.628   5.223  16.535  0.00  0.00    +0.000 C 
BRANCH  18  19
ATOM     19  C   UNL     1       5.807   5.208  15.610  0.00  0.00    +0.000 A 
ATOM     20  C   UNL     1       7.032   5.809  15.829  0.00  0.00    +0.000 A 
ATOM     21  N   UNL     1       7.833   5.564  14.745  0.00  0.00    +0.000 N 
ATOM     22  C   UNL     1       7.153   4.824  13.808  0.00  0.00    +0.000 A 
ATOM     23  C   UNL     1       7.565   4.353  12.556  0.00  0.00    +0.000 A 
ATOM     24  C   UNL     1       6.646   3.616  11.804  0.00  0.00    +0.000 A 
ATOM     25  C   UNL     1       5.368   3.353  12.292  0.00  0.00    +0.000 A 
ATOM     26  C   UNL     1       4.974   3.826  13.549  0.00  0.00    +0.000 A 
ATOM     27  C   UNL     1       5.879   4.581  14.324  0.00  0.00    +0.000 A 
ATOM     28  H   UNL     1       8.788   5.880  14.642  0.00  0.00    +0.000 HD
ENDBRANCH  18  19
ENDBRANCH  17  18
ENDBRANCH   3  17
TORSDOF 12
ENDMDL
MODEL 8
REMARK VINA RESULT:      -6.6      4.659      7.843
REMARK  Name = 
REMARK  14 active torsions:
REMARK  status: ('A' for Active; 'I' for Inactive)
REMARK    1  A    between atoms: C_1  and  C_2
REMARK    2  A    between atoms: C_2  and  C_3
REMARK    3  A    between atoms: C_3  and  C_4
REMARK    4  A    between atoms: C_4  and  C_5
REMARK    5  A    between atoms: C_5  and  C_6
REMARK    6  A    between atoms: C_6  and  C_7
REMARK    7  A    between atoms: C_7  and  C_8
REMARK    8  A    between atoms: C_8  and  C_9
REMARK    9  A    between atoms: C_9  and  C_10
REMARK   10  A    between atoms: C_10  and  C_11
REMARK   11  A    between atoms: C_12  and  C_13
REMARK   12  A    between atoms: N_15  and  C_16
REMARK   13  A    between atoms: C_16  and  C_17
REMARK   14  A    between atoms: C_17  and  C_18
REMARK                            x       y       z     vdW  Elec       q    Type
REMARK                         _______ _______ _______ _____ _____    ______ ____
ROOT
ATOM      1  C   UNL     1       2.858   5.583  19.799  0.00  0.00    +0.000 C 
ATOM      2  O   UNL     1       4.080   5.687  19.712  0.00  0.00    +0.000 OA
ATOM      3  N   UNL     1       1.978   6.187  18.936  0.00  0.00    +0.000 N 
ATOM      4  H   UNL     1       0.979   6.096  19.073  0.00  0.00    +0.000 HD
ENDROOT
BRANCH   1   7
ATOM      5  C   UNL     1       2.269   3.422  20.907  0.00  0.00    +0.000 C 
ATOM      6  C   UNL     1       1.553   2.706  22.026  0.00  0.00    +0.000 C 
ATOM      7  C   UNL     1       2.212   4.772  20.860  0.00  0.00    +0.000 C 
BRANCH   5   8
ATOM      8  C   UNL     1       3.047   2.616  19.883  0.00  0.00    +0.000 C 
BRANCH   8   9
ATOM      9  C   UNL     1       2.274   2.074  18.688  0.00  0.00    +0.000 C 
BRANCH   9  10
ATOM     10  C   UNL     1       3.105   2.113  17.410  0.00  0.00    +0.000 C 
BRANCH  10  11
ATOM     11  C   UNL     1       3.397   3.556  17.041  0.00  0.00    +0.000 C 
BRANCH  11  12
ATOM     12  C   UNL     1       4.886   3.760  16.824  0.00  0.00    +0.000 C 
BRANCH  12  13
ATOM     13  C   UNL     1       5.118   4.932  15.880  0.00  0.00    +0.000 C 
BRANCH  13  14
ATOM     14  C   UNL     1       6.476   5.565  16.144  0.00  0.00    +0.000 C 
BRANCH  14  16
ATOM     15  C   UNL     1       7.560   6.538  18.178  0.00  0.00    +0.000 C 
ATOM     16  C   UNL     1       6.378   6.629  17.231  0.00  0.00    +0.000 C 
ENDBRANCH  14  16
ENDBRANCH  13  14
ENDBRANCH  12  13
ENDBRANCH  11  12
ENDBRANCH  10  11
ENDBRANCH   9  10
ENDBRANCH   8   9
ENDBRANCH   5   8
ENDBRANCH   1   7
BRANCH   3  17
ATOM     17  C   UNL     1       2.513   7.027  17.878  0.00  0.00    +0.000 C 
BRANCH  17  18
ATOM     18  C   UNL     1       2.741   8.480  18.286  0.00  0.00    +0.000 C 
BRANCH  18  19
ATOM     19  C   UNL     1       1.479   9.131  18.763  0.00  0.00    +0.000 A 
ATOM     20  C   UNL     1       0.512   9.728  17.975  0.00  0.00    +0.000 A 
ATOM     21  N   UNL     1      -0.478  10.204  18.793  0.00  0.00    +0.000 N 
ATOM     22  C   UNL     1      -0.175   9.945  20.109  0.00  0.00    +0.000 A 
ATOM     23  C   UNL     1      -0.883  10.253  21.276  0.00  0.00    +0.000 A 
ATOM     24  C   UNL     1      -0.324   9.863  22.496  0.00  0.00    +0.000 A 
ATOM     25  C   UNL     1       0.891   9.183  22.543  0.00  0.00    +0.000 A 
ATOM     26  C   UNL     1       1.583   8.878  21.365  0.00  0.00    +0.000 A 
ATOM     27  C   UNL     1       1.046   9.269  20.122  0.00  0.00    +0.000 A 
ATOM     28  H   UNL     1      -1.314  10.680  18.481  0.00  0.00    +0.000 HD
ENDBRANCH  18  19
ENDBRANCH  17  18
ENDBRANCH   3  17
TORSDOF 12
ENDMDL
MODEL 9
REMARK VINA RESULT:      -6.6      4.754      7.911
REMARK  Name = 
REMARK  14 active torsions:
REMARK  status: ('A' for Active; 'I' for Inactive)
REMARK    1  A    between atoms: C_1  and  C_2
REMARK    2  A    between atoms: C_2  and  C_3
REMARK    3  A    between atoms: C_3  and  C_4
REMARK    4  A    between atoms: C_4  and  C_5
REMARK    5  A    between atoms: C_5  and  C_6
REMARK    6  A    between atoms: C_6  and  C_7
REMARK    7  A    between atoms: C_7  and  C_8
REMARK    8  A    between atoms: C_8  and  C_9
REMARK    9  A    between atoms: C_9  and  C_10
REMARK   10  A    between atoms: C_10  and  C_11
REMARK   11  A    between atoms: C_12  and  C_13
REMARK   12  A    between atoms: N_15  and  C_16
REMARK   13  A    between atoms: C_16  and  C_17
REMARK   14  A    between atoms: C_17  and  C_18
REMARK                            x       y       z     vdW  Elec       q    Type
REMARK                         _______ _______ _______ _____ _____    ______ ____
ROOT
ATOM      1  C   UNL     1       1.604   4.547  20.316  0.00  0.00    +0.000 C 
ATOM      2  O   UNL     1       0.916   4.030  19.438  0.00  0.00    +0.000 OA
ATOM      3  N   UNL     1       2.764   3.996  20.800  0.00  0.00    +0.000 N 
ATOM      4  H   UNL     1       3.276   4.447  21.547  0.00  0.00    +0.000 HD
ENDROOT
BRANCH   1   7
ATOM      5  C   UNL     1       1.738   7.035  20.524  0.00  0.00    +0.000 C 
ATOM      6  C   UNL     1       1.310   8.287  21.247  0.00  0.00    +0.000 C 
ATOM      7  C   UNL     1       1.242   5.846  20.935  0.00  0.00    +0.000 C 
BRANCH   5   8
ATOM      8  C   UNL     1       2.691   7.141  19.347  0.00  0.00    +0.000 C 
BRANCH   8   9
ATOM      9  C   UNL     1       2.167   7.808  18.083  0.00  0.00    +0.000 C 
BRANCH   9  10
ATOM     10  C   UNL     1       2.677   9.238  17.942  0.00  0.00    +0.000 C 
BRANCH  10  11
ATOM     11  C   UNL     1       1.500  10.178  17.751  0.00  0.00    +0.000 C 
BRANCH  11  12
ATOM     12  C   UNL     1       0.188   9.432  17.924  0.00  0.00    +0.000 C 
BRANCH  12  13
ATOM     13  C   UNL     1      -0.734  10.210  18.852  0.00  0.00    +0.000 C 
BRANCH  13  14
ATOM     14  C   UNL     1      -2.076  10.462  18.179  0.00  0.00    +0.000 C 
BRANCH  14  16
ATOM     15  C   UNL     1      -1.732  12.505  19.581  0.00  0.00    +0.000 C 
ATOM     16  C   UNL     1      -2.691  11.769  18.664  0.00  0.00    +0.000 C 
ENDBRANCH  14  16
ENDBRANCH  13  14
ENDBRANCH  12  13
ENDBRANCH  11  12
ENDBRANCH  10  11
ENDBRANCH   9  10
ENDBRANCH   8   9
ENDBRANCH   5   8
ENDBRANCH   1   7
BRANCH   3  17
ATOM     17  C   UNL     1       3.189   2.708  20.275  0.00  0.00    +0.000 C 
BRANCH  17  18
ATOM     18  C   UNL     1       4.570   2.721  19.625  0.00  0.00    +0.000 C 
BRANCH  18  19
ATOM     19  C   UNL     1       4.654   3.721  18.512  0.00  0.00    +0.000 A 
ATOM     20  C   UNL     1       3.821   3.798  17.411  0.00  0.00    +0.000 A 
ATOM     21  N   UNL     1       4.234   4.846  16.631  0.00  0.00    +0.000 N 
ATOM     22  C   UNL     1       5.333   5.453  17.191  0.00  0.00    +0.000 A 
ATOM     23  C   UNL     1       6.087   6.544  16.744  0.00  0.00    +0.000 A 
ATOM     24  C   UNL     1       7.171   6.948  17.529  0.00  0.00    +0.000 A 
ATOM     25  C   UNL     1       7.480   6.292  18.717  0.00  0.00    +0.000 A 
ATOM     26  C   UNL     1       6.711   5.207  19.153  0.00  0.00    +0.000 A 
ATOM     27  C   UNL     1       5.619   4.771  18.375  0.00  0.00    +0.000 A 
ATOM     28  H   UNL     1       3.798   5.137  15.767  0.00  0.00    +0.000 HD
ENDBRANCH  18  19
ENDBRANCH  17  18
ENDBRANCH   3  17
TORSDOF 12
ENDMDL
