MODEL 1
REMARK VINA RESULT:      -8.2      0.000      0.000
REMARK  Name = 
REMARK  7 active torsions:
REMARK  status: ('A' for Active; 'I' for Inactive)
REMARK    1  A    between atoms: C_1  and  N_2
REMARK    2  A    between atoms: N_2  and  C_3
REMARK    3  A    between atoms: C_9  and  C_10
REMARK    4  A    between atoms: C_10  and  C_11
REMARK    5  A    between atoms: C_14  and  C_15
REMARK    6  A    between atoms: C_19  and  C_20
REMARK    7  A    between atoms: C_20  and  O_21
REMARK                            x       y       z     vdW  Elec       q    Type
REMARK                         _______ _______ _______ _____ _____    ______ ____
ROOT
ATOM      1  C   UNL     1       7.119   6.539  17.763  0.00  0.00    +0.000 A 
ATOM      2  C   UNL     1       6.994   7.716  17.017  0.00  0.00    +0.000 A 
ATOM      3  C   UNL     1       7.697   8.868  17.385  0.00  0.00    +0.000 A 
ATOM      4  C   UNL     1       8.540   8.898  18.508  0.00  0.00    +0.000 A 
ATOM      5  C   UNL     1       8.671   7.701  19.237  0.00  0.00    +0.000 A 
ATOM      6  C   UNL     1       7.979   6.539  18.867  0.00  0.00    +0.000 A 
ENDROOT
BRANCH   4   7
ATOM      7  C   UNL     1       9.249  10.138  18.916  0.00  0.00    +0.000 A 
ATOM      8  C   UNL     1       9.350  10.506  20.269  0.00  0.00    +0.000 A 
ATOM      9  C   UNL     1      10.002  11.679  20.661  0.00  0.00    +0.000 A 
ATOM     10  C   UNL     1      10.596  12.500  19.708  0.00  0.00    +0.000 A 
ATOM     11  C   UNL     1      10.546  12.156  18.352  0.00  0.00    +0.000 A 
ATOM     12  C   UNL     1       9.850  10.994  17.974  0.00  0.00    +0.000 A 
BRANCH  11  13
ATOM     13  C   UNL     1      11.163  13.070  17.323  0.00  0.00    +0.000 C 
BRANCH  13  14
ATOM     14  O   UNL     1      12.332  12.498  16.748  0.00  0.00    +0.000 OA
ATOM     15  H   UNL     1      12.976  13.222  16.652  0.00  0.00    +0.000 HD
ENDBRANCH  13  14
ENDBRANCH  11  13
ENDBRANCH   4   7
BRANCH   1  16
ATOM     16  C   UNL     1       6.341   5.301  17.390  0.00  0.00    +0.000 C 
BRANCH  16  25
ATOM     17  C   UNL     1       1.655   2.889  21.651  0.00  0.00    +0.000 C 
ATOM     18  N   UNL     1       2.699   3.386  20.772  0.00  0.00    +0.000 N 
ATOM     19  C   UNL     1       3.463   2.384  20.031  0.00  0.00    +0.000 C 
ATOM     20  C   UNL     1       2.503   4.713  20.320  0.00  0.00    +0.000 C 
ATOM     21  O   UNL     1       1.590   5.443  20.704  0.00  0.00    +0.000 OA
ATOM     22  N   UNL     1       3.394   5.187  19.325  0.00  0.00    +0.000 N 
ATOM     23  N   UNL     1       3.033   6.163  18.449  0.00  0.00    +0.000 NA
ATOM     24  N   UNL     1       4.048   6.278  17.605  0.00  0.00    +0.000 NA
ATOM     25  C   UNL     1       5.017   5.421  18.045  0.00  0.00    +0.000 A 
ATOM     26  N   UNL     1       4.674   4.747  19.151  0.00  0.00    +0.000 NA
ENDBRANCH  16  25
ENDBRANCH   1  16
TORSDOF 5
ENDMDL
MODEL 2
REMARK VINA RESULT:      -8.1      5.755      8.031
REMARK  Name = 
REMARK  7 active torsions:
REMARK  status: ('A' for Active; 'I' for Inactive)
REMARK    1  A    between atoms: C_1  and  N_2
REMARK    2  A    between atoms: N_2  and  C_3
REMARK    3  A    between atoms: C_9  and  C_10
REMARK    4  A    between atoms: C_10  and  C_11
REMARK    5  A    between atoms: C_14  and  C_15
REMARK    6  A    between atoms: C_19  and  C_20
REMARK    7  A    between atoms: C_20  and  O_21
REMARK                            x       y       z     vdW  Elec       q    Type
REMARK                         _______ _______ _______ _____ _____    ______ ____
ROOT
ATOM      1  C   UNL     1       3.599   4.709  18.082  0.00  0.00    +0.000 A 
ATOM      2  C   UNL     1       3.810   5.983  17.543  0.00  0.00    +0.000 A 
ATOM      3  C   UNL     1       3.182   7.103  18.099  0.00  0.00    +0.000 A 
ATOM      4  C   UNL     1       2.316   6.998  19.200  0.00  0.00    +0.000 A 
ATOM      5  C   UNL     1       2.130   5.714  19.744  0.00  0.00    +0.000 A 
ATOM      6  C   UNL     1       2.765   4.589  19.200  0.00  0.00    +0.000 A 
ENDROOT
BRANCH   4   7
ATOM      7  C   UNL     1       1.620   8.187  19.757  0.00  0.00    +0.000 A 
ATOM      8  C   UNL     1       1.280   9.280  18.940  0.00  0.00    +0.000 A 
ATOM      9  C   UNL     1       0.639  10.409  19.458  0.00  0.00    +0.000 A 
ATOM     10  C   UNL     1       0.294  10.460  20.805  0.00  0.00    +0.000 A 
ATOM     11  C   UNL     1       0.586   9.382  21.648  0.00  0.00    +0.000 A 
ATOM     12  C   UNL     1       1.268   8.272  21.118  0.00  0.00    +0.000 A 
BRANCH  11  13
ATOM     13  C   UNL     1       0.239   9.460  23.114  0.00  0.00    +0.000 C 
BRANCH  13  14
ATOM     14  O   UNL     1      -0.401  10.689  23.437  0.00  0.00    +0.000 OA
ATOM     15  H   UNL     1      -0.891  10.965  22.642  0.00  0.00    +0.000 HD
ENDBRANCH  13  14
ENDBRANCH  11  13
ENDBRANCH   4   7
BRANCH   1  16
ATOM     16  C   UNL     1       4.250   3.493  17.470  0.00  0.00    +0.000 C 
BRANCH  16  25
ATOM     17  C   UNL     1       7.485   4.629  11.624  0.00  0.00    +0.000 C 
ATOM     18  N   UNL     1       6.743   4.399  12.851  0.00  0.00    +0.000 N 
ATOM     19  C   UNL     1       5.891   3.211  12.888  0.00  0.00    +0.000 C 
ATOM     20  C   UNL     1       7.319   4.986  14.003  0.00  0.00    +0.000 C 
ATOM     21  O   UNL     1       8.305   5.720  13.982  0.00  0.00    +0.000 OA
ATOM     22  N   UNL     1       6.736   4.648  15.251  0.00  0.00    +0.000 N 
ATOM     23  N   UNL     1       7.455   4.678  16.406  0.00  0.00    +0.000 NA
ATOM     24  N   UNL     1       6.645   4.205  17.342  0.00  0.00    +0.000 NA
ATOM     25  C   UNL     1       5.442   3.977  16.735  0.00  0.00    +0.000 A 
ATOM     26  N   UNL     1       5.434   4.284  15.430  0.00  0.00    +0.000 NA
ENDBRANCH  16  25
ENDBRANCH   1  16
TORSDOF 5
ENDMDL
MODEL 3
REMARK VINA RESULT:      -8.0      0.602      1.133
REMARK  Name = 
REMARK  7 active torsions:
REMARK  status: ('A' for Active; 'I' for Inactive)
REMARK    1  A    between atoms: C_1  and  N_2
REMARK    2  A    between atoms: N_2  and  C_3
REMARK    3  A    between atoms: C_9  and  C_10
REMARK    4  A    between atoms: C_10  and  C_11
REMARK    5  A    between atoms: C_14  and  C_15
REMARK    6  A    between atoms: C_19  and  C_20
REMARK    7  A    between atoms: C_20  and  O_21
REMARK                            x       y       z     vdW  Elec       q    Type
REMARK                         _______ _______ _______ _____ _____    ______ ____
ROOT
ATOM      1  C   UNL     1       7.154   6.467  17.735  0.00  0.00    +0.000 A 
ATOM      2  C   UNL     1       8.013   6.487  18.839  0.00  0.00    +0.000 A 
ATOM      3  C   UNL     1       8.660   7.670  19.215  0.00  0.00    +0.000 A 
ATOM      4  C   UNL     1       8.485   8.870  18.506  0.00  0.00    +0.000 A 
ATOM      5  C   UNL     1       7.602   8.840  17.411  0.00  0.00    +0.000 A 
ATOM      6  C   UNL     1       6.941   7.661  17.035  0.00  0.00    +0.000 A 
ENDROOT
BRANCH   4   7
ATOM      7  C   UNL     1       9.208  10.110  18.887  0.00  0.00    +0.000 A 
ATOM      8  C   UNL     1       9.378  10.469  20.236  0.00  0.00    +0.000 A 
ATOM      9  C   UNL     1      10.043  11.642  20.603  0.00  0.00    +0.000 A 
ATOM     10  C   UNL     1      10.583  12.473  19.628  0.00  0.00    +0.000 A 
ATOM     11  C   UNL     1      10.465  12.140  18.274  0.00  0.00    +0.000 A 
ATOM     12  C   UNL     1       9.756  10.977  17.922  0.00  0.00    +0.000 A 
BRANCH  11  13
ATOM     13  C   UNL     1      11.023  13.064  17.222  0.00  0.00    +0.000 C 
BRANCH  13  14
ATOM     14  O   UNL     1      10.194  14.206  17.032  0.00  0.00    +0.000 OA
ATOM     15  H   UNL     1      10.719  14.849  16.525  0.00  0.00    +0.000 HD
ENDBRANCH  13  14
ENDBRANCH  11  13
ENDBRANCH   4   7
BRANCH   1  16
ATOM     16  C   UNL     1       6.476   5.189  17.305  0.00  0.00    +0.000 C 
BRANCH  16  25
ATOM     17  C   UNL     1       1.871   2.803  21.667  0.00  0.00    +0.000 C 
ATOM     18  N   UNL     1       2.898   3.304  20.771  0.00  0.00    +0.000 N 
ATOM     19  C   UNL     1       3.827   2.319  20.221  0.00  0.00    +0.000 C 
ATOM     20  C   UNL     1       2.566   4.516  20.119  0.00  0.00    +0.000 C 
ATOM     21  O   UNL     1       1.547   5.165  20.350  0.00  0.00    +0.000 OA
ATOM     22  N   UNL     1       3.452   4.959  19.105  0.00  0.00    +0.000 N 
ATOM     23  N   UNL     1       3.027   5.744  18.078  0.00  0.00    +0.000 NA
ATOM     24  N   UNL     1       4.070   5.873  17.272  0.00  0.00    +0.000 NA
ATOM     25  C   UNL     1       5.109   5.224  17.876  0.00  0.00    +0.000 A 
ATOM     26  N   UNL     1       4.785   4.673  19.054  0.00  0.00    +0.000 NA
ENDBRANCH  16  25
ENDBRANCH   1  16
TORSDOF 5
ENDMDL
MODEL 4
REMARK VINA RESULT:      -8.0      5.560      7.654
REMARK  Name = 
REMARK  7 active torsions:
REMARK  status: ('A' for Active; 'I' for Inactive)
REMARK    1  A    between atoms: C_1  and  N_2
REMARK    2  A    between atoms: N_2  and  C_3
REMARK    3  A    between atoms: C_9  and  C_10
REMARK    4  A    between atoms: C_10  and  C_11
REMARK    5  A    between atoms: C_14  and  C_15
REMARK    6  A    between atoms: C_19  and  C_20
REMARK    7  A    between atoms: C_20  and  O_21
REMARK                            x       y       z     vdW  Elec       q    Type
REMARK                         _______ _______ _______ _____ _____    ______ ____
ROOT
ATOM      1  C   UNL     1       3.854   5.655  18.161  0.00  0.00    +0.000 A 
ATOM      2  C   UNL     1       3.794   4.357  17.644  0.00  0.00    +0.000 A 
ATOM      3  C   UNL     1       4.472   4.030  16.463  0.00  0.00    +0.000 A 
ATOM      4  C   UNL     1       5.222   4.980  15.750  0.00  0.00    +0.000 A 
ATOM      5  C   UNL     1       5.289   6.277  16.294  0.00  0.00    +0.000 A 
ATOM      6  C   UNL     1       4.623   6.608  17.482  0.00  0.00    +0.000 A 
ENDROOT
BRANCH   4   7
ATOM      7  C   UNL     1       5.902   4.635  14.475  0.00  0.00    +0.000 A 
ATOM      8  C   UNL     1       7.119   5.240  14.114  0.00  0.00    +0.000 A 
ATOM      9  C   UNL     1       7.758   4.934  12.909  0.00  0.00    +0.000 A 
ATOM     10  C   UNL     1       7.209   3.990  12.047  0.00  0.00    +0.000 A 
ATOM     11  C   UNL     1       6.015   3.341  12.381  0.00  0.00    +0.000 A 
ATOM     12  C   UNL     1       5.365   3.693  13.577  0.00  0.00    +0.000 A 
BRANCH  11  13
ATOM     13  C   UNL     1       5.410   2.345  11.425  0.00  0.00    +0.000 C 
BRANCH  13  14
ATOM     14  O   UNL     1       6.110   1.106  11.444  0.00  0.00    +0.000 OA
ATOM     15  H   UNL     1       5.444   0.413  11.593  0.00  0.00    +0.000 HD
ENDBRANCH  13  14
ENDBRANCH  11  13
ENDBRANCH   4   7
BRANCH   1  16
ATOM     16  C   UNL     1       3.102   6.023  19.417  0.00  0.00    +0.000 C 
BRANCH  16  25
ATOM     17  C   UNL     1      -0.790  11.178  21.466  0.00  0.00    +0.000 C 
ATOM     18  N   UNL     1       0.069  10.073  21.078  0.00  0.00    +0.000 N 
ATOM     19  C   UNL     1      -0.198   8.782  21.709  0.00  0.00    +0.000 C 
ATOM     20  C   UNL     1       0.660  10.212  19.799  0.00  0.00    +0.000 C 
ATOM     21  O   UNL     1       0.556  11.217  19.098  0.00  0.00    +0.000 OA
ATOM     22  N   UNL     1       1.364   9.089  19.296  0.00  0.00    +0.000 N 
ATOM     23  N   UNL     1       1.505   8.875  17.960  0.00  0.00    +0.000 NA
ATOM     24  N   UNL     1       2.108   7.700  17.849  0.00  0.00    +0.000 NA
ATOM     25  C   UNL     1       2.377   7.281  19.122  0.00  0.00    +0.000 A 
ATOM     26  N   UNL     1       1.973   8.141  20.066  0.00  0.00    +0.000 NA
ENDBRANCH  16  25
ENDBRANCH   1  16
TORSDOF 5
ENDMDL
MODEL 5
REMARK VINA RESULT:      -7.7      6.893      9.783
REMARK  Name = 
REMARK  7 active torsions:
REMARK  status: ('A' for Active; 'I' for Inactive)
REMARK    1  A    between atoms: C_1  and  N_2
REMARK    2  A    between atoms: N_2  and  C_3
REMARK    3  A    between atoms: C_9  and  C_10
REMARK    4  A    between atoms: C_10  and  C_11
REMARK    5  A    between atoms: C_14  and  C_15
REMARK    6  A    between atoms: C_19  and  C_20
REMARK    7  A    between atoms: C_20  and  O_21
REMARK                            x       y       z     vdW  Elec       q    Type
REMARK                         _______ _______ _______ _____ _____    ______ ____
ROOT
ATOM      1  C   UNL     1       1.048  10.041  18.986  0.00  0.00    +0.000 A 
ATOM      2  C   UNL     1       0.960   9.393  20.222  0.00  0.00    +0.000 A 
ATOM      3  C   UNL     1       1.497   8.112  20.392  0.00  0.00    +0.000 A 
ATOM      4  C   UNL     1       2.129   7.426  19.343  0.00  0.00    +0.000 A 
ATOM      5  C   UNL     1       2.228   8.099  18.110  0.00  0.00    +0.000 A 
ATOM      6  C   UNL     1       1.703   9.387  17.936  0.00  0.00    +0.000 A 
ENDROOT
BRANCH   4   7
ATOM      7  C   UNL     1       2.658   6.049  19.521  0.00  0.00    +0.000 A 
ATOM      8  C   UNL     1       3.968   5.717  19.134  0.00  0.00    +0.000 A 
ATOM      9  C   UNL     1       4.469   4.421  19.283  0.00  0.00    +0.000 A 
ATOM     10  C   UNL     1       3.678   3.427  19.852  0.00  0.00    +0.000 A 
ATOM     11  C   UNL     1       2.378   3.721  20.279  0.00  0.00    +0.000 A 
ATOM     12  C   UNL     1       1.877   5.020  20.082  0.00  0.00    +0.000 A 
BRANCH  11  13
ATOM     13  C   UNL     1       1.516   2.630  20.863  0.00  0.00    +0.000 C 
BRANCH  13  14
ATOM     14  O   UNL     1       1.687   2.524  22.272  0.00  0.00    +0.000 OA
ATOM     15  H   UNL     1       0.869   2.130  22.622  0.00  0.00    +0.000 HD
ENDBRANCH  13  14
ENDBRANCH  11  13
ENDBRANCH   4   7
BRANCH   1  16
ATOM     16  C   UNL     1       0.446  11.411  18.786  0.00  0.00    +0.000 C 
BRANCH  16  25
ATOM     17  C   UNL     1      -6.018  12.966  20.100  0.00  0.00    +0.000 C 
ATOM     18  N   UNL     1      -4.619  12.687  19.827  0.00  0.00    +0.000 N 
ATOM     19  C   UNL     1      -3.704  12.750  20.965  0.00  0.00    +0.000 C 
ATOM     20  C   UNL     1      -4.395  11.881  18.685  0.00  0.00    +0.000 C 
ATOM     21  O   UNL     1      -5.281  11.519  17.913  0.00  0.00    +0.000 OA
ATOM     22  N   UNL     1      -3.068  11.432  18.472  0.00  0.00    +0.000 N 
ATOM     23  N   UNL     1      -2.802  10.284  17.791  0.00  0.00    +0.000 NA
ATOM     24  N   UNL     1      -1.491  10.114  17.876  0.00  0.00    +0.000 NA
ATOM     25  C   UNL     1      -1.001  11.204  18.539  0.00  0.00    +0.000 A 
ATOM     26  N   UNL     1      -1.946  12.085  18.894  0.00  0.00    +0.000 NA
ENDBRANCH  16  25
ENDBRANCH   1  16
TORSDOF 5
ENDMDL
MODEL 6
REMARK VINA RESULT:      -7.7      6.551      9.359
REMARK  Name = 
REMARK  7 active torsions:
REMARK  status: ('A' for Active; 'I' for Inactive)
REMARK    1  A    between atoms: C_1  and  N_2
REMARK    2  A    between atoms: N_2  and  C_3
REMARK    3  A    between atoms: C_9  and  C_10
REMARK    4  A    between atoms: C_10  and  C_11
REMARK    5  A    between atoms: C_14  and  C_15
REMARK    6  A    between atoms: C_19  and  C_20
REMARK    7  A    between atoms: C_20  and  O_21
REMARK                            x       y       z     vdW  Elec       q    Type
REMARK                         _______ _______ _______ _____ _____    ______ ____
ROOT
ATOM      1  C   UNL     1       0.914   9.881  19.336  0.00  0.00    +0.000 A 
ATOM      2  C   UNL     1       1.117   8.887  20.299  0.00  0.00    +0.000 A 
ATOM      3  C   UNL     1       1.890   7.758  20.002  0.00  0.00    +0.000 A 
ATOM      4  C   UNL     1       2.479   7.572  18.741  0.00  0.00    +0.000 A 
ATOM      5  C   UNL     1       2.283   8.590  17.790  0.00  0.00    +0.000 A 
ATOM      6  C   UNL     1       1.519   9.729  18.083  0.00  0.00    +0.000 A 
ENDROOT
BRANCH   4   7
ATOM      7  C   UNL     1       3.262   6.350  18.421  0.00  0.00    +0.000 A 
ATOM      8  C   UNL     1       4.037   6.268  17.251  0.00  0.00    +0.000 A 
ATOM      9  C   UNL     1       4.765   5.118  16.934  0.00  0.00    +0.000 A 
ATOM     10  C   UNL     1       4.758   4.027  17.798  0.00  0.00    +0.000 A 
ATOM     11  C   UNL     1       4.026   4.077  18.989  0.00  0.00    +0.000 A 
ATOM     12  C   UNL     1       3.267   5.227  19.270  0.00  0.00    +0.000 A 
BRANCH  11  13
ATOM     13  C   UNL     1       3.997   2.878  19.903  0.00  0.00    +0.000 C 
BRANCH  13  14
ATOM     14  O   UNL     1       5.069   1.983  19.628  0.00  0.00    +0.000 OA
ATOM     15  H   UNL     1       4.667   1.158  19.304  0.00  0.00    +0.000 HD
ENDBRANCH  13  14
ENDBRANCH  11  13
ENDBRANCH   4   7
BRANCH   1  16
ATOM     16  C   UNL     1       0.057  11.086  19.638  0.00  0.00    +0.000 C 
BRANCH  16  25
ATOM     17  C   UNL     1      -6.419  12.764  18.555  0.00  0.00    +0.000 C 
ATOM     18  N   UNL     1      -5.020  12.458  18.800  0.00  0.00    +0.000 N 
ATOM     19  C   UNL     1      -4.569  12.520  20.189  0.00  0.00    +0.000 C 
ATOM     20  C   UNL     1      -4.420  11.635  17.817  0.00  0.00    +0.000 C 
ATOM     21  O   UNL     1      -4.980  11.278  16.782  0.00  0.00    +0.000 OA
ATOM     22  N   UNL     1      -3.112  11.162  18.093  0.00  0.00    +0.000 N 
ATOM     23  N   UNL     1      -2.645  10.002  17.558  0.00  0.00    +0.000 NA
ATOM     24  N   UNL     1      -1.453   9.811  18.105  0.00  0.00    +0.000 NA
ATOM     25  C   UNL     1      -1.210  10.900  18.894  0.00  0.00    +0.000 A 
ATOM     26  N   UNL     1      -2.202  11.801  18.883  0.00  0.00    +0.000 NA
ENDBRANCH  16  25
ENDBRANCH   1  16
TORSDOF 5
ENDMDL
MODEL 7
REMARK VINA RESULT:      -7.6      7.062      9.529
REMARK  Name = 
REMARK  7 active torsions:
REMARK  status: ('A' for Active; 'I' for Inactive)
REMARK    1  A    between atoms: C_1  and  N_2
REMARK    2  A    between atoms: N_2  and  C_3
REMARK    3  A    between atoms: C_9  and  C_10
REMARK    4  A    between atoms: C_10  and  C_11
REMARK    5  A    between atoms: C_14  and  C_15
REMARK    6  A    between atoms: C_19  and  C_20
REMARK    7  A    between atoms: C_20  and  O_21
REMARK                            x       y       z     vdW  Elec       q    Type
REMARK                         _______ _______ _______ _____ _____    ______ ____
ROOT
ATOM      1  C   UNL     1       1.485   9.639  18.994  0.00  0.00    +0.000 A 
ATOM      2  C   UNL     1       1.221   9.071  20.244  0.00  0.00    +0.000 A 
ATOM      3  C   UNL     1       1.507   7.722  20.486  0.00  0.00    +0.000 A 
ATOM      4  C   UNL     1       2.054   6.890  19.496  0.00  0.00    +0.000 A 
ATOM      5  C   UNL     1       2.334   7.481  18.250  0.00  0.00    +0.000 A 
ATOM      6  C   UNL     1       2.061   8.834  18.004  0.00  0.00    +0.000 A 
ENDROOT
BRANCH   4   7
ATOM      7  C   UNL     1       2.315   5.449  19.749  0.00  0.00    +0.000 A 
ATOM      8  C   UNL     1       2.047   4.870  21.002  0.00  0.00    +0.000 A 
ATOM      9  C   UNL     1       2.304   3.519  21.254  0.00  0.00    +0.000 A 
ATOM     10  C   UNL     1       2.808   2.704  20.245  0.00  0.00    +0.000 A 
ATOM     11  C   UNL     1       3.061   3.231  18.974  0.00  0.00    +0.000 A 
ATOM     12  C   UNL     1       2.836   4.602  18.752  0.00  0.00    +0.000 A 
BRANCH  11  13
ATOM     13  C   UNL     1       3.640   2.349  17.897  0.00  0.00    +0.000 C 
BRANCH  13  14
ATOM     14  O   UNL     1       4.070   1.097  18.420  0.00  0.00    +0.000 OA
ATOM     15  H   UNL     1       4.229   1.233  19.370  0.00  0.00    +0.000 HD
ENDBRANCH  13  14
ENDBRANCH  11  13
ENDBRANCH   4   7
BRANCH   1  16
ATOM     16  C   UNL     1       1.152  11.085  18.715  0.00  0.00    +0.000 C 
BRANCH  16  25
ATOM     17  C   UNL     1      -4.555  13.150  21.729  0.00  0.00    +0.000 C 
ATOM     18  N   UNL     1      -3.306  12.754  21.103  0.00  0.00    +0.000 N 
ATOM     19  C   UNL     1      -2.231  12.328  21.997  0.00  0.00    +0.000 C 
ATOM     20  C   UNL     1      -3.437  12.306  19.767  0.00  0.00    +0.000 C 
ATOM     21  O   UNL     1      -4.490  12.336  19.131  0.00  0.00    +0.000 OA
ATOM     22  N   UNL     1      -2.283  11.743  19.166  0.00  0.00    +0.000 N 
ATOM     23  N   UNL     1      -2.374  10.828  18.163  0.00  0.00    +0.000 NA
ATOM     24  N   UNL     1      -1.131  10.440  17.920  0.00  0.00    +0.000 NA
ATOM     25  C   UNL     1      -0.326  11.188  18.733  0.00  0.00    +0.000 A 
ATOM     26  N   UNL     1      -0.998  12.056  19.501  0.00  0.00    +0.000 NA
ENDBRANCH  16  25
ENDBRANCH   1  16
TORSDOF 5
ENDMDL
MODEL 8
REMARK VINA RESULT:      -7.6      6.973      9.664
REMARK  Name = 
REMARK  7 active torsions:
REMARK  status: ('A' for Active; 'I' for Inactive)
REMARK    1  A    between atoms: C_1  and  N_2
REMARK    2  A    between atoms: N_2  and  C_3
REMARK    3  A    between atoms: C_9  and  C_10
REMARK    4  A    between atoms: C_10  and  C_11
REMARK    5  A    between atoms: C_14  and  C_15
REMARK    6  A    between atoms: C_19  and  C_20
REMARK    7  A    between atoms: C_20  and  O_21
REMARK                            x       y       z     vdW  Elec       q    Type
REMARK                         _______ _______ _______ _____ _____    ______ ____
ROOT
ATOM      1  C   UNL     1       1.284  10.242  18.946  0.00  0.00    +0.000 A 
ATOM      2  C   UNL     1       1.946   9.572  17.912  0.00  0.00    +0.000 A 
ATOM      3  C   UNL     1       2.360   8.246  18.075  0.00  0.00    +0.000 A 
ATOM      4  C   UNL     1       2.143   7.541  19.270  0.00  0.00    +0.000 A 
ATOM      5  C   UNL     1       1.457   8.221  20.295  0.00  0.00    +0.000 A 
ATOM      6  C   UNL     1       1.028   9.546  20.134  0.00  0.00    +0.000 A 
ENDROOT
BRANCH   4   7
ATOM      7  C   UNL     1       2.625   6.147  19.450  0.00  0.00    +0.000 A 
ATOM      8  C   UNL     1       3.909   5.761  19.027  0.00  0.00    +0.000 A 
ATOM      9  C   UNL     1       4.365   4.449  19.178  0.00  0.00    +0.000 A 
ATOM     10  C   UNL     1       3.556   3.493  19.784  0.00  0.00    +0.000 A 
ATOM     11  C   UNL     1       2.282   3.841  20.248  0.00  0.00    +0.000 A 
ATOM     12  C   UNL     1       1.824   5.156  20.049  0.00  0.00    +0.000 A 
BRANCH  11  13
ATOM     13  C   UNL     1       1.398   2.790  20.872  0.00  0.00    +0.000 C 
BRANCH  13  14
ATOM     14  O   UNL     1       1.627   2.677  22.272  0.00  0.00    +0.000 OA
ATOM     15  H   UNL     1       0.752   2.670  22.697  0.00  0.00    +0.000 HD
ENDBRANCH  13  14
ENDBRANCH  11  13
ENDBRANCH   4   7
BRANCH   1  16
ATOM     16  C   UNL     1       0.859  11.682  18.789  0.00  0.00    +0.000 C 
BRANCH  16  25
ATOM     17  C   UNL     1      -4.862  13.042  22.157  0.00  0.00    +0.000 C 
ATOM     18  N   UNL     1      -3.612  12.796  21.459  0.00  0.00    +0.000 N 
ATOM     19  C   UNL     1      -2.488  12.334  22.272  0.00  0.00    +0.000 C 
ATOM     20  C   UNL     1      -3.758  12.499  20.083  0.00  0.00    +0.000 C 
ATOM     21  O   UNL     1      -4.829  12.540  19.480  0.00  0.00    +0.000 OA
ATOM     22  N   UNL     1      -2.593  12.079  19.394  0.00  0.00    +0.000 N 
ATOM     23  N   UNL     1      -2.662  11.282  18.293  0.00  0.00    +0.000 NA
ATOM     24  N   UNL     1      -1.407  10.999  17.978  0.00  0.00    +0.000 NA
ATOM     25  C   UNL     1      -0.621  11.695  18.853  0.00  0.00    +0.000 A 
ATOM     26  N   UNL     1      -1.318  12.427  19.733  0.00  0.00    +0.000 NA
ENDBRANCH  16  25
ENDBRANCH   1  16
TORSDOF 5
ENDMDL
MODEL 9
REMARK VINA RESULT:      -7.6      7.160      9.600
REMARK  Name = 
REMARK  7 active torsions:
REMARK  status: ('A' for Active; 'I' for Inactive)
REMARK    1  A    between atoms: C_1  and  N_2
REMARK    2  A    between atoms: N_2  and  C_3
REMARK    3  A    between atoms: C_9  and  C_10
REMARK    4  A    between atoms: C_10  and  C_11
REMARK    5  A    between atoms: C_14  and  C_15
REMARK    6  A    between atoms: C_19  and  C_20
REMARK    7  A    between atoms: C_20  and  O_21
REMARK                            x       y       z     vdW  Elec       q    Type
REMARK                         _______ _______ _______ _____ _____    ______ ____
ROOT
ATOM      1  C   UNL     1       1.477  10.260  18.948  0.00  0.00    +0.000 A 
ATOM      2  C   UNL     1       1.218   9.523  20.107  0.00  0.00    +0.000 A 
ATOM      3  C   UNL     1       1.502   8.154  20.157  0.00  0.00    +0.000 A 
ATOM      4  C   UNL     1       2.042   7.467  19.057  0.00  0.00    +0.000 A 
ATOM      5  C   UNL     1       2.317   8.226  17.905  0.00  0.00    +0.000 A 
ATOM      6  C   UNL     1       2.046   9.601  17.852  0.00  0.00    +0.000 A 
ENDROOT
BRANCH   4   7
ATOM      7  C   UNL     1       2.301   6.004  19.105  0.00  0.00    +0.000 A 
ATOM      8  C   UNL     1       2.981   5.352  18.062  0.00  0.00    +0.000 A 
ATOM      9  C   UNL     1       3.215   3.974  18.090  0.00  0.00    +0.000 A 
ATOM     10  C   UNL     1       2.797   3.217  19.180  0.00  0.00    +0.000 A 
ATOM     11  C   UNL     1       2.143   3.830  20.254  0.00  0.00    +0.000 A 
ATOM     12  C   UNL     1       1.880   5.210  20.188  0.00  0.00    +0.000 A 
BRANCH  11  13
ATOM     13  C   UNL     1       1.663   2.996  21.415  0.00  0.00    +0.000 C 
BRANCH  13  14
ATOM     14  O   UNL     1       2.750   2.415  22.128  0.00  0.00    +0.000 OA
ATOM     15  H   UNL     1       3.559   2.847  21.802  0.00  0.00    +0.000 HD
ENDBRANCH  13  14
ENDBRANCH  11  13
ENDBRANCH   4   7
BRANCH   1  16
ATOM     16  C   UNL     1       1.146  11.731  18.876  0.00  0.00    +0.000 C 
BRANCH  16  25
ATOM     17  C   UNL     1      -3.552  12.457  23.706  0.00  0.00    +0.000 C 
ATOM     18  N   UNL     1      -2.510  12.334  22.702  0.00  0.00    +0.000 N 
ATOM     19  C   UNL     1      -1.345  11.526  23.060  0.00  0.00    +0.000 C 
ATOM     20  C   UNL     1      -2.955  12.519  21.371  0.00  0.00    +0.000 C 
ATOM     21  O   UNL     1      -4.098  12.857  21.068  0.00  0.00    +0.000 OA
ATOM     22  N   UNL     1      -2.022  12.237  20.341  0.00  0.00    +0.000 N 
ATOM     23  N   UNL     1      -2.423  11.855  19.099  0.00  0.00    +0.000 NA
ATOM     24  N   UNL     1      -1.311  11.572  18.436  0.00  0.00    +0.000 NA
ATOM     25  C   UNL     1      -0.274  11.864  19.276  0.00  0.00    +0.000 A 
ATOM     26  N   UNL     1      -0.667  12.331  20.470  0.00  0.00    +0.000 NA
ENDBRANCH  16  25
ENDBRANCH   1  16
TORSDOF 5
ENDMDL
