MODEL 1
REMARK VINA RESULT:      -7.5      0.000      0.000
REMARK  Name = 
REMARK  17 active torsions:
REMARK  status: ('A' for Active; 'I' for Inactive)
REMARK    1  A    between atoms: C_1  and  C_2
REMARK    2  A    between atoms: C_2  and  C_3
REMARK    3  A    between atoms: C_3  and  C_4
REMARK    4  A    between atoms: C_4  and  C_5
REMARK    5  A    between atoms: C_5  and  O_6
REMARK    6  A    between atoms: C_5  and  C_10
REMARK    7  A    between atoms: O_6  and  C_7
REMARK    8  A    between atoms: C_7  and  C_8
REMARK    9  A    between atoms: C_15  and  C_16
REMARK   10  A    between atoms: C_16  and  O_18
REMARK   11  A    between atoms: O_18  and  C_19
REMARK   12  A    between atoms: C_22  and  C_23
REMARK   13  A    between atoms: C_24  and  C_25
REMARK   14  A    between atoms: N_27  and  C_28
REMARK   15  A    between atoms: C_28  and  C_29
REMARK   16  A    between atoms: C_29  and  O_30
REMARK   17  A    between atoms: O_30  and  N_31
REMARK                            x       y       z     vdW  Elec       q    Type
REMARK                         _______ _______ _______ _____ _____    ______ ____
ROOT
ATOM      1  O   UNL     1       2.568   6.934  18.114  0.00  0.00    +0.000 OA
ENDROOT
BRANCH   1   2
ATOM      2  C   UNL     1       1.917   7.690  19.133  0.00  0.00    +0.000 A 
ATOM      3  C   UNL     1       1.395   8.929  18.765  0.00  0.00    +0.000 A 
ATOM      4  C   UNL     1       0.797   9.755  19.733  0.00  0.00    +0.000 A 
ATOM      5  C   UNL     1       0.691   9.354  21.075  0.00  0.00    +0.000 A 
ATOM      6  C   UNL     1       1.204   8.101  21.423  0.00  0.00    +0.000 A 
ATOM      7  C   UNL     1       1.773   7.260  20.456  0.00  0.00    +0.000 A 
BRANCH   5   8
ATOM      8  C   UNL     1       0.045  10.253  22.051  0.00  0.00    +0.000 C 
ATOM      9  C   UNL     1      -0.722  11.304  21.716  0.00  0.00    +0.000 C 
BRANCH   9  10
ATOM     10  C   UNL     1      -1.194  12.259  22.751  0.00  0.00    +0.000 C 
ATOM     11  O   UNL     1      -0.463  13.081  23.286  0.00  0.00    +0.000 OA
ATOM     12  N   UNL     1      -2.547  12.164  22.974  0.00  0.00    +0.000 N 
ATOM     13  H   UNL     1      -3.091  11.465  22.489  0.00  0.00    +0.000 HD
BRANCH  12  14
ATOM     14  C   UNL     1      -3.248  13.119  23.809  0.00  0.00    +0.000 C 
BRANCH  14  15
ATOM     15  C   UNL     1      -4.518  12.545  24.447  0.00  0.00    +0.000 C 
BRANCH  15  16
ATOM     16  O   UNL     1      -5.615  13.390  24.115  0.00  0.00    +0.000 OA
BRANCH  16  17
ATOM     17  N   UNL     1      -6.708  12.668  23.581  0.00  0.00    +0.000 N 
ATOM     18  O   UNL     1      -7.784  12.742  24.178  0.00  0.00    +0.000 OA
ATOM     19  O   UNL     1      -6.422  12.067  22.548  0.00  0.00    +0.000 OA
ENDBRANCH  16  17
ENDBRANCH  15  16
ENDBRANCH  14  15
ENDBRANCH  12  14
ENDBRANCH   9  10
ENDBRANCH   5   8
ENDBRANCH   1   2
BRANCH   1  20
ATOM     20  C   UNL     1       2.224   5.600  17.978  0.00  0.00    +0.000 C 
ATOM     21  O   UNL     1       1.209   5.210  17.403  0.00  0.00    +0.000 OA
BRANCH  20  27
ATOM     22  C   UNL     1       4.554   4.488  18.639  0.00  0.00    +0.000 A 
ATOM     23  C   UNL     1       5.130   3.402  19.367  0.00  0.00    +0.000 A 
ATOM     24  C   UNL     1       4.366   2.411  19.983  0.00  0.00    +0.000 A 
ATOM     25  C   UNL     1       2.993   2.465  19.896  0.00  0.00    +0.000 A 
ATOM     26  C   UNL     1       2.401   3.527  19.216  0.00  0.00    +0.000 A 
ATOM     27  C   UNL     1       3.143   4.569  18.588  0.00  0.00    +0.000 A 
BRANCH  22  28
ATOM     28  C   UNL     1       5.579   5.369  17.923  0.00  0.00    +0.000 C 
BRANCH  28  29
ATOM     29  C   UNL     1       6.686   5.811  18.892  0.00  0.00    +0.000 C 
BRANCH  29  30
ATOM     30  C   UNL     1       7.858   6.528  18.224  0.00  0.00    +0.000 C 
BRANCH  30  32
ATOM     31  C   UNL     1       8.303   8.999  18.036  0.00  0.00    +0.000 C 
ATOM     32  C   UNL     1       7.391   7.856  17.631  0.00  0.00    +0.000 C 
ENDBRANCH  30  32
ENDBRANCH  29  30
ENDBRANCH  28  29
BRANCH  28  33
ATOM     33  O   UNL     1       6.074   4.739  16.730  0.00  0.00    +0.000 OA
BRANCH  33  34
ATOM     34  C   UNL     1       5.637   5.285  15.556  0.00  0.00    +0.000 C 
ATOM     35  C   UNL     1       5.708   4.302  14.429  0.00  0.00    +0.000 C 
ATOM     36  O   UNL     1       5.229   6.433  15.407  0.00  0.00    +0.000 OA
ENDBRANCH  33  34
ENDBRANCH  28  33
ENDBRANCH  22  28
ENDBRANCH  20  27
ENDBRANCH   1  20
TORSDOF 15
ENDMDL
MODEL 2
REMARK VINA RESULT:      -7.2      1.089      2.490
REMARK  Name = 
REMARK  17 active torsions:
REMARK  status: ('A' for Active; 'I' for Inactive)
REMARK    1  A    between atoms: C_1  and  C_2
REMARK    2  A    between atoms: C_2  and  C_3
REMARK    3  A    between atoms: C_3  and  C_4
REMARK    4  A    between atoms: C_4  and  C_5
REMARK    5  A    between atoms: C_5  and  O_6
REMARK    6  A    between atoms: C_5  and  C_10
REMARK    7  A    between atoms: O_6  and  C_7
REMARK    8  A    between atoms: C_7  and  C_8
REMARK    9  A    between atoms: C_15  and  C_16
REMARK   10  A    between atoms: C_16  and  O_18
REMARK   11  A    between atoms: O_18  and  C_19
REMARK   12  A    between atoms: C_22  and  C_23
REMARK   13  A    between atoms: C_24  and  C_25
REMARK   14  A    between atoms: N_27  and  C_28
REMARK   15  A    between atoms: C_28  and  C_29
REMARK   16  A    between atoms: C_29  and  O_30
REMARK   17  A    between atoms: O_30  and  N_31
REMARK                            x       y       z     vdW  Elec       q    Type
REMARK                         _______ _______ _______ _____ _____    ______ ____
ROOT
ATOM      1  O   UNL     1       2.795   7.226  18.547  0.00  0.00    +0.000 OA
ENDROOT
BRANCH   1   2
ATOM      2  C   UNL     1       2.005   8.067  19.384  0.00  0.00    +0.000 A 
ATOM      3  C   UNL     1       1.801   7.642  20.695  0.00  0.00    +0.000 A 
ATOM      4  C   UNL     1       0.980   8.390  21.557  0.00  0.00    +0.000 A 
ATOM      5  C   UNL     1       0.366   9.580  21.135  0.00  0.00    +0.000 A 
ATOM      6  C   UNL     1       0.596  10.002  19.822  0.00  0.00    +0.000 A 
ATOM      7  C   UNL     1       1.439   9.276  18.968  0.00  0.00    +0.000 A 
BRANCH   5   8
ATOM      8  C   UNL     1      -0.478  10.335  22.081  0.00  0.00    +0.000 C 
ATOM      9  C   UNL     1      -1.276  11.359  21.730  0.00  0.00    +0.000 C 
BRANCH   9  10
ATOM     10  C   UNL     1      -1.960  12.176  22.763  0.00  0.00    +0.000 C 
ATOM     11  O   UNL     1      -1.360  12.829  23.606  0.00  0.00    +0.000 OA
ATOM     12  N   UNL     1      -3.326  12.174  22.612  0.00  0.00    +0.000 N 
ATOM     13  H   UNL     1      -3.754  11.616  21.887  0.00  0.00    +0.000 HD
BRANCH  12  14
ATOM     14  C   UNL     1      -4.179  13.045  23.398  0.00  0.00    +0.000 C 
BRANCH  14  15
ATOM     15  C   UNL     1      -5.152  13.866  22.546  0.00  0.00    +0.000 C 
BRANCH  15  16
ATOM     16  O   UNL     1      -6.442  13.266  22.624  0.00  0.00    +0.000 OA
BRANCH  16  17
ATOM     17  N   UNL     1      -7.157  13.677  23.774  0.00  0.00    +0.000 N 
ATOM     18  O   UNL     1      -7.056  14.858  24.113  0.00  0.00    +0.000 OA
ATOM     19  O   UNL     1      -7.818  12.769  24.273  0.00  0.00    +0.000 OA
ENDBRANCH  16  17
ENDBRANCH  15  16
ENDBRANCH  14  15
ENDBRANCH  12  14
ENDBRANCH   9  10
ENDBRANCH   5   8
ENDBRANCH   1   2
BRANCH   1  20
ATOM     20  C   UNL     1       2.309   5.963  18.254  0.00  0.00    +0.000 C 
ATOM     21  O   UNL     1       1.333   5.755  17.534  0.00  0.00    +0.000 OA
BRANCH  20  27
ATOM     22  C   UNL     1       4.337   4.305  18.746  0.00  0.00    +0.000 A 
ATOM     23  C   UNL     1       4.716   3.174  19.531  0.00  0.00    +0.000 A 
ATOM     24  C   UNL     1       3.831   2.503  20.373  0.00  0.00    +0.000 A 
ATOM     25  C   UNL     1       2.526   2.934  20.462  0.00  0.00    +0.000 A 
ATOM     26  C   UNL     1       2.133   4.051  19.730  0.00  0.00    +0.000 A 
ATOM     27  C   UNL     1       3.010   4.777  18.872  0.00  0.00    +0.000 A 
BRANCH  22  28
ATOM     28  C   UNL     1       5.426   4.788  17.786  0.00  0.00    +0.000 C 
BRANCH  28  29
ATOM     29  C   UNL     1       4.996   4.581  16.326  0.00  0.00    +0.000 C 
BRANCH  29  30
ATOM     30  C   UNL     1       5.931   3.684  15.516  0.00  0.00    +0.000 C 
BRANCH  30  32
ATOM     31  C   UNL     1       6.031   3.581  13.003  0.00  0.00    +0.000 C 
ATOM     32  C   UNL     1       6.364   4.397  14.237  0.00  0.00    +0.000 C 
ENDBRANCH  30  32
ENDBRANCH  29  30
ENDBRANCH  28  29
BRANCH  28  33
ATOM     33  O   UNL     1       5.831   6.135  18.083  0.00  0.00    +0.000 OA
BRANCH  33  34
ATOM     34  C   UNL     1       7.152   6.409  17.872  0.00  0.00    +0.000 C 
ATOM     35  C   UNL     1       7.989   6.051  19.061  0.00  0.00    +0.000 C 
ATOM     36  O   UNL     1       7.631   6.887  16.847  0.00  0.00    +0.000 OA
ENDBRANCH  33  34
ENDBRANCH  28  33
ENDBRANCH  22  28
ENDBRANCH  20  27
ENDBRANCH   1  20
TORSDOF 15
ENDMDL
MODEL 3
REMARK VINA RESULT:      -7.2      2.624      3.097
REMARK  Name = 
REMARK  17 active torsions:
REMARK  status: ('A' for Active; 'I' for Inactive)
REMARK    1  A    between atoms: C_1  and  C_2
REMARK    2  A    between atoms: C_2  and  C_3
REMARK    3  A    between atoms: C_3  and  C_4
REMARK    4  A    between atoms: C_4  and  C_5
REMARK    5  A    between atoms: C_5  and  O_6
REMARK    6  A    between atoms: C_5  and  C_10
REMARK    7  A    between atoms: O_6  and  C_7
REMARK    8  A    between atoms: C_7  and  C_8
REMARK    9  A    between atoms: C_15  and  C_16
REMARK   10  A    between atoms: C_16  and  O_18
REMARK   11  A    between atoms: O_18  and  C_19
REMARK   12  A    between atoms: C_22  and  C_23
REMARK   13  A    between atoms: C_24  and  C_25
REMARK   14  A    between atoms: N_27  and  C_28
REMARK   15  A    between atoms: C_28  and  C_29
REMARK   16  A    between atoms: C_29  and  O_30
REMARK   17  A    between atoms: O_30  and  N_31
REMARK                            x       y       z     vdW  Elec       q    Type
REMARK                         _______ _______ _______ _____ _____    ______ ____
ROOT
ATOM      1  O   UNL     1       2.647   7.008  19.858  0.00  0.00    +0.000 OA
ENDROOT
BRANCH   1   2
ATOM      2  C   UNL     1       1.666   8.041  19.913  0.00  0.00    +0.000 A 
ATOM      3  C   UNL     1       1.487   8.804  18.761  0.00  0.00    +0.000 A 
ATOM      4  C   UNL     1       0.582   9.880  18.764  0.00  0.00    +0.000 A 
ATOM      5  C   UNL     1      -0.170  10.202  19.905  0.00  0.00    +0.000 A 
ATOM      6  C   UNL     1       0.009   9.416  21.047  0.00  0.00    +0.000 A 
ATOM      7  C   UNL     1       0.887   8.322  21.039  0.00  0.00    +0.000 A 
BRANCH   5   8
ATOM      8  C   UNL     1      -1.114  11.336  19.855  0.00  0.00    +0.000 C 
ATOM      9  C   UNL     1      -1.243  12.254  20.828  0.00  0.00    +0.000 C 
BRANCH   9  10
ATOM     10  C   UNL     1      -2.333  13.261  20.780  0.00  0.00    +0.000 C 
ATOM     11  O   UNL     1      -2.130  14.468  20.789  0.00  0.00    +0.000 OA
ATOM     12  N   UNL     1      -3.573  12.685  20.645  0.00  0.00    +0.000 N 
ATOM     13  H   UNL     1      -3.666  11.679  20.637  0.00  0.00    +0.000 HD
BRANCH  12  14
ATOM     14  C   UNL     1      -4.759  13.483  20.398  0.00  0.00    +0.000 C 
BRANCH  14  15
ATOM     15  C   UNL     1      -5.680  12.881  19.332  0.00  0.00    +0.000 C 
BRANCH  15  16
ATOM     16  O   UNL     1      -4.946  11.910  18.593  0.00  0.00    +0.000 OA
BRANCH  16  17
ATOM     17  N   UNL     1      -5.164  12.016  17.199  0.00  0.00    +0.000 N 
ATOM     18  O   UNL     1      -4.432  11.355  16.458  0.00  0.00    +0.000 OA
ATOM     19  O   UNL     1      -6.099  12.762  16.919  0.00  0.00    +0.000 OA
ENDBRANCH  16  17
ENDBRANCH  15  16
ENDBRANCH  14  15
ENDBRANCH  12  14
ENDBRANCH   9  10
ENDBRANCH   5   8
ENDBRANCH   1   2
BRANCH   1  20
ATOM     20  C   UNL     1       3.086   6.597  18.611  0.00  0.00    +0.000 C 
ATOM     21  O   UNL     1       3.554   7.358  17.766  0.00  0.00    +0.000 OA
BRANCH  20  27
ATOM     22  C   UNL     1       3.909   4.210  17.758  0.00  0.00    +0.000 A 
ATOM     23  C   UNL     1       3.494   2.851  17.607  0.00  0.00    +0.000 A 
ATOM     24  C   UNL     1       2.202   2.415  17.899  0.00  0.00    +0.000 A 
ATOM     25  C   UNL     1       1.270   3.320  18.354  0.00  0.00    +0.000 A 
ATOM     26  C   UNL     1       1.652   4.647  18.538  0.00  0.00    +0.000 A 
ATOM     27  C   UNL     1       2.965   5.131  18.269  0.00  0.00    +0.000 A 
BRANCH  22  28
ATOM     28  C   UNL     1       5.320   4.490  17.239  0.00  0.00    +0.000 C 
BRANCH  28  29
ATOM     29  C   UNL     1       6.333   4.492  18.393  0.00  0.00    +0.000 C 
BRANCH  29  30
ATOM     30  C   UNL     1       7.705   5.056  18.025  0.00  0.00    +0.000 C 
BRANCH  30  32
ATOM     31  C   UNL     1       7.556   7.527  17.565  0.00  0.00    +0.000 C 
ATOM     32  C   UNL     1       7.866   6.462  18.600  0.00  0.00    +0.000 C 
ENDBRANCH  30  32
ENDBRANCH  29  30
ENDBRANCH  28  29
BRANCH  28  33
ATOM     33  O   UNL     1       5.671   3.604  16.163  0.00  0.00    +0.000 OA
BRANCH  33  34
ATOM     34  C   UNL     1       5.873   4.205  14.952  0.00  0.00    +0.000 C 
ATOM     35  C   UNL     1       5.515   5.658  14.990  0.00  0.00    +0.000 C 
ATOM     36  O   UNL     1       6.295   3.654  13.940  0.00  0.00    +0.000 OA
ENDBRANCH  33  34
ENDBRANCH  28  33
ENDBRANCH  22  28
ENDBRANCH  20  27
ENDBRANCH   1  20
TORSDOF 15
ENDMDL
MODEL 4
REMARK VINA RESULT:      -7.1      1.506      2.818
REMARK  Name = 
REMARK  17 active torsions:
REMARK  status: ('A' for Active; 'I' for Inactive)
REMARK    1  A    between atoms: C_1  and  C_2
REMARK    2  A    between atoms: C_2  and  C_3
REMARK    3  A    between atoms: C_3  and  C_4
REMARK    4  A    between atoms: C_4  and  C_5
REMARK    5  A    between atoms: C_5  and  O_6
REMARK    6  A    between atoms: C_5  and  C_10
REMARK    7  A    between atoms: O_6  and  C_7
REMARK    8  A    between atoms: C_7  and  C_8
REMARK    9  A    between atoms: C_15  and  C_16
REMARK   10  A    between atoms: C_16  and  O_18
REMARK   11  A    between atoms: O_18  and  C_19
REMARK   12  A    between atoms: C_22  and  C_23
REMARK   13  A    between atoms: C_24  and  C_25
REMARK   14  A    between atoms: N_27  and  C_28
REMARK   15  A    between atoms: C_28  and  C_29
REMARK   16  A    between atoms: C_29  and  O_30
REMARK   17  A    between atoms: O_30  and  N_31
REMARK                            x       y       z     vdW  Elec       q    Type
REMARK                         _______ _______ _______ _____ _____    ______ ____
ROOT
ATOM      1  O   UNL     1       2.520   7.332  17.934  0.00  0.00    +0.000 OA
ENDROOT
BRANCH   1   2
ATOM      2  C   UNL     1       1.888   8.356  18.700  0.00  0.00    +0.000 A 
ATOM      3  C   UNL     1       1.691   9.583  18.072  0.00  0.00    +0.000 A 
ATOM      4  C   UNL     1       1.132  10.657  18.788  0.00  0.00    +0.000 A 
ATOM      5  C   UNL     1       0.745  10.520  20.131  0.00  0.00    +0.000 A 
ATOM      6  C   UNL     1       0.934   9.276  20.741  0.00  0.00    +0.000 A 
ATOM      7  C   UNL     1       1.462   8.194  20.022  0.00  0.00    +0.000 A 
BRANCH   5   8
ATOM      8  C   UNL     1       0.153  11.674  20.836  0.00  0.00    +0.000 C 
ATOM      9  C   UNL     1      -0.456  11.597  22.031  0.00  0.00    +0.000 C 
BRANCH   9  10
ATOM     10  C   UNL     1      -1.175  12.768  22.593  0.00  0.00    +0.000 C 
ATOM     11  O   UNL     1      -0.781  13.390  23.569  0.00  0.00    +0.000 OA
ATOM     12  N   UNL     1      -2.277  13.114  21.847  0.00  0.00    +0.000 N 
ATOM     13  H   UNL     1      -2.539  12.558  21.045  0.00  0.00    +0.000 HD
BRANCH  12  14
ATOM     14  C   UNL     1      -3.020  14.331  22.108  0.00  0.00    +0.000 C 
BRANCH  14  15
ATOM     15  C   UNL     1      -4.424  14.073  22.664  0.00  0.00    +0.000 C 
BRANCH  15  16
ATOM     16  O   UNL     1      -5.245  13.578  21.610  0.00  0.00    +0.000 OA
BRANCH  16  17
ATOM     17  N   UNL     1      -6.009  12.454  22.005  0.00  0.00    +0.000 N 
ATOM     18  O   UNL     1      -6.369  11.673  21.122  0.00  0.00    +0.000 OA
ATOM     19  O   UNL     1      -6.191  12.406  23.220  0.00  0.00    +0.000 OA
ENDBRANCH  16  17
ENDBRANCH  15  16
ENDBRANCH  14  15
ENDBRANCH  12  14
ENDBRANCH   9  10
ENDBRANCH   5   8
ENDBRANCH   1   2
BRANCH   1  20
ATOM     20  C   UNL     1       3.288   6.399  18.609  0.00  0.00    +0.000 C 
ATOM     21  O   UNL     1       4.050   6.679  19.534  0.00  0.00    +0.000 OA
BRANCH  20  27
ATOM     22  C   UNL     1       4.144   4.103  17.563  0.00  0.00    +0.000 A 
ATOM     23  C   UNL     1       3.762   2.746  17.331  0.00  0.00    +0.000 A 
ATOM     24  C   UNL     1       2.494   2.251  17.636  0.00  0.00    +0.000 A 
ATOM     25  C   UNL     1       1.555   3.095  18.186  0.00  0.00    +0.000 A 
ATOM     26  C   UNL     1       1.906   4.416  18.449  0.00  0.00    +0.000 A 
ATOM     27  C   UNL     1       3.195   4.957  18.169  0.00  0.00    +0.000 A 
BRANCH  22  28
ATOM     28  C   UNL     1       5.527   4.460  17.015  0.00  0.00    +0.000 C 
BRANCH  28  29
ATOM     29  C   UNL     1       5.825   3.667  15.733  0.00  0.00    +0.000 C 
BRANCH  29  30
ATOM     30  C   UNL     1       5.506   4.417  14.441  0.00  0.00    +0.000 C 
BRANCH  30  32
ATOM     31  C   UNL     1       5.444   3.282  12.195  0.00  0.00    +0.000 C 
ATOM     32  C   UNL     1       6.330   3.849  13.287  0.00  0.00    +0.000 C 
ENDBRANCH  30  32
ENDBRANCH  29  30
ENDBRANCH  28  29
BRANCH  28  33
ATOM     33  O   UNL     1       5.683   5.880  16.865  0.00  0.00    +0.000 OA
BRANCH  33  34
ATOM     34  C   UNL     1       6.874   6.387  17.303  0.00  0.00    +0.000 C 
ATOM     35  C   UNL     1       7.366   5.669  18.522  0.00  0.00    +0.000 C 
ATOM     36  O   UNL     1       7.493   7.313  16.787  0.00  0.00    +0.000 OA
ENDBRANCH  33  34
ENDBRANCH  28  33
ENDBRANCH  22  28
ENDBRANCH  20  27
ENDBRANCH   1  20
TORSDOF 15
ENDMDL
MODEL 5
REMARK VINA RESULT:      -7.1      4.151     10.275
REMARK  Name = 
REMARK  17 active torsions:
REMARK  status: ('A' for Active; 'I' for Inactive)
REMARK    1  A    between atoms: C_1  and  C_2
REMARK    2  A    between atoms: C_2  and  C_3
REMARK    3  A    between atoms: C_3  and  C_4
REMARK    4  A    between atoms: C_4  and  C_5
REMARK    5  A    between atoms: C_5  and  O_6
REMARK    6  A    between atoms: C_5  and  C_10
REMARK    7  A    between atoms: O_6  and  C_7
REMARK    8  A    between atoms: C_7  and  C_8
REMARK    9  A    between atoms: C_15  and  C_16
REMARK   10  A    between atoms: C_16  and  O_18
REMARK   11  A    between atoms: O_18  and  C_19
REMARK   12  A    between atoms: C_22  and  C_23
REMARK   13  A    between atoms: C_24  and  C_25
REMARK   14  A    between atoms: N_27  and  C_28
REMARK   15  A    between atoms: C_28  and  C_29
REMARK   16  A    between atoms: C_29  and  O_30
REMARK   17  A    between atoms: O_30  and  N_31
REMARK                            x       y       z     vdW  Elec       q    Type
REMARK                         _______ _______ _______ _____ _____    ______ ____
ROOT
ATOM      1  O   UNL     1       0.417  11.455  21.618  0.00  0.00    +0.000 OA
ENDROOT
BRANCH   1   2
ATOM      2  C   UNL     1       0.932  10.226  21.110  0.00  0.00    +0.000 A 
ATOM      3  C   UNL     1       1.131  10.145  19.734  0.00  0.00    +0.000 A 
ATOM      4  C   UNL     1       1.576   8.942  19.158  0.00  0.00    +0.000 A 
ATOM      5  C   UNL     1       1.849   7.810  19.943  0.00  0.00    +0.000 A 
ATOM      6  C   UNL     1       1.661   7.914  21.324  0.00  0.00    +0.000 A 
ATOM      7  C   UNL     1       1.247   9.121  21.907  0.00  0.00    +0.000 A 
BRANCH   5   8
ATOM      8  C   UNL     1       2.325   6.574  19.292  0.00  0.00    +0.000 C 
ATOM      9  C   UNL     1       3.202   6.547  18.274  0.00  0.00    +0.000 C 
BRANCH   9  10
ATOM     10  C   UNL     1       3.499   5.278  17.563  0.00  0.00    +0.000 C 
ATOM     11  O   UNL     1       4.400   5.165  16.743  0.00  0.00    +0.000 OA
ATOM     12  N   UNL     1       2.703   4.241  17.987  0.00  0.00    +0.000 N 
ATOM     13  H   UNL     1       1.982   4.406  18.676  0.00  0.00    +0.000 HD
BRANCH  12  14
ATOM     14  C   UNL     1       2.940   2.876  17.558  0.00  0.00    +0.000 C 
BRANCH  14  15
ATOM     15  C   UNL     1       2.803   1.854  18.692  0.00  0.00    +0.000 C 
BRANCH  15  16
ATOM     16  O   UNL     1       3.311   2.434  19.889  0.00  0.00    +0.000 OA
BRANCH  16  17
ATOM     17  N   UNL     1       2.310   2.596  20.875  0.00  0.00    +0.000 N 
ATOM     18  O   UNL     1       2.669   2.594  22.055  0.00  0.00    +0.000 OA
ATOM     19  O   UNL     1       1.188   2.744  20.395  0.00  0.00    +0.000 OA
ENDBRANCH  16  17
ENDBRANCH  15  16
ENDBRANCH  14  15
ENDBRANCH  12  14
ENDBRANCH   9  10
ENDBRANCH   5   8
ENDBRANCH   1   2
BRANCH   1  20
ATOM     20  C   UNL     1      -0.723  11.404  22.402  0.00  0.00    +0.000 C 
ATOM     21  O   UNL     1      -0.782  10.827  23.487  0.00  0.00    +0.000 OA
BRANCH  20  27
ATOM     22  C   UNL     1      -2.324  12.514  20.584  0.00  0.00    +0.000 A 
ATOM     23  C   UNL     1      -3.628  13.068  20.404  0.00  0.00    +0.000 A 
ATOM     24  C   UNL     1      -4.533  13.237  21.451  0.00  0.00    +0.000 A 
ATOM     25  C   UNL     1      -4.170  12.858  22.724  0.00  0.00    +0.000 A 
ATOM     26  C   UNL     1      -2.915  12.289  22.927  0.00  0.00    +0.000 A 
ATOM     27  C   UNL     1      -1.968  12.083  21.882  0.00  0.00    +0.000 A 
BRANCH  22  28
ATOM     28  C   UNL     1      -1.451  12.562  19.329  0.00  0.00    +0.000 C 
BRANCH  28  29
ATOM     29  C   UNL     1      -2.166  11.897  18.143  0.00  0.00    +0.000 C 
BRANCH  29  30
ATOM     30  C   UNL     1      -2.140  10.369  18.169  0.00  0.00    +0.000 C 
BRANCH  30  32
ATOM     31  C   UNL     1      -2.780  10.690  15.755  0.00  0.00    +0.000 C 
ATOM     32  C   UNL     1      -2.027   9.823  16.747  0.00  0.00    +0.000 C 
ENDBRANCH  30  32
ENDBRANCH  29  30
ENDBRANCH  28  29
BRANCH  28  33
ATOM     33  O   UNL     1      -0.995  13.896  19.054  0.00  0.00    +0.000 OA
BRANCH  33  34
ATOM     34  C   UNL     1       0.358  14.040  18.931  0.00  0.00    +0.000 C 
ATOM     35  C   UNL     1       0.841  15.305  19.570  0.00  0.00    +0.000 C 
ATOM     36  O   UNL     1       1.115  13.249  18.375  0.00  0.00    +0.000 OA
ENDBRANCH  33  34
ENDBRANCH  28  33
ENDBRANCH  22  28
ENDBRANCH  20  27
ENDBRANCH   1  20
TORSDOF 15
ENDMDL
MODEL 6
REMARK VINA RESULT:      -7.1      1.236      2.713
REMARK  Name = 
REMARK  17 active torsions:
REMARK  status: ('A' for Active; 'I' for Inactive)
REMARK    1  A    between atoms: C_1  and  C_2
REMARK    2  A    between atoms: C_2  and  C_3
REMARK    3  A    between atoms: C_3  and  C_4
REMARK    4  A    between atoms: C_4  and  C_5
REMARK    5  A    between atoms: C_5  and  O_6
REMARK    6  A    between atoms: C_5  and  C_10
REMARK    7  A    between atoms: O_6  and  C_7
REMARK    8  A    between atoms: C_7  and  C_8
REMARK    9  A    between atoms: C_15  and  C_16
REMARK   10  A    between atoms: C_16  and  O_18
REMARK   11  A    between atoms: O_18  and  C_19
REMARK   12  A    between atoms: C_22  and  C_23
REMARK   13  A    between atoms: C_24  and  C_25
REMARK   14  A    between atoms: N_27  and  C_28
REMARK   15  A    between atoms: C_28  and  C_29
REMARK   16  A    between atoms: C_29  and  O_30
REMARK   17  A    between atoms: O_30  and  N_31
REMARK                            x       y       z     vdW  Elec       q    Type
REMARK                         _______ _______ _______ _____ _____    ______ ____
ROOT
ATOM      1  O   UNL     1       2.138   7.045  18.401  0.00  0.00    +0.000 OA
ENDROOT
BRANCH   1   2
ATOM      2  C   UNL     1       1.652   8.100  19.227  0.00  0.00    +0.000 A 
ATOM      3  C   UNL     1       1.385   7.789  20.559  0.00  0.00    +0.000 A 
ATOM      4  C   UNL     1       0.843   8.765  21.413  0.00  0.00    +0.000 A 
ATOM      5  C   UNL     1       0.577  10.068  20.963  0.00  0.00    +0.000 A 
ATOM      6  C   UNL     1       0.867  10.368  19.629  0.00  0.00    +0.000 A 
ATOM      7  C   UNL     1       1.437   9.408  18.781  0.00  0.00    +0.000 A 
BRANCH   5   8
ATOM      8  C   UNL     1       0.017  11.059  21.903  0.00  0.00    +0.000 C 
ATOM      9  C   UNL     1      -1.203  10.969  22.458  0.00  0.00    +0.000 C 
BRANCH   9  10
ATOM     10  C   UNL     1      -1.759  12.091  23.256  0.00  0.00    +0.000 C 
ATOM     11  O   UNL     1      -1.129  13.109  23.508  0.00  0.00    +0.000 OA
ATOM     12  N   UNL     1      -3.073  11.886  23.603  0.00  0.00    +0.000 N 
ATOM     13  H   UNL     1      -3.533  11.022  23.353  0.00  0.00    +0.000 HD
BRANCH  12  14
ATOM     14  C   UNL     1      -3.865  12.929  24.227  0.00  0.00    +0.000 C 
BRANCH  14  15
ATOM     15  C   UNL     1      -4.618  13.801  23.217  0.00  0.00    +0.000 C 
BRANCH  15  16
ATOM     16  O   UNL     1      -6.011  13.724  23.501  0.00  0.00    +0.000 OA
BRANCH  16  17
ATOM     17  N   UNL     1      -6.556  12.457  23.187  0.00  0.00    +0.000 N 
ATOM     18  O   UNL     1      -7.317  11.946  24.011  0.00  0.00    +0.000 OA
ATOM     19  O   UNL     1      -6.196  12.044  22.087  0.00  0.00    +0.000 OA
ENDBRANCH  16  17
ENDBRANCH  15  16
ENDBRANCH  14  15
ENDBRANCH  12  14
ENDBRANCH   9  10
ENDBRANCH   5   8
ENDBRANCH   1   2
BRANCH   1  20
ATOM     20  C   UNL     1       3.018   6.135  18.962  0.00  0.00    +0.000 C 
ATOM     21  O   UNL     1       3.819   6.418  19.852  0.00  0.00    +0.000 OA
BRANCH  20  27
ATOM     22  C   UNL     1       3.956   3.991  17.689  0.00  0.00    +0.000 A 
ATOM     23  C   UNL     1       3.666   2.622  17.401  0.00  0.00    +0.000 A 
ATOM     24  C   UNL     1       2.479   2.000  17.785  0.00  0.00    +0.000 A 
ATOM     25  C   UNL     1       1.530   2.723  18.473  0.00  0.00    +0.000 A 
ATOM     26  C   UNL     1       1.795   4.052  18.793  0.00  0.00    +0.000 A 
ATOM     27  C   UNL     1       3.002   4.721  18.435  0.00  0.00    +0.000 A 
BRANCH  22  28
ATOM     28  C   UNL     1       5.246   4.501  17.044  0.00  0.00    +0.000 C 
BRANCH  28  29
ATOM     29  C   UNL     1       5.011   4.858  15.568  0.00  0.00    +0.000 C 
BRANCH  29  30
ATOM     30  C   UNL     1       6.230   4.652  14.670  0.00  0.00    +0.000 C 
BRANCH  30  32
ATOM     31  C   UNL     1       6.846   3.866  12.359  0.00  0.00    +0.000 C 
ATOM     32  C   UNL     1       5.881   3.711  13.519  0.00  0.00    +0.000 C 
ENDBRANCH  30  32
ENDBRANCH  29  30
ENDBRANCH  28  29
BRANCH  28  33
ATOM     33  O   UNL     1       5.832   5.566  17.809  0.00  0.00    +0.000 OA
BRANCH  33  34
ATOM     34  C   UNL     1       7.180   5.469  18.010  0.00  0.00    +0.000 C 
ATOM     35  C   UNL     1       7.819   6.817  18.141  0.00  0.00    +0.000 C 
ATOM     36  O   UNL     1       7.821   4.425  18.082  0.00  0.00    +0.000 OA
ENDBRANCH  33  34
ENDBRANCH  28  33
ENDBRANCH  22  28
ENDBRANCH  20  27
ENDBRANCH   1  20
TORSDOF 15
ENDMDL
MODEL 7
REMARK VINA RESULT:      -7.0      1.391      1.649
REMARK  Name = 
REMARK  17 active torsions:
REMARK  status: ('A' for Active; 'I' for Inactive)
REMARK    1  A    between atoms: C_1  and  C_2
REMARK    2  A    between atoms: C_2  and  C_3
REMARK    3  A    between atoms: C_3  and  C_4
REMARK    4  A    between atoms: C_4  and  C_5
REMARK    5  A    between atoms: C_5  and  O_6
REMARK    6  A    between atoms: C_5  and  C_10
REMARK    7  A    between atoms: O_6  and  C_7
REMARK    8  A    between atoms: C_7  and  C_8
REMARK    9  A    between atoms: C_15  and  C_16
REMARK   10  A    between atoms: C_16  and  O_18
REMARK   11  A    between atoms: O_18  and  C_19
REMARK   12  A    between atoms: C_22  and  C_23
REMARK   13  A    between atoms: C_24  and  C_25
REMARK   14  A    between atoms: N_27  and  C_28
REMARK   15  A    between atoms: C_28  and  C_29
REMARK   16  A    between atoms: C_29  and  O_30
REMARK   17  A    between atoms: O_30  and  N_31
REMARK                            x       y       z     vdW  Elec       q    Type
REMARK                         _______ _______ _______ _____ _____    ______ ____
ROOT
ATOM      1  O   UNL     1       2.463   7.055  19.720  0.00  0.00    +0.000 OA
ENDROOT
BRANCH   1   2
ATOM      2  C   UNL     1       1.591   8.101  20.142  0.00  0.00    +0.000 A 
ATOM      3  C   UNL     1       1.371   9.142  19.243  0.00  0.00    +0.000 A 
ATOM      4  C   UNL     1       0.573  10.237  19.618  0.00  0.00    +0.000 A 
ATOM      5  C   UNL     1      -0.032  10.305  20.883  0.00  0.00    +0.000 A 
ATOM      6  C   UNL     1       0.184   9.244  21.766  0.00  0.00    +0.000 A 
ATOM      7  C   UNL     1       0.953   8.134  21.386  0.00  0.00    +0.000 A 
BRANCH   5   8
ATOM      8  C   UNL     1      -0.870  11.471  21.224  0.00  0.00    +0.000 C 
ATOM      9  C   UNL     1      -1.216  11.811  22.477  0.00  0.00    +0.000 C 
BRANCH   9  10
ATOM     10  C   UNL     1      -2.200  12.895  22.725  0.00  0.00    +0.000 C 
ATOM     11  O   UNL     1      -2.096  13.696  23.643  0.00  0.00    +0.000 OA
ATOM     12  N   UNL     1      -3.183  12.940  21.765  0.00  0.00    +0.000 N 
ATOM     13  H   UNL     1      -3.202  12.248  21.029  0.00  0.00    +0.000 HD
BRANCH  12  14
ATOM     14  C   UNL     1      -4.142  14.026  21.710  0.00  0.00    +0.000 C 
BRANCH  14  15
ATOM     15  C   UNL     1      -5.482  13.682  22.367  0.00  0.00    +0.000 C 
BRANCH  15  16
ATOM     16  O   UNL     1      -5.303  13.664  23.780  0.00  0.00    +0.000 OA
BRANCH  16  17
ATOM     17  N   UNL     1      -5.594  12.400  24.343  0.00  0.00    +0.000 N 
ATOM     18  O   UNL     1      -6.702  11.912  24.104  0.00  0.00    +0.000 OA
ATOM     19  O   UNL     1      -4.659  11.943  24.996  0.00  0.00    +0.000 OA
ENDBRANCH  16  17
ENDBRANCH  15  16
ENDBRANCH  14  15
ENDBRANCH  12  14
ENDBRANCH   9  10
ENDBRANCH   5   8
ENDBRANCH   1   2
BRANCH   1  20
ATOM     20  C   UNL     1       2.431   6.682  18.388  0.00  0.00    +0.000 C 
ATOM     21  O   UNL     1       2.136   7.447  17.470  0.00  0.00    +0.000 OA
BRANCH  20  27
ATOM     22  C   UNL     1       3.846   4.679  17.346  0.00  0.00    +0.000 A 
ATOM     23  C   UNL     1       3.903   3.255  17.254  0.00  0.00    +0.000 A 
ATOM     24  C   UNL     1       2.921   2.419  17.784  0.00  0.00    +0.000 A 
ATOM     25  C   UNL     1       1.839   2.975  18.429  0.00  0.00    +0.000 A 
ATOM     26  C   UNL     1       1.768   4.359  18.559  0.00  0.00    +0.000 A 
ATOM     27  C   UNL     1       2.758   5.248  18.048  0.00  0.00    +0.000 A 
BRANCH  22  28
ATOM     28  C   UNL     1       4.949   5.396  16.566  0.00  0.00    +0.000 C 
BRANCH  28  29
ATOM     29  C   UNL     1       5.342   6.708  17.263  0.00  0.00    +0.000 C 
BRANCH  29  30
ATOM     30  C   UNL     1       6.717   6.678  17.929  0.00  0.00    +0.000 C 
BRANCH  30  32
ATOM     31  C   UNL     1       8.499   8.370  18.479  0.00  0.00    +0.000 C 
ATOM     32  C   UNL     1       7.580   7.824  17.402  0.00  0.00    +0.000 C 
ENDBRANCH  30  32
ENDBRANCH  29  30
ENDBRANCH  28  29
BRANCH  28  33
ATOM     33  O   UNL     1       6.061   4.525  16.304  0.00  0.00    +0.000 OA
BRANCH  33  34
ATOM     34  C   UNL     1       6.651   4.681  15.081  0.00  0.00    +0.000 C 
ATOM     35  C   UNL     1       5.952   3.883  14.024  0.00  0.00    +0.000 C 
ATOM     36  O   UNL     1       7.631   5.380  14.841  0.00  0.00    +0.000 OA
ENDBRANCH  33  34
ENDBRANCH  28  33
ENDBRANCH  22  28
ENDBRANCH  20  27
ENDBRANCH   1  20
TORSDOF 15
ENDMDL
MODEL 8
REMARK VINA RESULT:      -7.0      2.681      3.802
REMARK  Name = 
REMARK  17 active torsions:
REMARK  status: ('A' for Active; 'I' for Inactive)
REMARK    1  A    between atoms: C_1  and  C_2
REMARK    2  A    between atoms: C_2  and  C_3
REMARK    3  A    between atoms: C_3  and  C_4
REMARK    4  A    between atoms: C_4  and  C_5
REMARK    5  A    between atoms: C_5  and  O_6
REMARK    6  A    between atoms: C_5  and  C_10
REMARK    7  A    between atoms: O_6  and  C_7
REMARK    8  A    between atoms: C_7  and  C_8
REMARK    9  A    between atoms: C_15  and  C_16
REMARK   10  A    between atoms: C_16  and  O_18
REMARK   11  A    between atoms: O_18  and  C_19
REMARK   12  A    between atoms: C_22  and  C_23
REMARK   13  A    between atoms: C_24  and  C_25
REMARK   14  A    between atoms: N_27  and  C_28
REMARK   15  A    between atoms: C_28  and  C_29
REMARK   16  A    between atoms: C_29  and  O_30
REMARK   17  A    between atoms: O_30  and  N_31
REMARK                            x       y       z     vdW  Elec       q    Type
REMARK                         _______ _______ _______ _____ _____    ______ ____
ROOT
ATOM      1  O   UNL     1       2.532   7.739  19.743  0.00  0.00    +0.000 OA
ENDROOT
BRANCH   1   2
ATOM      2  C   UNL     1       1.466   8.634  19.433  0.00  0.00    +0.000 A 
ATOM      3  C   UNL     1       0.604   8.974  20.473  0.00  0.00    +0.000 A 
ATOM      4  C   UNL     1      -0.506   9.801  20.224  0.00  0.00    +0.000 A 
ATOM      5  C   UNL     1      -0.764  10.317  18.944  0.00  0.00    +0.000 A 
ATOM      6  C   UNL     1       0.121   9.980  17.916  0.00  0.00    +0.000 A 
ATOM      7  C   UNL     1       1.247   9.182  18.165  0.00  0.00    +0.000 A 
BRANCH   5   8
ATOM      8  C   UNL     1      -1.936  11.189  18.737  0.00  0.00    +0.000 C 
ATOM      9  C   UNL     1      -3.127  10.759  18.286  0.00  0.00    +0.000 C 
BRANCH   9  10
ATOM     10  C   UNL     1      -4.201  11.724  17.941  0.00  0.00    +0.000 C 
ATOM     11  O   UNL     1      -4.604  11.898  16.799  0.00  0.00    +0.000 OA
ATOM     12  N   UNL     1      -4.736  12.331  19.052  0.00  0.00    +0.000 N 
ATOM     13  H   UNL     1      -4.358  12.133  19.968  0.00  0.00    +0.000 HD
BRANCH  12  14
ATOM     14  C   UNL     1      -5.914  13.172  18.965  0.00  0.00    +0.000 C 
BRANCH  14  15
ATOM     15  C   UNL     1      -7.222  12.402  19.172  0.00  0.00    +0.000 C 
BRANCH  15  16
ATOM     16  O   UNL     1      -7.649  12.585  20.518  0.00  0.00    +0.000 OA
BRANCH  16  17
ATOM     17  N   UNL     1      -7.398  11.448  21.322  0.00  0.00    +0.000 N 
ATOM     18  O   UNL     1      -7.299  10.359  20.751  0.00  0.00    +0.000 OA
ATOM     19  O   UNL     1      -7.288  11.723  22.514  0.00  0.00    +0.000 OA
ENDBRANCH  16  17
ENDBRANCH  15  16
ENDBRANCH  14  15
ENDBRANCH  12  14
ENDBRANCH   9  10
ENDBRANCH   5   8
ENDBRANCH   1   2
BRANCH   1  20
ATOM     20  C   UNL     1       2.899   6.812  18.783  0.00  0.00    +0.000 C 
ATOM     21  O   UNL     1       3.259   7.112  17.645  0.00  0.00    +0.000 OA
BRANCH  20  27
ATOM     22  C   UNL     1       3.744   4.290  18.934  0.00  0.00    +0.000 A 
ATOM     23  C   UNL     1       3.416   3.011  19.480  0.00  0.00    +0.000 A 
ATOM     24  C   UNL     1       2.232   2.763  20.173  0.00  0.00    +0.000 A 
ATOM     25  C   UNL     1       1.326   3.785  20.348  0.00  0.00    +0.000 A 
ATOM     26  C   UNL     1       1.629   5.049  19.851  0.00  0.00    +0.000 A 
ATOM     27  C   UNL     1       2.835   5.350  19.153  0.00  0.00    +0.000 A 
BRANCH  22  28
ATOM     28  C   UNL     1       5.018   4.295  18.087  0.00  0.00    +0.000 C 
BRANCH  28  29
ATOM     29  C   UNL     1       4.685   4.086  16.603  0.00  0.00    +0.000 C 
BRANCH  29  30
ATOM     30  C   UNL     1       5.899   4.121  15.674  0.00  0.00    +0.000 C 
BRANCH  30  32
ATOM     31  C   UNL     1       6.110   3.564  13.228  0.00  0.00    +0.000 C 
ATOM     32  C   UNL     1       5.463   4.476  14.254  0.00  0.00    +0.000 C 
ENDBRANCH  30  32
ENDBRANCH  29  30
ENDBRANCH  28  29
BRANCH  28  33
ATOM     33  O   UNL     1       5.815   5.463  18.341  0.00  0.00    +0.000 OA
BRANCH  33  34
ATOM     34  C   UNL     1       6.973   5.243  19.033  0.00  0.00    +0.000 C 
ATOM     35  C   UNL     1       8.034   4.648  18.161  0.00  0.00    +0.000 C 
ATOM     36  O   UNL     1       7.156   5.491  20.221  0.00  0.00    +0.000 OA
ENDBRANCH  33  34
ENDBRANCH  28  33
ENDBRANCH  22  28
ENDBRANCH  20  27
ENDBRANCH   1  20
TORSDOF 15
ENDMDL
MODEL 9
REMARK VINA RESULT:      -7.0      1.183      1.553
REMARK  Name = 
REMARK  17 active torsions:
REMARK  status: ('A' for Active; 'I' for Inactive)
REMARK    1  A    between atoms: C_1  and  C_2
REMARK    2  A    between atoms: C_2  and  C_3
REMARK    3  A    between atoms: C_3  and  C_4
REMARK    4  A    between atoms: C_4  and  C_5
REMARK    5  A    between atoms: C_5  and  O_6
REMARK    6  A    between atoms: C_5  and  C_10
REMARK    7  A    between atoms: O_6  and  C_7
REMARK    8  A    between atoms: C_7  and  C_8
REMARK    9  A    between atoms: C_15  and  C_16
REMARK   10  A    between atoms: C_16  and  O_18
REMARK   11  A    between atoms: O_18  and  C_19
REMARK   12  A    between atoms: C_22  and  C_23
REMARK   13  A    between atoms: C_24  and  C_25
REMARK   14  A    between atoms: N_27  and  C_28
REMARK   15  A    between atoms: C_28  and  C_29
REMARK   16  A    between atoms: C_29  and  O_30
REMARK   17  A    between atoms: O_30  and  N_31
REMARK                            x       y       z     vdW  Elec       q    Type
REMARK                         _______ _______ _______ _____ _____    ______ ____
ROOT
ATOM      1  O   UNL     1       2.953   6.822  17.985  0.00  0.00    +0.000 OA
ENDROOT
BRANCH   1   2
ATOM      2  C   UNL     1       2.179   7.837  18.620  0.00  0.00    +0.000 A 
ATOM      3  C   UNL     1       1.962   7.702  19.990  0.00  0.00    +0.000 A 
ATOM      4  C   UNL     1       1.155   8.633  20.668  0.00  0.00    +0.000 A 
ATOM      5  C   UNL     1       0.569   9.720  19.999  0.00  0.00    +0.000 A 
ATOM      6  C   UNL     1       0.811   9.850  18.629  0.00  0.00    +0.000 A 
ATOM      7  C   UNL     1       1.641   8.942  17.954  0.00  0.00    +0.000 A 
BRANCH   5   8
ATOM      8  C   UNL     1      -0.262  10.675  20.758  0.00  0.00    +0.000 C 
ATOM      9  C   UNL     1      -1.169  11.496  20.201  0.00  0.00    +0.000 C 
BRANCH   9  10
ATOM     10  C   UNL     1      -1.839  12.545  21.009  0.00  0.00    +0.000 C 
ATOM     11  O   UNL     1      -2.577  13.393  20.526  0.00  0.00    +0.000 OA
ATOM     12  N   UNL     1      -1.599  12.404  22.355  0.00  0.00    +0.000 N 
ATOM     13  H   UNL     1      -0.984  11.674  22.685  0.00  0.00    +0.000 HD
BRANCH  12  14
ATOM     14  C   UNL     1      -2.296  13.208  23.340  0.00  0.00    +0.000 C 
BRANCH  14  15
ATOM     15  C   UNL     1      -3.594  12.562  23.837  0.00  0.00    +0.000 C 
BRANCH  15  16
ATOM     16  O   UNL     1      -4.451  13.586  24.332  0.00  0.00    +0.000 OA
BRANCH  16  17
ATOM     17  N   UNL     1      -5.155  14.245  23.297  0.00  0.00    +0.000 N 
ATOM     18  O   UNL     1      -5.096  15.476  23.264  0.00  0.00    +0.000 OA
ATOM     19  O   UNL     1      -5.726  13.465  22.539  0.00  0.00    +0.000 OA
ENDBRANCH  16  17
ENDBRANCH  15  16
ENDBRANCH  14  15
ENDBRANCH  12  14
ENDBRANCH   9  10
ENDBRANCH   5   8
ENDBRANCH   1   2
BRANCH   1  20
ATOM     20  C   UNL     1       2.457   5.529  17.993  0.00  0.00    +0.000 C 
ATOM     21  O   UNL     1       1.374   5.209  17.505  0.00  0.00    +0.000 OA
BRANCH  20  27
ATOM     22  C   UNL     1       4.652   4.112  18.515  0.00  0.00    +0.000 A 
ATOM     23  C   UNL     1       5.164   3.076  19.354  0.00  0.00    +0.000 A 
ATOM     24  C   UNL     1       4.374   2.376  20.265  0.00  0.00    +0.000 A 
ATOM     25  C   UNL     1       3.036   2.683  20.373  0.00  0.00    +0.000 A 
ATOM     26  C   UNL     1       2.513   3.707  19.587  0.00  0.00    +0.000 A 
ATOM     27  C   UNL     1       3.290   4.459  18.658  0.00  0.00    +0.000 A 
BRANCH  22  28
ATOM     28  C   UNL     1       5.661   4.636  17.491  0.00  0.00    +0.000 C 
BRANCH  28  29
ATOM     29  C   UNL     1       7.091   4.554  18.046  0.00  0.00    +0.000 C 
BRANCH  29  30
ATOM     30  C   UNL     1       7.649   5.886  18.547  0.00  0.00    +0.000 C 
BRANCH  30  32
ATOM     31  C   UNL     1       8.010   8.252  17.766  0.00  0.00    +0.000 C 
ATOM     32  C   UNL     1       7.107   7.034  17.699  0.00  0.00    +0.000 C 
ENDBRANCH  30  32
ENDBRANCH  29  30
ENDBRANCH  28  29
BRANCH  28  33
ATOM     33  O   UNL     1       5.499   3.996  16.216  0.00  0.00    +0.000 OA
BRANCH  33  34
ATOM     34  C   UNL     1       5.651   4.810  15.129  0.00  0.00    +0.000 C 
ATOM     35  C   UNL     1       6.237   4.074  13.964  0.00  0.00    +0.000 C 
ATOM     36  O   UNL     1       5.353   6.000  15.077  0.00  0.00    +0.000 OA
ENDBRANCH  33  34
ENDBRANCH  28  33
ENDBRANCH  22  28
ENDBRANCH  20  27
ENDBRANCH   1  20
TORSDOF 15
ENDMDL
