MODEL 1
REMARK VINA RESULT:      -7.1      0.000      0.000
REMARK  Name = 
REMARK  10 active torsions:
REMARK  status: ('A' for Active; 'I' for Inactive)
REMARK    1  A    between atoms: C_1  and  O_2
REMARK    2  A    between atoms: O_2  and  C_3
REMARK    3  A    between atoms: C_3  and  C_5
REMARK    4  A    between atoms: C_5  and  C_6
REMARK    5  A    between atoms: C_7  and  C_8
REMARK    6  A    between atoms: C_15  and  O_16
REMARK    7  A    between atoms: O_16  and  C_17
REMARK    8  A    between atoms: C_17  and  C_18
REMARK    9  A    between atoms: C_18  and  C_19
REMARK   10  A    between atoms: C_18  and  C_20
REMARK                            x       y       z     vdW  Elec       q    Type
REMARK                         _______ _______ _______ _____ _____    ______ ____
ROOT
ATOM      1  C   UNL     1       4.085   3.160  18.362  0.00  0.00    +0.000 A 
ATOM      2  C   UNL     1       3.835   1.906  17.843  0.00  0.00    +0.000 A 
ATOM      3  N   UNL     1       2.551   1.563  18.189  0.00  0.00    +0.000 N 
ATOM      4  C   UNL     1       1.985   2.569  18.924  0.00  0.00    +0.000 A 
ATOM      5  N   UNL     1       0.744   2.540  19.432  0.00  0.00    +0.000 NA
ATOM      6  C   UNL     1       0.461   3.672  20.105  0.00  0.00    +0.000 A 
ATOM      7  N   UNL     1       1.246   4.750  20.289  0.00  0.00    +0.000 NA
ATOM      8  C   UNL     1       2.485   4.719  19.750  0.00  0.00    +0.000 A 
ATOM      9  C   UNL     1       2.910   3.596  19.038  0.00  0.00    +0.000 A 
ATOM     10  H   UNL     1       2.079   0.700  17.959  0.00  0.00    +0.000 HD
ENDROOT
BRANCH   1  13
ATOM     11  C   UNL     1       5.876   4.316  17.120  0.00  0.00    +0.000 C 
ATOM     12  C   UNL     1       5.204   4.233  15.782  0.00  0.00    +0.000 C 
ATOM     13  C   UNL     1       5.343   3.823  18.255  0.00  0.00    +0.000 C 
BRANCH  11  14
ATOM     14  C   UNL     1       7.219   4.946  17.242  0.00  0.00    +0.000 C 
ATOM     15  O   UNL     1       8.159   4.461  17.855  0.00  0.00    +0.000 OA
BRANCH  14  17
ATOM     16  C   UNL     1       7.519   7.268  17.380  0.00  0.00    +0.000 C 
ATOM     17  O   UNL     1       7.244   6.125  16.569  0.00  0.00    +0.000 OA
ENDBRANCH  14  17
ENDBRANCH  11  14
ENDBRANCH   1  13
BRANCH   8  18
ATOM     18  O   UNL     1       3.299   5.826  19.824  0.00  0.00    +0.000 OA
BRANCH  18  19
ATOM     19  C   UNL     1       2.605   7.060  19.654  0.00  0.00    +0.000 C 
BRANCH  19  20
ATOM     20  C   UNL     1       2.484   7.352  18.147  0.00  0.00    +0.000 C 
ATOM     21  C   UNL     1       1.845   8.719  17.888  0.00  0.00    +0.000 C 
ATOM     22  C   UNL     1       3.853   7.280  17.467  0.00  0.00    +0.000 C 
ENDBRANCH  19  20
ENDBRANCH  18  19
ENDBRANCH   8  18
TORSDOF 6
ENDMDL
MODEL 2
REMARK VINA RESULT:      -7.0      1.360      1.781
REMARK  Name = 
REMARK  10 active torsions:
REMARK  status: ('A' for Active; 'I' for Inactive)
REMARK    1  A    between atoms: C_1  and  O_2
REMARK    2  A    between atoms: O_2  and  C_3
REMARK    3  A    between atoms: C_3  and  C_5
REMARK    4  A    between atoms: C_5  and  C_6
REMARK    5  A    between atoms: C_7  and  C_8
REMARK    6  A    between atoms: C_15  and  O_16
REMARK    7  A    between atoms: O_16  and  C_17
REMARK    8  A    between atoms: C_17  and  C_18
REMARK    9  A    between atoms: C_18  and  C_19
REMARK   10  A    between atoms: C_18  and  C_20
REMARK                            x       y       z     vdW  Elec       q    Type
REMARK                         _______ _______ _______ _____ _____    ______ ____
ROOT
ATOM      1  C   UNL     1       3.372   3.418  17.843  0.00  0.00    +0.000 A 
ATOM      2  C   UNL     1       3.105   2.086  17.601  0.00  0.00    +0.000 A 
ATOM      3  N   UNL     1       2.483   1.578  18.716  0.00  0.00    +0.000 N 
ATOM      4  C   UNL     1       2.360   2.559  19.663  0.00  0.00    +0.000 A 
ATOM      5  N   UNL     1       1.814   2.386  20.876  0.00  0.00    +0.000 NA
ATOM      6  C   UNL     1       1.826   3.528  21.589  0.00  0.00    +0.000 A 
ATOM      7  N   UNL     1       2.291   4.737  21.218  0.00  0.00    +0.000 NA
ATOM      8  C   UNL     1       2.828   4.846  19.983  0.00  0.00    +0.000 A 
ATOM      9  C   UNL     1       2.889   3.732  19.145  0.00  0.00    +0.000 A 
ATOM     10  H   UNL     1       2.169   0.628  18.846  0.00  0.00    +0.000 HD
ENDROOT
BRANCH   1  13
ATOM     11  C   UNL     1       5.319   4.734  17.091  0.00  0.00    +0.000 C 
ATOM     12  C   UNL     1       6.174   4.423  18.283  0.00  0.00    +0.000 C 
ATOM     13  C   UNL     1       4.066   4.264  16.929  0.00  0.00    +0.000 C 
BRANCH  11  14
ATOM     14  C   UNL     1       5.832   5.627  16.017  0.00  0.00    +0.000 C 
ATOM     15  O   UNL     1       6.461   6.657  16.213  0.00  0.00    +0.000 OA
BRANCH  14  17
ATOM     16  C   UNL     1       6.526   4.340  14.183  0.00  0.00    +0.000 C 
ATOM     17  O   UNL     1       5.505   5.126  14.798  0.00  0.00    +0.000 OA
ENDBRANCH  14  17
ENDBRANCH  11  14
ENDBRANCH   1  13
BRANCH   8  18
ATOM     18  O   UNL     1       3.233   6.074  19.512  0.00  0.00    +0.000 OA
BRANCH  18  19
ATOM     19  C   UNL     1       2.263   7.105  19.688  0.00  0.00    +0.000 C 
BRANCH  19  20
ATOM     20  C   UNL     1       2.051   7.814  18.337  0.00  0.00    +0.000 C 
ATOM     21  C   UNL     1       1.506   9.232  18.526  0.00  0.00    +0.000 C 
ATOM     22  C   UNL     1       3.353   7.859  17.536  0.00  0.00    +0.000 C 
ENDBRANCH  19  20
ENDBRANCH  18  19
ENDBRANCH   8  18
TORSDOF 6
ENDMDL
MODEL 3
REMARK VINA RESULT:      -6.8      1.053      1.624
REMARK  Name = 
REMARK  10 active torsions:
REMARK  status: ('A' for Active; 'I' for Inactive)
REMARK    1  A    between atoms: C_1  and  O_2
REMARK    2  A    between atoms: O_2  and  C_3
REMARK    3  A    between atoms: C_3  and  C_5
REMARK    4  A    between atoms: C_5  and  C_6
REMARK    5  A    between atoms: C_7  and  C_8
REMARK    6  A    between atoms: C_15  and  O_16
REMARK    7  A    between atoms: O_16  and  C_17
REMARK    8  A    between atoms: C_17  and  C_18
REMARK    9  A    between atoms: C_18  and  C_19
REMARK   10  A    between atoms: C_18  and  C_20
REMARK                            x       y       z     vdW  Elec       q    Type
REMARK                         _______ _______ _______ _____ _____    ______ ____
ROOT
ATOM      1  C   UNL     1       3.615   3.565  17.778  0.00  0.00    +0.000 A 
ATOM      2  C   UNL     1       3.439   2.225  17.499  0.00  0.00    +0.000 A 
ATOM      3  N   UNL     1       2.719   1.678  18.533  0.00  0.00    +0.000 N 
ATOM      4  C   UNL     1       2.444   2.642  19.466  0.00  0.00    +0.000 A 
ATOM      5  N   UNL     1       1.772   2.430  20.608  0.00  0.00    +0.000 NA
ATOM      6  C   UNL     1       1.652   3.565  21.325  0.00  0.00    +0.000 A 
ATOM      7  N   UNL     1       2.100   4.796  21.016  0.00  0.00    +0.000 NA
ATOM      8  C   UNL     1       2.768   4.944  19.851  0.00  0.00    +0.000 A 
ATOM      9  C   UNL     1       2.974   3.843  19.019  0.00  0.00    +0.000 A 
ATOM     10  H   UNL     1       2.436   0.713  18.621  0.00  0.00    +0.000 HD
ENDROOT
BRANCH   1  13
ATOM     11  C   UNL     1       5.610   4.906  17.220  0.00  0.00    +0.000 C 
ATOM     12  C   UNL     1       6.386   4.532  18.447  0.00  0.00    +0.000 C 
ATOM     13  C   UNL     1       4.370   4.451  16.954  0.00  0.00    +0.000 C 
BRANCH  11  14
ATOM     14  C   UNL     1       6.194   5.848  16.227  0.00  0.00    +0.000 C 
ATOM     15  O   UNL     1       5.635   6.207  15.199  0.00  0.00    +0.000 OA
BRANCH  14  17
ATOM     16  C   UNL     1       7.449   7.514  17.298  0.00  0.00    +0.000 C 
ATOM     17  O   UNL     1       7.425   6.251  16.633  0.00  0.00    +0.000 OA
ENDBRANCH  14  17
ENDBRANCH  11  14
ENDBRANCH   1  13
BRANCH   8  18
ATOM     18  O   UNL     1       3.167   6.194  19.437  0.00  0.00    +0.000 OA
BRANCH  18  19
ATOM     19  C   UNL     1       2.162   7.195  19.581  0.00  0.00    +0.000 C 
BRANCH  19  20
ATOM     20  C   UNL     1       2.458   8.334  18.588  0.00  0.00    +0.000 C 
ATOM     21  C   UNL     1       3.330   7.854  17.425  0.00  0.00    +0.000 C 
ATOM     22  C   UNL     1       1.160   8.939  18.051  0.00  0.00    +0.000 C 
ENDBRANCH  19  20
ENDBRANCH  18  19
ENDBRANCH   8  18
TORSDOF 6
ENDMDL
MODEL 4
REMARK VINA RESULT:      -6.6      0.638      1.096
REMARK  Name = 
REMARK  10 active torsions:
REMARK  status: ('A' for Active; 'I' for Inactive)
REMARK    1  A    between atoms: C_1  and  O_2
REMARK    2  A    between atoms: O_2  and  C_3
REMARK    3  A    between atoms: C_3  and  C_5
REMARK    4  A    between atoms: C_5  and  C_6
REMARK    5  A    between atoms: C_7  and  C_8
REMARK    6  A    between atoms: C_15  and  O_16
REMARK    7  A    between atoms: O_16  and  C_17
REMARK    8  A    between atoms: C_17  and  C_18
REMARK    9  A    between atoms: C_18  and  C_19
REMARK   10  A    between atoms: C_18  and  C_20
REMARK                            x       y       z     vdW  Elec       q    Type
REMARK                         _______ _______ _______ _____ _____    ______ ____
ROOT
ATOM      1  C   UNL     1       4.226   3.415  18.211  0.00  0.00    +0.000 A 
ATOM      2  C   UNL     1       4.101   2.094  17.834  0.00  0.00    +0.000 A 
ATOM      3  N   UNL     1       2.923   1.622  18.361  0.00  0.00    +0.000 N 
ATOM      4  C   UNL     1       2.304   2.614  19.072  0.00  0.00    +0.000 A 
ATOM      5  N   UNL     1       1.143   2.474  19.729  0.00  0.00    +0.000 NA
ATOM      6  C   UNL     1       0.778   3.621  20.334  0.00  0.00    +0.000 A 
ATOM      7  N   UNL     1       1.419   4.805  20.330  0.00  0.00    +0.000 NA
ATOM      8  C   UNL     1       2.584   4.882  19.649  0.00  0.00    +0.000 A 
ATOM      9  C   UNL     1       3.083   3.760  18.986  0.00  0.00    +0.000 A 
ATOM     10  H   UNL     1       2.556   0.687  18.264  0.00  0.00    +0.000 HD
ENDROOT
BRANCH   1  13
ATOM     11  C   UNL     1       5.714   4.627  16.661  0.00  0.00    +0.000 C 
ATOM     12  C   UNL     1       4.951   4.275  15.419  0.00  0.00    +0.000 C 
ATOM     13  C   UNL     1       5.358   4.223  17.896  0.00  0.00    +0.000 C 
BRANCH  11  14
ATOM     14  C   UNL     1       6.955   5.444  16.567  0.00  0.00    +0.000 C 
ATOM     15  O   UNL     1       7.585   5.633  15.536  0.00  0.00    +0.000 OA
BRANCH  14  17
ATOM     16  C   UNL     1       7.633   7.332  17.782  0.00  0.00    +0.000 C 
ATOM     17  O   UNL     1       7.273   5.950  17.786  0.00  0.00    +0.000 OA
ENDBRANCH  14  17
ENDBRANCH  11  14
ENDBRANCH   1  13
BRANCH   8  18
ATOM     18  O   UNL     1       3.236   6.088  19.529  0.00  0.00    +0.000 OA
BRANCH  18  19
ATOM     19  C   UNL     1       2.365   7.217  19.557  0.00  0.00    +0.000 C 
BRANCH  19  20
ATOM     20  C   UNL     1       2.753   8.164  18.406  0.00  0.00    +0.000 C 
ATOM     21  C   UNL     1       3.618   7.454  17.361  0.00  0.00    +0.000 C 
ATOM     22  C   UNL     1       1.506   8.748  17.739  0.00  0.00    +0.000 C 
ENDBRANCH  19  20
ENDBRANCH  18  19
ENDBRANCH   8  18
TORSDOF 6
ENDMDL
MODEL 5
REMARK VINA RESULT:      -6.6      1.365      1.940
REMARK  Name = 
REMARK  10 active torsions:
REMARK  status: ('A' for Active; 'I' for Inactive)
REMARK    1  A    between atoms: C_1  and  O_2
REMARK    2  A    between atoms: O_2  and  C_3
REMARK    3  A    between atoms: C_3  and  C_5
REMARK    4  A    between atoms: C_5  and  C_6
REMARK    5  A    between atoms: C_7  and  C_8
REMARK    6  A    between atoms: C_15  and  O_16
REMARK    7  A    between atoms: O_16  and  C_17
REMARK    8  A    between atoms: C_17  and  C_18
REMARK    9  A    between atoms: C_18  and  C_19
REMARK   10  A    between atoms: C_18  and  C_20
REMARK                            x       y       z     vdW  Elec       q    Type
REMARK                         _______ _______ _______ _____ _____    ______ ____
ROOT
ATOM      1  C   UNL     1       3.599   3.296  17.533  0.00  0.00    +0.000 A 
ATOM      2  C   UNL     1       3.803   1.932  17.574  0.00  0.00    +0.000 A 
ATOM      3  N   UNL     1       3.054   1.432  18.613  0.00  0.00    +0.000 N 
ATOM      4  C   UNL     1       2.389   2.453  19.236  0.00  0.00    +0.000 A 
ATOM      5  N   UNL     1       1.586   2.304  20.300  0.00  0.00    +0.000 NA
ATOM      6  C   UNL     1       1.067   3.483  20.693  0.00  0.00    +0.000 A 
ATOM      7  N   UNL     1       1.257   4.700  20.149  0.00  0.00    +0.000 NA
ATOM      8  C   UNL     1       2.075   4.783  19.077  0.00  0.00    +0.000 A 
ATOM      9  C   UNL     1       2.691   3.635  18.576  0.00  0.00    +0.000 A 
ATOM     10  H   UNL     1       2.999   0.466  18.900  0.00  0.00    +0.000 HD
ENDROOT
BRANCH   1  13
ATOM     11  C   UNL     1       5.355   4.904  16.887  0.00  0.00    +0.000 C 
ATOM     12  C   UNL     1       6.045   4.910  18.218  0.00  0.00    +0.000 C 
ATOM     13  C   UNL     1       4.260   4.167  16.617  0.00  0.00    +0.000 C 
BRANCH  11  14
ATOM     14  C   UNL     1       5.858   5.766  15.782  0.00  0.00    +0.000 C 
ATOM     15  O   UNL     1       5.262   6.734  15.332  0.00  0.00    +0.000 OA
BRANCH  14  17
ATOM     16  C   UNL     1       7.070   4.747  14.053  0.00  0.00    +0.000 C 
ATOM     17  O   UNL     1       7.069   5.322  15.360  0.00  0.00    +0.000 OA
ENDBRANCH  14  17
ENDBRANCH  11  14
ENDBRANCH   1  13
BRANCH   8  18
ATOM     18  O   UNL     1       2.235   5.982  18.421  0.00  0.00    +0.000 OA
BRANCH  18  19
ATOM     19  C   UNL     1       2.541   7.074  19.286  0.00  0.00    +0.000 C 
BRANCH  19  20
ATOM     20  C   UNL     1       1.589   8.240  18.959  0.00  0.00    +0.000 C 
ATOM     21  C   UNL     1       1.183   9.005  20.221  0.00  0.00    +0.000 C 
ATOM     22  C   UNL     1       2.230   9.198  17.952  0.00  0.00    +0.000 C 
ENDBRANCH  19  20
ENDBRANCH  18  19
ENDBRANCH   8  18
TORSDOF 6
ENDMDL
MODEL 6
REMARK VINA RESULT:      -6.5      1.829      3.978
REMARK  Name = 
REMARK  10 active torsions:
REMARK  status: ('A' for Active; 'I' for Inactive)
REMARK    1  A    between atoms: C_1  and  O_2
REMARK    2  A    between atoms: O_2  and  C_3
REMARK    3  A    between atoms: C_3  and  C_5
REMARK    4  A    between atoms: C_5  and  C_6
REMARK    5  A    between atoms: C_7  and  C_8
REMARK    6  A    between atoms: C_15  and  O_16
REMARK    7  A    between atoms: O_16  and  C_17
REMARK    8  A    between atoms: C_17  and  C_18
REMARK    9  A    between atoms: C_18  and  C_19
REMARK   10  A    between atoms: C_18  and  C_20
REMARK                            x       y       z     vdW  Elec       q    Type
REMARK                         _______ _______ _______ _____ _____    ______ ____
ROOT
ATOM      1  C   UNL     1       3.819   6.490  17.746  0.00  0.00    +0.000 A 
ATOM      2  C   UNL     1       3.492   7.781  17.385  0.00  0.00    +0.000 A 
ATOM      3  N   UNL     1       2.604   8.260  18.318  0.00  0.00    +0.000 N 
ATOM      4  C   UNL     1       2.354   7.296  19.256  0.00  0.00    +0.000 A 
ATOM      5  N   UNL     1       1.515   7.439  20.293  0.00  0.00    +0.000 NA
ATOM      6  C   UNL     1       1.475   6.326  21.050  0.00  0.00    +0.000 A 
ATOM      7  N   UNL     1       2.156   5.176  20.879  0.00  0.00    +0.000 NA
ATOM      8  C   UNL     1       2.987   5.096  19.816  0.00  0.00    +0.000 A 
ATOM      9  C   UNL     1       3.111   6.177  18.942  0.00  0.00    +0.000 A 
ATOM     10  H   UNL     1       2.178   9.175  18.323  0.00  0.00    +0.000 HD
ENDROOT
BRANCH   1  13
ATOM     11  C   UNL     1       5.986   5.438  17.215  0.00  0.00    +0.000 C 
ATOM     12  C   UNL     1       6.739   6.076  18.343  0.00  0.00    +0.000 C 
ATOM     13  C   UNL     1       4.676   5.647  16.979  0.00  0.00    +0.000 C 
BRANCH  11  14
ATOM     14  C   UNL     1       6.691   4.536  16.263  0.00  0.00    +0.000 C 
ATOM     15  O   UNL     1       7.900   4.356  16.244  0.00  0.00    +0.000 OA
BRANCH  14  17
ATOM     16  C   UNL     1       6.181   3.925  14.057  0.00  0.00    +0.000 C 
ATOM     17  O   UNL     1       5.795   3.945  15.431  0.00  0.00    +0.000 OA
ENDBRANCH  14  17
ENDBRANCH  11  14
ENDBRANCH   1  13
BRANCH   8  18
ATOM     18  O   UNL     1       3.779   3.985  19.641  0.00  0.00    +0.000 OA
BRANCH  18  19
ATOM     19  C   UNL     1       3.208   2.785  20.159  0.00  0.00    +0.000 C 
BRANCH  19  20
ATOM     20  C   UNL     1       2.632   1.970  18.987  0.00  0.00    +0.000 C 
ATOM     21  C   UNL     1       1.162   2.314  18.732  0.00  0.00    +0.000 C 
ATOM     22  C   UNL     1       3.448   2.197  17.713  0.00  0.00    +0.000 C 
ENDBRANCH  19  20
ENDBRANCH  18  19
ENDBRANCH   8  18
TORSDOF 6
ENDMDL
MODEL 7
REMARK VINA RESULT:      -6.5      3.029      5.885
REMARK  Name = 
REMARK  10 active torsions:
REMARK  status: ('A' for Active; 'I' for Inactive)
REMARK    1  A    between atoms: C_1  and  O_2
REMARK    2  A    between atoms: O_2  and  C_3
REMARK    3  A    between atoms: C_3  and  C_5
REMARK    4  A    between atoms: C_5  and  C_6
REMARK    5  A    between atoms: C_7  and  C_8
REMARK    6  A    between atoms: C_15  and  O_16
REMARK    7  A    between atoms: O_16  and  C_17
REMARK    8  A    between atoms: C_17  and  C_18
REMARK    9  A    between atoms: C_18  and  C_19
REMARK   10  A    between atoms: C_18  and  C_20
REMARK                            x       y       z     vdW  Elec       q    Type
REMARK                         _______ _______ _______ _____ _____    ______ ____
ROOT
ATOM      1  C   UNL     1       5.760   6.012  17.789  0.00  0.00    +0.000 A 
ATOM      2  C   UNL     1       6.855   6.844  17.908  0.00  0.00    +0.000 A 
ATOM      3  N   UNL     1       7.627   6.676  16.785  0.00  0.00    +0.000 N 
ATOM      4  C   UNL     1       7.051   5.747  15.961  0.00  0.00    +0.000 A 
ATOM      5  N   UNL     1       7.564   5.341  14.791  0.00  0.00    +0.000 NA
ATOM      6  C   UNL     1       6.775   4.423  14.200  0.00  0.00    +0.000 A 
ATOM      7  N   UNL     1       5.603   3.925  14.640  0.00  0.00    +0.000 NA
ATOM      8  C   UNL     1       5.139   4.377  15.825  0.00  0.00    +0.000 A 
ATOM      9  C   UNL     1       5.869   5.321  16.549  0.00  0.00    +0.000 A 
ATOM     10  H   UNL     1       8.499   7.144  16.583  0.00  0.00    +0.000 HD
ENDROOT
BRANCH   1  13
ATOM     11  C   UNL     1       3.568   6.497  18.811  0.00  0.00    +0.000 C 
ATOM     12  C   UNL     1       3.117   7.449  17.745  0.00  0.00    +0.000 C 
ATOM     13  C   UNL     1       4.761   5.871  18.796  0.00  0.00    +0.000 C 
BRANCH  11  14
ATOM     14  C   UNL     1       2.692   6.218  19.982  0.00  0.00    +0.000 C 
ATOM     15  O   UNL     1       1.827   6.977  20.398  0.00  0.00    +0.000 OA
BRANCH  14  17
ATOM     16  C   UNL     1       1.924   4.388  21.231  0.00  0.00    +0.000 C 
ATOM     17  O   UNL     1       2.991   5.004  20.509  0.00  0.00    +0.000 OA
ENDBRANCH  14  17
ENDBRANCH  11  14
ENDBRANCH   1  13
BRANCH   8  18
ATOM     18  O   UNL     1       3.904   3.976  16.281  0.00  0.00    +0.000 OA
BRANCH  18  19
ATOM     19  C   UNL     1       3.954   2.865  17.174  0.00  0.00    +0.000 C 
BRANCH  19  20
ATOM     20  C   UNL     1       2.515   2.491  17.574  0.00  0.00    +0.000 C 
ATOM     21  C   UNL     1       2.470   1.820  18.949  0.00  0.00    +0.000 C 
ATOM     22  C   UNL     1       1.611   3.726  17.567  0.00  0.00    +0.000 C 
ENDBRANCH  19  20
ENDBRANCH  18  19
ENDBRANCH   8  18
TORSDOF 6
ENDMDL
MODEL 8
REMARK VINA RESULT:      -6.4      2.958      5.799
REMARK  Name = 
REMARK  10 active torsions:
REMARK  status: ('A' for Active; 'I' for Inactive)
REMARK    1  A    between atoms: C_1  and  O_2
REMARK    2  A    between atoms: O_2  and  C_3
REMARK    3  A    between atoms: C_3  and  C_5
REMARK    4  A    between atoms: C_5  and  C_6
REMARK    5  A    between atoms: C_7  and  C_8
REMARK    6  A    between atoms: C_15  and  O_16
REMARK    7  A    between atoms: O_16  and  C_17
REMARK    8  A    between atoms: C_17  and  C_18
REMARK    9  A    between atoms: C_18  and  C_19
REMARK   10  A    between atoms: C_18  and  C_20
REMARK                            x       y       z     vdW  Elec       q    Type
REMARK                         _______ _______ _______ _____ _____    ______ ____
ROOT
ATOM      1  C   UNL     1       5.485   6.305  17.654  0.00  0.00    +0.000 A 
ATOM      2  C   UNL     1       6.556   7.176  17.667  0.00  0.00    +0.000 A 
ATOM      3  N   UNL     1       7.379   6.836  16.621  0.00  0.00    +0.000 N 
ATOM      4  C   UNL     1       6.857   5.762  15.952  0.00  0.00    +0.000 A 
ATOM      5  N   UNL     1       7.428   5.171  14.891  0.00  0.00    +0.000 NA
ATOM      6  C   UNL     1       6.684   4.142  14.442  0.00  0.00    +0.000 A 
ATOM      7  N   UNL     1       5.506   3.696  14.917  0.00  0.00    +0.000 NA
ATOM      8  C   UNL     1       4.982   4.335  15.986  0.00  0.00    +0.000 A 
ATOM      9  C   UNL     1       5.660   5.412  16.559  0.00  0.00    +0.000 A 
ATOM     10  H   UNL     1       8.248   7.286  16.372  0.00  0.00    +0.000 HD
ENDROOT
BRANCH   1  13
ATOM     11  C   UNL     1       3.310   7.034  18.563  0.00  0.00    +0.000 C 
ATOM     12  C   UNL     1       2.972   7.945  17.420  0.00  0.00    +0.000 C 
ATOM     13  C   UNL     1       4.447   6.315  18.632  0.00  0.00    +0.000 C 
BRANCH  11  14
ATOM     14  C   UNL     1       2.379   6.908  19.717  0.00  0.00    +0.000 C 
ATOM     15  O   UNL     1       2.250   5.900  20.397  0.00  0.00    +0.000 OA
BRANCH  14  17
ATOM     16  C   UNL     1       1.261   8.297  21.240  0.00  0.00    +0.000 C 
ATOM     17  O   UNL     1       1.706   8.072  19.903  0.00  0.00    +0.000 OA
ENDBRANCH  14  17
ENDBRANCH  11  14
ENDBRANCH   1  13
BRANCH   8  18
ATOM     18  O   UNL     1       3.738   3.986  16.458  0.00  0.00    +0.000 OA
BRANCH  18  19
ATOM     19  C   UNL     1       3.771   3.015  17.502  0.00  0.00    +0.000 C 
BRANCH  19  20
ATOM     20  C   UNL     1       2.562   3.247  18.428  0.00  0.00    +0.000 C 
ATOM     21  C   UNL     1       1.425   3.967  17.697  0.00  0.00    +0.000 C 
ATOM     22  C   UNL     1       2.055   1.923  19.003  0.00  0.00    +0.000 C 
ENDBRANCH  19  20
ENDBRANCH  18  19
ENDBRANCH   8  18
TORSDOF 6
ENDMDL
MODEL 9
REMARK VINA RESULT:      -6.3      1.966      4.448
REMARK  Name = 
REMARK  10 active torsions:
REMARK  status: ('A' for Active; 'I' for Inactive)
REMARK    1  A    between atoms: C_1  and  O_2
REMARK    2  A    between atoms: O_2  and  C_3
REMARK    3  A    between atoms: C_3  and  C_5
REMARK    4  A    between atoms: C_5  and  C_6
REMARK    5  A    between atoms: C_7  and  C_8
REMARK    6  A    between atoms: C_15  and  O_16
REMARK    7  A    between atoms: O_16  and  C_17
REMARK    8  A    between atoms: C_17  and  C_18
REMARK    9  A    between atoms: C_18  and  C_19
REMARK   10  A    between atoms: C_18  and  C_20
REMARK                            x       y       z     vdW  Elec       q    Type
REMARK                         _______ _______ _______ _____ _____    ______ ____
ROOT
ATOM      1  C   UNL     1       2.231   4.770  18.187  0.00  0.00    +0.000 A 
ATOM      2  C   UNL     1       1.154   3.962  17.884  0.00  0.00    +0.000 A 
ATOM      3  N   UNL     1       1.485   2.678  18.241  0.00  0.00    +0.000 N 
ATOM      4  C   UNL     1       2.753   2.653  18.755  0.00  0.00    +0.000 A 
ATOM      5  N   UNL     1       3.384   1.548  19.181  0.00  0.00    +0.000 NA
ATOM      6  C   UNL     1       4.619   1.832  19.638  0.00  0.00    +0.000 A 
ATOM      7  N   UNL     1       5.225   3.033  19.710  0.00  0.00    +0.000 NA
ATOM      8  C   UNL     1       4.536   4.107  19.267  0.00  0.00    +0.000 A 
ATOM      9  C   UNL     1       3.247   3.949  18.755  0.00  0.00    +0.000 A 
ATOM     10  H   UNL     1       0.904   1.859  18.137  0.00  0.00    +0.000 HD
ENDROOT
BRANCH   1  13
ATOM     11  C   UNL     1       2.156   7.157  18.806  0.00  0.00    +0.000 C 
ATOM     12  C   UNL     1       1.950   6.921  20.273  0.00  0.00    +0.000 C 
ATOM     13  C   UNL     1       2.278   6.166  17.901  0.00  0.00    +0.000 C 
BRANCH  11  14
ATOM     14  C   UNL     1       2.208   8.546  18.274  0.00  0.00    +0.000 C 
ATOM     15  O   UNL     1       2.704   8.859  17.201  0.00  0.00    +0.000 OA
BRANCH  14  17
ATOM     16  C   UNL     1       1.124  10.606  18.561  0.00  0.00    +0.000 C 
ATOM     17  O   UNL     1       1.620   9.402  19.148  0.00  0.00    +0.000 OA
ENDBRANCH  14  17
ENDBRANCH  11  14
ENDBRANCH   1  13
BRANCH   8  18
ATOM     18  O   UNL     1       5.064   5.370  19.402  0.00  0.00    +0.000 OA
BRANCH  18  19
ATOM     19  C   UNL     1       6.301   5.552  18.714  0.00  0.00    +0.000 C 
BRANCH  19  20
ATOM     20  C   UNL     1       6.110   6.638  17.640  0.00  0.00    +0.000 C 
ATOM     21  C   UNL     1       7.390   7.451  17.428  0.00  0.00    +0.000 C 
ATOM     22  C   UNL     1       5.661   6.020  16.314  0.00  0.00    +0.000 C 
ENDBRANCH  19  20
ENDBRANCH  18  19
ENDBRANCH   8  18
TORSDOF 6
ENDMDL
