MODEL 1
REMARK VINA RESULT:      -9.4      0.000      0.000
REMARK  Name = 
REMARK  7 active torsions:
REMARK  status: ('A' for Active; 'I' for Inactive)
REMARK    1  A    between atoms: C_1  and  C_2
REMARK    2  A    between atoms: C_8  and  C_9
REMARK    3  A    between atoms: C_9  and  C_11
REMARK    4  A    between atoms: N_19  and  C_20
REMARK    5  A    between atoms: C_20  and  C_21
REMARK    6  A    between atoms: N_23  and  C_24
REMARK    7  A    between atoms: C_29  and  C_30
REMARK                            x       y       z     vdW  Elec       q    Type
REMARK                         _______ _______ _______ _____ _____    ______ ____
ROOT
ATOM      1  C   UNL     1      -1.211  12.180  23.025  0.00  0.00    +0.000 C 
ATOM      2  C   UNL     1      -0.450  11.054  22.391  0.00  0.00    +0.000 A 
ATOM      3  C   UNL     1      -0.329   9.840  23.056  0.00  0.00    +0.000 A 
ATOM      4  C   UNL     1       0.305   8.793  22.410  0.00  0.00    +0.000 A 
ATOM      5  C   UNL     1       0.786   8.996  21.119  0.00  0.00    +0.000 A 
ATOM      6  C   UNL     1       1.419   7.875  20.396  0.00  0.00    +0.000 A 
ATOM      7  O   UNL     1       1.368   6.744  20.864  0.00  0.00    +0.000 OA
ATOM      8  C   UNL     1       2.081   8.166  19.104  0.00  0.00    +0.000 A 
ATOM      9  C   UNL     1       1.885   9.392  18.590  0.00  0.00    +0.000 A 
ATOM     10  N   UNL     1       1.189  10.424  19.204  0.00  0.00    +0.000 N 
ATOM     11  C   UNL     1       0.662  10.242  20.502  0.00  0.00    +0.000 A 
ATOM     12  N   UNL     1       0.053  11.271  21.143  0.00  0.00    +0.000 NA
ENDROOT
BRANCH   8  13
ATOM     13  C   UNL     1       2.897   7.176  18.339  0.00  0.00    +0.000 C 
ATOM     14  O   UNL     1       3.792   7.543  17.579  0.00  0.00    +0.000 OA
BRANCH  13  15
ATOM     15  C   UNL     1       2.639   5.719  18.510  0.00  0.00    +0.000 A 
ATOM     16  C   UNL     1       1.547   5.152  17.838  0.00  0.00    +0.000 A 
ATOM     17  C   UNL     1       1.264   3.790  17.973  0.00  0.00    +0.000 A 
ATOM     18  C   UNL     1       2.068   2.987  18.782  0.00  0.00    +0.000 A 
ATOM     19  C   UNL     1       3.165   3.547  19.435  0.00  0.00    +0.000 A 
ATOM     20 CL   UNL     1       4.152   2.561  20.445  0.00  0.00    +0.000 Cl
ATOM     21  C   UNL     1       3.469   4.899  19.285  0.00  0.00    +0.000 A 
ENDBRANCH  13  15
ENDBRANCH   8  13
BRANCH  10  22
ATOM     22  C   UNL     1       1.040  11.765  18.612  0.00  0.00    +0.000 C 
BRANCH  22  23
ATOM     23  C   UNL     1      -0.423  12.216  18.571  0.00  0.00    +0.000 C 
ATOM     24  O   UNL     1      -0.725  13.404  18.671  0.00  0.00    +0.000 OA
ATOM     25  N   UNL     1      -1.339  11.179  18.444  0.00  0.00    +0.000 N 
ATOM     26  H   UNL     1      -1.010  10.281  18.805  0.00  0.00    +0.000 HD
BRANCH  25  27
ATOM     27  C   UNL     1      -2.733  11.394  18.316  0.00  0.00    +0.000 A 
ATOM     28  C   UNL     1      -3.429  12.065  19.335  0.00  0.00    +0.000 A 
ATOM     29  C   UNL     1      -4.799  12.318  19.229  0.00  0.00    +0.000 A 
ATOM     30  C   UNL     1      -5.500  11.888  18.109  0.00  0.00    +0.000 A 
ATOM     31  C   UNL     1      -4.821  11.225  17.089  0.00  0.00    +0.000 A 
ATOM     32  C   UNL     1      -3.432  10.981  17.170  0.00  0.00    +0.000 A 
BRANCH  32  33
ATOM     33  C   UNL     1      -2.807  10.186  16.056  0.00  0.00    +0.000 C 
ATOM     34  F   UNL     1      -2.534  10.906  14.933  0.00  0.00    +0.000 F 
ATOM     35  F   UNL     1      -1.623   9.620  16.421  0.00  0.00    +0.000 F 
ATOM     36  F   UNL     1      -3.598   9.158  15.642  0.00  0.00    +0.000 F 
ENDBRANCH  32  33
ENDBRANCH  25  27
ENDBRANCH  22  23
ENDBRANCH  10  22
TORSDOF 6
ENDMDL
MODEL 2
REMARK VINA RESULT:      -9.1      0.851      1.375
REMARK  Name = 
REMARK  7 active torsions:
REMARK  status: ('A' for Active; 'I' for Inactive)
REMARK    1  A    between atoms: C_1  and  C_2
REMARK    2  A    between atoms: C_8  and  C_9
REMARK    3  A    between atoms: C_9  and  C_11
REMARK    4  A    between atoms: N_19  and  C_20
REMARK    5  A    between atoms: C_20  and  C_21
REMARK    6  A    between atoms: N_23  and  C_24
REMARK    7  A    between atoms: C_29  and  C_30
REMARK                            x       y       z     vdW  Elec       q    Type
REMARK                         _______ _______ _______ _____ _____    ______ ____
ROOT
ATOM      1  C   UNL     1      -1.378  12.265  23.148  0.00  0.00    +0.000 C 
ATOM      2  C   UNL     1      -0.600  11.174  22.472  0.00  0.00    +0.000 A 
ATOM      3  C   UNL     1      -0.389   9.967  23.128  0.00  0.00    +0.000 A 
ATOM      4  C   UNL     1       0.257   8.950  22.448  0.00  0.00    +0.000 A 
ATOM      5  C   UNL     1       0.660   9.174  21.133  0.00  0.00    +0.000 A 
ATOM      6  C   UNL     1       1.304   8.083  20.377  0.00  0.00    +0.000 A 
ATOM      7  O   UNL     1       1.331   6.951  20.845  0.00  0.00    +0.000 OA
ATOM      8  C   UNL     1       1.883   8.403  19.052  0.00  0.00    +0.000 A 
ATOM      9  C   UNL     1       1.604   9.619  18.551  0.00  0.00    +0.000 A 
ATOM     10  N   UNL     1       0.895  10.618  19.203  0.00  0.00    +0.000 N 
ATOM     11  C   UNL     1       0.447  10.413  20.526  0.00  0.00    +0.000 A 
ATOM     12  N   UNL     1      -0.174  11.414  21.200  0.00  0.00    +0.000 NA
ENDROOT
BRANCH   8  13
ATOM     13  C   UNL     1       2.702   7.452  18.244  0.00  0.00    +0.000 C 
ATOM     14  O   UNL     1       3.276   7.819  17.219  0.00  0.00    +0.000 OA
BRANCH  13  15
ATOM     15  C   UNL     1       2.846   6.038  18.691  0.00  0.00    +0.000 A 
ATOM     16  C   UNL     1       4.004   5.675  19.393  0.00  0.00    +0.000 A 
ATOM     17  C   UNL     1       4.184   4.359  19.827  0.00  0.00    +0.000 A 
ATOM     18  C   UNL     1       3.209   3.397  19.562  0.00  0.00    +0.000 A 
ATOM     19  C   UNL     1       2.049   3.762  18.882  0.00  0.00    +0.000 A 
ATOM     20 CL   UNL     1       0.849   2.574  18.542  0.00  0.00    +0.000 Cl
ATOM     21  C   UNL     1       1.851   5.078  18.467  0.00  0.00    +0.000 A 
ENDBRANCH  13  15
ENDBRANCH   8  13
BRANCH  10  22
ATOM     22  C   UNL     1       0.654  11.950  18.622  0.00  0.00    +0.000 C 
BRANCH  22  23
ATOM     23  C   UNL     1      -0.819  12.360  18.717  0.00  0.00    +0.000 C 
ATOM     24  O   UNL     1      -1.141  13.495  19.068  0.00  0.00    +0.000 OA
ATOM     25  N   UNL     1      -1.717  11.348  18.408  0.00  0.00    +0.000 N 
ATOM     26  H   UNL     1      -1.358  10.404  18.567  0.00  0.00    +0.000 HD
BRANCH  25  27
ATOM     27  C   UNL     1      -3.119  11.547  18.367  0.00  0.00    +0.000 A 
ATOM     28  C   UNL     1      -3.772  12.116  19.474  0.00  0.00    +0.000 A 
ATOM     29  C   UNL     1      -5.149  12.351  19.458  0.00  0.00    +0.000 A 
ATOM     30  C   UNL     1      -5.899  12.005  18.341  0.00  0.00    +0.000 A 
ATOM     31  C   UNL     1      -5.264  11.443  17.236  0.00  0.00    +0.000 A 
ATOM     32  C   UNL     1      -3.870  11.219  17.227  0.00  0.00    +0.000 A 
BRANCH  32  33
ATOM     33  C   UNL     1      -3.291  10.533  16.020  0.00  0.00    +0.000 C 
ATOM     34  F   UNL     1      -2.698   9.335  16.280  0.00  0.00    +0.000 F 
ATOM     35  F   UNL     1      -4.230  10.274  15.067  0.00  0.00    +0.000 F 
ATOM     36  F   UNL     1      -2.334  11.282  15.403  0.00  0.00    +0.000 F 
ENDBRANCH  32  33
ENDBRANCH  25  27
ENDBRANCH  22  23
ENDBRANCH  10  22
TORSDOF 6
ENDMDL
MODEL 3
REMARK VINA RESULT:      -8.9      2.523      3.082
REMARK  Name = 
REMARK  7 active torsions:
REMARK  status: ('A' for Active; 'I' for Inactive)
REMARK    1  A    between atoms: C_1  and  C_2
REMARK    2  A    between atoms: C_8  and  C_9
REMARK    3  A    between atoms: C_9  and  C_11
REMARK    4  A    between atoms: N_19  and  C_20
REMARK    5  A    between atoms: C_20  and  C_21
REMARK    6  A    between atoms: N_23  and  C_24
REMARK    7  A    between atoms: C_29  and  C_30
REMARK                            x       y       z     vdW  Elec       q    Type
REMARK                         _______ _______ _______ _____ _____    ______ ____
ROOT
ATOM      1  C   UNL     1      -1.781  11.668  23.394  0.00  0.00    +0.000 C 
ATOM      2  C   UNL     1      -0.844  10.803  22.603  0.00  0.00    +0.000 A 
ATOM      3  C   UNL     1      -0.120   9.805  23.242  0.00  0.00    +0.000 A 
ATOM      4  C   UNL     1       0.671   8.968  22.474  0.00  0.00    +0.000 A 
ATOM      5  C   UNL     1       0.700   9.154  21.094  0.00  0.00    +0.000 A 
ATOM      6  C   UNL     1       1.497   8.239  20.255  0.00  0.00    +0.000 A 
ATOM      7  O   UNL     1       1.989   7.232  20.751  0.00  0.00    +0.000 OA
ATOM      8  C   UNL     1       1.656   8.570  18.821  0.00  0.00    +0.000 A 
ATOM      9  C   UNL     1       0.897   9.574  18.348  0.00  0.00    +0.000 A 
ATOM     10  N   UNL     1       0.048  10.371  19.103  0.00  0.00    +0.000 N 
ATOM     11  C   UNL     1      -0.027  10.189  20.501  0.00  0.00    +0.000 A 
ATOM     12  N   UNL     1      -0.790  11.017  21.258  0.00  0.00    +0.000 NA
ENDROOT
BRANCH   8  13
ATOM     13  C   UNL     1       2.558   7.835  17.885  0.00  0.00    +0.000 C 
ATOM     14  O   UNL     1       3.026   8.385  16.889  0.00  0.00    +0.000 OA
BRANCH  13  15
ATOM     15  C   UNL     1       2.916   6.416  18.169  0.00  0.00    +0.000 A 
ATOM     16  C   UNL     1       4.248   6.116  18.488  0.00  0.00    +0.000 A 
ATOM     17  C   UNL     1       4.631   4.798  18.755  0.00  0.00    +0.000 A 
ATOM     18  C   UNL     1       3.686   3.774  18.705  0.00  0.00    +0.000 A 
ATOM     19  C   UNL     1       2.358   4.075  18.408  0.00  0.00    +0.000 A 
ATOM     20 CL   UNL     1       1.191   2.810  18.333  0.00  0.00    +0.000 Cl
ATOM     21  C   UNL     1       1.963   5.390  18.164  0.00  0.00    +0.000 A 
ENDBRANCH  13  15
ENDBRANCH   8  13
BRANCH  10  22
ATOM     22  C   UNL     1      -0.729  11.487  18.539  0.00  0.00    +0.000 C 
BRANCH  22  23
ATOM     23  C   UNL     1      -2.225  11.163  18.460  0.00  0.00    +0.000 C 
ATOM     24  O   UNL     1      -2.620  10.100  17.986  0.00  0.00    +0.000 OA
ATOM     25  N   UNL     1      -3.055  12.170  18.935  0.00  0.00    +0.000 N 
ATOM     26  H   UNL     1      -2.653  13.108  18.879  0.00  0.00    +0.000 HD
BRANCH  25  27
ATOM     27  C   UNL     1      -4.463  12.035  19.014  0.00  0.00    +0.000 A 
ATOM     28  C   UNL     1      -5.135  11.219  18.089  0.00  0.00    +0.000 A 
ATOM     29  C   UNL     1      -6.520  11.041  18.154  0.00  0.00    +0.000 A 
ATOM     30  C   UNL     1      -7.257  11.690  19.137  0.00  0.00    +0.000 A 
ATOM     31  C   UNL     1      -6.602  12.498  20.063  0.00  0.00    +0.000 A 
ATOM     32  C   UNL     1      -5.201  12.671  20.025  0.00  0.00    +0.000 A 
BRANCH  32  33
ATOM     33  C   UNL     1      -4.599  13.627  21.018  0.00  0.00    +0.000 C 
ATOM     34  F   UNL     1      -5.478  14.121  21.933  0.00  0.00    +0.000 F 
ATOM     35  F   UNL     1      -3.597  13.060  21.747  0.00  0.00    +0.000 F 
ATOM     36  F   UNL     1      -4.049  14.721  20.421  0.00  0.00    +0.000 F 
ENDBRANCH  32  33
ENDBRANCH  25  27
ENDBRANCH  22  23
ENDBRANCH  10  22
TORSDOF 6
ENDMDL
MODEL 4
REMARK VINA RESULT:      -8.9      3.262      4.251
REMARK  Name = 
REMARK  7 active torsions:
REMARK  status: ('A' for Active; 'I' for Inactive)
REMARK    1  A    between atoms: C_1  and  C_2
REMARK    2  A    between atoms: C_8  and  C_9
REMARK    3  A    between atoms: C_9  and  C_11
REMARK    4  A    between atoms: N_19  and  C_20
REMARK    5  A    between atoms: C_20  and  C_21
REMARK    6  A    between atoms: N_23  and  C_24
REMARK    7  A    between atoms: C_29  and  C_30
REMARK                            x       y       z     vdW  Elec       q    Type
REMARK                         _______ _______ _______ _____ _____    ______ ____
ROOT
ATOM      1  C   UNL     1      -2.095  11.937  23.277  0.00  0.00    +0.000 C 
ATOM      2  C   UNL     1      -1.127  11.054  22.546  0.00  0.00    +0.000 A 
ATOM      3  C   UNL     1      -0.433  10.068  23.237  0.00  0.00    +0.000 A 
ATOM      4  C   UNL     1       0.388   9.214  22.522  0.00  0.00    +0.000 A 
ATOM      5  C   UNL     1       0.477   9.370  21.141  0.00  0.00    +0.000 A 
ATOM      6  C   UNL     1       1.307   8.436  20.357  0.00  0.00    +0.000 A 
ATOM      7  O   UNL     1       1.774   7.439  20.895  0.00  0.00    +0.000 OA
ATOM      8  C   UNL     1       1.528   8.736  18.924  0.00  0.00    +0.000 A 
ATOM      9  C   UNL     1       0.793   9.730  18.397  0.00  0.00    +0.000 A 
ATOM     10  N   UNL     1      -0.086  10.545  19.098  0.00  0.00    +0.000 N 
ATOM     11  C   UNL     1      -0.221  10.393  20.495  0.00  0.00    +0.000 A 
ATOM     12  N   UNL     1      -1.014  11.238  21.201  0.00  0.00    +0.000 NA
ENDROOT
BRANCH   8  13
ATOM     13  C   UNL     1       2.468   7.979  18.044  0.00  0.00    +0.000 C 
ATOM     14  O   UNL     1       3.172   8.559  17.218  0.00  0.00    +0.000 OA
BRANCH  13  15
ATOM     15  C   UNL     1       2.571   6.499  18.177  0.00  0.00    +0.000 A 
ATOM     16  C   UNL     1       1.460   5.719  17.826  0.00  0.00    +0.000 A 
ATOM     17  C   UNL     1       1.510   4.326  17.940  0.00  0.00    +0.000 A 
ATOM     18  C   UNL     1       2.668   3.706  18.407  0.00  0.00    +0.000 A 
ATOM     19  C   UNL     1       3.779   4.479  18.737  0.00  0.00    +0.000 A 
ATOM     20 CL   UNL     1       5.207   3.717  19.326  0.00  0.00    +0.000 Cl
ATOM     21  C   UNL     1       3.746   5.867  18.602  0.00  0.00    +0.000 A 
ENDBRANCH  13  15
ENDBRANCH   8  13
BRANCH  10  22
ATOM     22  C   UNL     1      -0.835  11.651  18.477  0.00  0.00    +0.000 C 
BRANCH  22  23
ATOM     23  C   UNL     1      -0.087  12.983  18.584  0.00  0.00    +0.000 C 
ATOM     24  O   UNL     1       1.068  13.097  18.176  0.00  0.00    +0.000 OA
ATOM     25  N   UNL     1      -0.810  14.000  19.193  0.00  0.00    +0.000 N 
ATOM     26  H   UNL     1      -1.526  13.674  19.845  0.00  0.00    +0.000 HD
BRANCH  25  27
ATOM     27  C   UNL     1      -0.322  15.323  19.321  0.00  0.00    +0.000 A 
ATOM     28  C   UNL     1      -0.420  16.208  18.234  0.00  0.00    +0.000 A 
ATOM     29  C   UNL     1       0.027  17.528  18.333  0.00  0.00    +0.000 A 
ATOM     30  C   UNL     1       0.596  17.980  19.517  0.00  0.00    +0.000 A 
ATOM     31  C   UNL     1       0.696  17.115  20.604  0.00  0.00    +0.000 A 
ATOM     32  C   UNL     1       0.229  15.785  20.527  0.00  0.00    +0.000 A 
BRANCH  32  33
ATOM     33  C   UNL     1       0.456  14.906  21.727  0.00  0.00    +0.000 C 
ATOM     34  F   UNL     1       1.152  13.764  21.468  0.00  0.00    +0.000 F 
ATOM     35  F   UNL     1       1.151  15.539  22.713  0.00  0.00    +0.000 F 
ATOM     36  F   UNL     1      -0.710  14.495  22.300  0.00  0.00    +0.000 F 
ENDBRANCH  32  33
ENDBRANCH  25  27
ENDBRANCH  22  23
ENDBRANCH  10  22
TORSDOF 6
ENDMDL
MODEL 5
REMARK VINA RESULT:      -8.8      3.061      4.486
REMARK  Name = 
REMARK  7 active torsions:
REMARK  status: ('A' for Active; 'I' for Inactive)
REMARK    1  A    between atoms: C_1  and  C_2
REMARK    2  A    between atoms: C_8  and  C_9
REMARK    3  A    between atoms: C_9  and  C_11
REMARK    4  A    between atoms: N_19  and  C_20
REMARK    5  A    between atoms: C_20  and  C_21
REMARK    6  A    between atoms: N_23  and  C_24
REMARK    7  A    between atoms: C_29  and  C_30
REMARK                            x       y       z     vdW  Elec       q    Type
REMARK                         _______ _______ _______ _____ _____    ______ ____
ROOT
ATOM      1  C   UNL     1      -1.674  11.817  23.032  0.00  0.00    +0.000 C 
ATOM      2  C   UNL     1      -0.782  10.781  22.415  0.00  0.00    +0.000 A 
ATOM      3  C   UNL     1      -0.417   9.657  23.147  0.00  0.00    +0.000 A 
ATOM      4  C   UNL     1       0.336   8.678  22.523  0.00  0.00    +0.000 A 
ATOM      5  C   UNL     1       0.687   8.853  21.186  0.00  0.00    +0.000 A 
ATOM      6  C   UNL     1       1.445   7.795  20.491  0.00  0.00    +0.000 A 
ATOM      7  O   UNL     1       1.615   6.710  21.036  0.00  0.00    +0.000 OA
ATOM      8  C   UNL     1       1.960   8.085  19.134  0.00  0.00    +0.000 A 
ATOM      9  C   UNL     1       1.530   9.220  18.557  0.00  0.00    +0.000 A 
ATOM     10  N   UNL     1       0.717  10.173  19.155  0.00  0.00    +0.000 N 
ATOM     11  C   UNL     1       0.318  10.012  20.501  0.00  0.00    +0.000 A 
ATOM     12  N   UNL     1      -0.408  10.977  21.119  0.00  0.00    +0.000 NA
ENDROOT
BRANCH   8  13
ATOM     13  C   UNL     1       2.875   7.182  18.373  0.00  0.00    +0.000 C 
ATOM     14  O   UNL     1       3.787   7.636  17.684  0.00  0.00    +0.000 OA
BRANCH  13  15
ATOM     15  C   UNL     1       2.694   5.706  18.462  0.00  0.00    +0.000 A 
ATOM     16  C   UNL     1       1.584   5.131  17.825  0.00  0.00    +0.000 A 
ATOM     17  C   UNL     1       1.371   3.751  17.886  0.00  0.00    +0.000 A 
ATOM     18  C   UNL     1       2.264   2.938  18.585  0.00  0.00    +0.000 A 
ATOM     19  C   UNL     1       3.377   3.506  19.200  0.00  0.00    +0.000 A 
ATOM     20 CL   UNL     1       4.473   2.507  20.074  0.00  0.00    +0.000 Cl
ATOM     21  C   UNL     1       3.610   4.879  19.123  0.00  0.00    +0.000 A 
ENDBRANCH  13  15
ENDBRANCH   8  13
BRANCH  10  22
ATOM     22  C   UNL     1       0.309  11.422  18.490  0.00  0.00    +0.000 C 
BRANCH  22  23
ATOM     23  C   UNL     1       1.355  12.529  18.657  0.00  0.00    +0.000 C 
ATOM     24  O   UNL     1       2.247  12.691  17.825  0.00  0.00    +0.000 OA
ATOM     25  N   UNL     1       1.215  13.282  19.816  0.00  0.00    +0.000 N 
ATOM     26  H   UNL     1       0.752  12.790  20.582  0.00  0.00    +0.000 HD
BRANCH  25  27
ATOM     27  C   UNL     1       2.037  14.395  20.116  0.00  0.00    +0.000 A 
ATOM     28  C   UNL     1       3.333  14.186  20.617  0.00  0.00    +0.000 A 
ATOM     29  C   UNL     1       4.181  15.260  20.899  0.00  0.00    +0.000 A 
ATOM     30  C   UNL     1       3.740  16.562  20.700  0.00  0.00    +0.000 A 
ATOM     31  C   UNL     1       2.460  16.784  20.200  0.00  0.00    +0.000 A 
ATOM     32  C   UNL     1       1.598  15.709  19.889  0.00  0.00    +0.000 A 
BRANCH  32  33
ATOM     33  C   UNL     1       0.207  16.053  19.431  0.00  0.00    +0.000 C 
ATOM     34  F   UNL     1      -0.044  17.388  19.338  0.00  0.00    +0.000 F 
ATOM     35  F   UNL     1      -0.078  15.544  18.200  0.00  0.00    +0.000 F 
ATOM     36  F   UNL     1      -0.753  15.564  20.266  0.00  0.00    +0.000 F 
ENDBRANCH  32  33
ENDBRANCH  25  27
ENDBRANCH  22  23
ENDBRANCH  10  22
TORSDOF 6
ENDMDL
MODEL 6
REMARK VINA RESULT:      -8.8      3.296      4.437
REMARK  Name = 
REMARK  7 active torsions:
REMARK  status: ('A' for Active; 'I' for Inactive)
REMARK    1  A    between atoms: C_1  and  C_2
REMARK    2  A    between atoms: C_8  and  C_9
REMARK    3  A    between atoms: C_9  and  C_11
REMARK    4  A    between atoms: N_19  and  C_20
REMARK    5  A    between atoms: C_20  and  C_21
REMARK    6  A    between atoms: N_23  and  C_24
REMARK    7  A    between atoms: C_29  and  C_30
REMARK                            x       y       z     vdW  Elec       q    Type
REMARK                         _______ _______ _______ _____ _____    ______ ____
ROOT
ATOM      1  C   UNL     1      -1.958  11.780  23.285  0.00  0.00    +0.000 C 
ATOM      2  C   UNL     1      -0.995  10.899  22.545  0.00  0.00    +0.000 A 
ATOM      3  C   UNL     1      -0.328   9.884  23.220  0.00  0.00    +0.000 A 
ATOM      4  C   UNL     1       0.488   9.034  22.495  0.00  0.00    +0.000 A 
ATOM      5  C   UNL     1       0.599   9.224  21.119  0.00  0.00    +0.000 A 
ATOM      6  C   UNL     1       1.424   8.295  20.323  0.00  0.00    +0.000 A 
ATOM      7  O   UNL     1       1.867   7.277  20.842  0.00  0.00    +0.000 OA
ATOM      8  C   UNL     1       1.670   8.626  18.902  0.00  0.00    +0.000 A 
ATOM      9  C   UNL     1       0.960   9.647  18.390  0.00  0.00    +0.000 A 
ATOM     10  N   UNL     1       0.086  10.459  19.100  0.00  0.00    +0.000 N 
ATOM     11  C   UNL     1      -0.072  10.274  20.491  0.00  0.00    +0.000 A 
ATOM     12  N   UNL     1      -0.860  11.115  21.207  0.00  0.00    +0.000 NA
ENDROOT
BRANCH   8  13
ATOM     13  C   UNL     1       2.609   7.876  18.016  0.00  0.00    +0.000 C 
ATOM     14  O   UNL     1       3.160   8.425  17.062  0.00  0.00    +0.000 OA
BRANCH  13  15
ATOM     15  C   UNL     1       2.901   6.442  18.298  0.00  0.00    +0.000 A 
ATOM     16  C   UNL     1       4.201   6.092  18.692  0.00  0.00    +0.000 A 
ATOM     17  C   UNL     1       4.523   4.759  18.962  0.00  0.00    +0.000 A 
ATOM     18  C   UNL     1       3.549   3.768  18.839  0.00  0.00    +0.000 A 
ATOM     19  C   UNL     1       2.253   4.118  18.467  0.00  0.00    +0.000 A 
ATOM     20 CL   UNL     1       1.052   2.895  18.301  0.00  0.00    +0.000 Cl
ATOM     21  C   UNL     1       1.918   5.449  18.219  0.00  0.00    +0.000 A 
ENDBRANCH  13  15
ENDBRANCH   8  13
BRANCH  10  22
ATOM     22  C   UNL     1      -0.636  11.592  18.497  0.00  0.00    +0.000 C 
BRANCH  22  23
ATOM     23  C   UNL     1       0.167  12.894  18.580  0.00  0.00    +0.000 C 
ATOM     24  O   UNL     1       1.290  12.980  18.085  0.00  0.00    +0.000 OA
ATOM     25  N   UNL     1      -0.468  13.917  19.271  0.00  0.00    +0.000 N 
ATOM     26  H   UNL     1      -1.143  13.597  19.969  0.00  0.00    +0.000 HD
BRANCH  25  27
ATOM     27  C   UNL     1       0.078  15.218  19.396  0.00  0.00    +0.000 A 
ATOM     28  C   UNL     1      -0.256  16.204  18.452  0.00  0.00    +0.000 A 
ATOM     29  C   UNL     1       0.242  17.505  18.559  0.00  0.00    +0.000 A 
ATOM     30  C   UNL     1       1.097  17.837  19.603  0.00  0.00    +0.000 A 
ATOM     31  C   UNL     1       1.433  16.870  20.548  0.00  0.00    +0.000 A 
ATOM     32  C   UNL     1       0.921  15.557  20.467  0.00  0.00    +0.000 A 
BRANCH  32  33
ATOM     33  C   UNL     1       1.407  14.565  21.487  0.00  0.00    +0.000 C 
ATOM     34  F   UNL     1       2.104  15.112  22.521  0.00  0.00    +0.000 F 
ATOM     35  F   UNL     1       0.388  13.870  22.066  0.00  0.00    +0.000 F 
ATOM     36  F   UNL     1       2.237  13.628  20.950  0.00  0.00    +0.000 F 
ENDBRANCH  32  33
ENDBRANCH  25  27
ENDBRANCH  22  23
ENDBRANCH  10  22
TORSDOF 6
ENDMDL
MODEL 7
REMARK VINA RESULT:      -8.7      4.784      8.520
REMARK  Name = 
REMARK  7 active torsions:
REMARK  status: ('A' for Active; 'I' for Inactive)
REMARK    1  A    between atoms: C_1  and  C_2
REMARK    2  A    between atoms: C_8  and  C_9
REMARK    3  A    between atoms: C_9  and  C_11
REMARK    4  A    between atoms: N_19  and  C_20
REMARK    5  A    between atoms: C_20  and  C_21
REMARK    6  A    between atoms: N_23  and  C_24
REMARK    7  A    between atoms: C_29  and  C_30
REMARK                            x       y       z     vdW  Elec       q    Type
REMARK                         _______ _______ _______ _____ _____    ______ ____
ROOT
ATOM      1  C   UNL     1       2.103   9.027  17.966  0.00  0.00    +0.000 C 
ATOM      2  C   UNL     1       1.265   9.424  19.146  0.00  0.00    +0.000 A 
ATOM      3  C   UNL     1       1.292   8.655  20.303  0.00  0.00    +0.000 A 
ATOM      4  C   UNL     1       0.575   9.092  21.403  0.00  0.00    +0.000 A 
ATOM      5  C   UNL     1      -0.133  10.287  21.309  0.00  0.00    +0.000 A 
ATOM      6  C   UNL     1      -0.860  10.794  22.489  0.00  0.00    +0.000 A 
ATOM      7  O   UNL     1      -0.703  10.255  23.578  0.00  0.00    +0.000 OA
ATOM      8  C   UNL     1      -1.749  11.964  22.309  0.00  0.00    +0.000 A 
ATOM      9  C   UNL     1      -1.675  12.600  21.127  0.00  0.00    +0.000 A 
ATOM     10  N   UNL     1      -0.903  12.204  20.043  0.00  0.00    +0.000 N 
ATOM     11  C   UNL     1      -0.149  11.012  20.116  0.00  0.00    +0.000 A 
ATOM     12  N   UNL     1       0.542  10.574  19.034  0.00  0.00    +0.000 NA
ENDROOT
BRANCH   8  13
ATOM     13  C   UNL     1      -2.667  12.490  23.363  0.00  0.00    +0.000 C 
ATOM     14  O   UNL     1      -3.510  11.766  23.891  0.00  0.00    +0.000 OA
BRANCH  13  15
ATOM     15  C   UNL     1      -2.552  13.910  23.799  0.00  0.00    +0.000 A 
ATOM     16  C   UNL     1      -3.730  14.618  24.081  0.00  0.00    +0.000 A 
ATOM     17  C   UNL     1      -3.670  15.954  24.487  0.00  0.00    +0.000 A 
ATOM     18  C   UNL     1      -2.436  16.591  24.613  0.00  0.00    +0.000 A 
ATOM     19  C   UNL     1      -1.265  15.881  24.353  0.00  0.00    +0.000 A 
ATOM     20 CL   UNL     1       0.260  16.668  24.495  0.00  0.00    +0.000 Cl
ATOM     21  C   UNL     1      -1.314  14.541  23.970  0.00  0.00    +0.000 A 
ENDBRANCH  13  15
ENDBRANCH   8  13
BRANCH  10  22
ATOM     22  C   UNL     1      -0.892  12.916  18.754  0.00  0.00    +0.000 C 
BRANCH  22  23
ATOM     23  C   UNL     1       0.052  14.122  18.772  0.00  0.00    +0.000 C 
ATOM     24  O   UNL     1      -0.386  15.272  18.785  0.00  0.00    +0.000 OA
ATOM     25  N   UNL     1       1.402  13.795  18.742  0.00  0.00    +0.000 N 
ATOM     26  H   UNL     1       1.606  12.895  18.305  0.00  0.00    +0.000 HD
BRANCH  25  27
ATOM     27  C   UNL     1       2.431  14.763  18.826  0.00  0.00    +0.000 A 
ATOM     28  C   UNL     1       2.842  15.442  17.666  0.00  0.00    +0.000 A 
ATOM     29  C   UNL     1       3.837  16.422  17.716  0.00  0.00    +0.000 A 
ATOM     30  C   UNL     1       4.449  16.729  18.925  0.00  0.00    +0.000 A 
ATOM     31  C   UNL     1       4.049  16.066  20.083  0.00  0.00    +0.000 A 
ATOM     32  C   UNL     1       3.030  15.088  20.054  0.00  0.00    +0.000 A 
BRANCH  32  33
ATOM     33  C   UNL     1       2.726  14.373  21.342  0.00  0.00    +0.000 C 
ATOM     34  F   UNL     1       2.760  13.014  21.255  0.00  0.00    +0.000 F 
ATOM     35  F   UNL     1       3.600  14.695  22.336  0.00  0.00    +0.000 F 
ATOM     36  F   UNL     1       1.488  14.672  21.825  0.00  0.00    +0.000 F 
ENDBRANCH  32  33
ENDBRANCH  25  27
ENDBRANCH  22  23
ENDBRANCH  10  22
TORSDOF 6
ENDMDL
MODEL 8
REMARK VINA RESULT:      -8.6      3.014      4.674
REMARK  Name = 
REMARK  7 active torsions:
REMARK  status: ('A' for Active; 'I' for Inactive)
REMARK    1  A    between atoms: C_1  and  C_2
REMARK    2  A    between atoms: C_8  and  C_9
REMARK    3  A    between atoms: C_9  and  C_11
REMARK    4  A    between atoms: N_19  and  C_20
REMARK    5  A    between atoms: C_20  and  C_21
REMARK    6  A    between atoms: N_23  and  C_24
REMARK    7  A    between atoms: C_29  and  C_30
REMARK                            x       y       z     vdW  Elec       q    Type
REMARK                         _______ _______ _______ _____ _____    ______ ____
ROOT
ATOM      1  C   UNL     1      -2.049  12.059  23.031  0.00  0.00    +0.000 C 
ATOM      2  C   UNL     1      -1.074  11.143  22.352  0.00  0.00    +0.000 A 
ATOM      3  C   UNL     1      -0.396  10.183  23.092  0.00  0.00    +0.000 A 
ATOM      4  C   UNL     1       0.432   9.297  22.425  0.00  0.00    +0.000 A 
ATOM      5  C   UNL     1       0.542   9.397  21.040  0.00  0.00    +0.000 A 
ATOM      6  C   UNL     1       1.380   8.428  20.308  0.00  0.00    +0.000 A 
ATOM      7  O   UNL     1       1.833   7.452  20.893  0.00  0.00    +0.000 OA
ATOM      8  C   UNL     1       1.624   8.668  18.867  0.00  0.00    +0.000 A 
ATOM      9  C   UNL     1       0.902   9.644  18.289  0.00  0.00    +0.000 A 
ATOM     10  N   UNL     1       0.017  10.490  18.943  0.00  0.00    +0.000 N 
ATOM     11  C   UNL     1      -0.141  10.396  20.343  0.00  0.00    +0.000 A 
ATOM     12  N   UNL     1      -0.940  11.272  21.002  0.00  0.00    +0.000 NA
ENDROOT
BRANCH   8  13
ATOM     13  C   UNL     1       2.573   7.872  18.033  0.00  0.00    +0.000 C 
ATOM     14  O   UNL     1       3.146   8.375  17.068  0.00  0.00    +0.000 OA
BRANCH  13  15
ATOM     15  C   UNL     1       2.848   6.450  18.384  0.00  0.00    +0.000 A 
ATOM     16  C   UNL     1       4.124   6.116  18.859  0.00  0.00    +0.000 A 
ATOM     17  C   UNL     1       4.429   4.794  19.195  0.00  0.00    +0.000 A 
ATOM     18  C   UNL     1       3.462   3.798  19.057  0.00  0.00    +0.000 A 
ATOM     19  C   UNL     1       2.188   4.134  18.604  0.00  0.00    +0.000 A 
ATOM     20 CL   UNL     1       0.996   2.905  18.419  0.00  0.00    +0.000 Cl
ATOM     21  C   UNL     1       1.868   5.455  18.290  0.00  0.00    +0.000 A 
ENDBRANCH  13  15
ENDBRANCH   8  13
BRANCH  10  22
ATOM     22  C   UNL     1      -0.718  11.573  18.266  0.00  0.00    +0.000 C 
BRANCH  22  23
ATOM     23  C   UNL     1       0.005  12.919  18.386  0.00  0.00    +0.000 C 
ATOM     24  O   UNL     1      -0.625  13.968  18.508  0.00  0.00    +0.000 OA
ATOM     25  N   UNL     1       1.389  12.835  18.315  0.00  0.00    +0.000 N 
ATOM     26  H   UNL     1       1.735  12.026  17.795  0.00  0.00    +0.000 HD
BRANCH  25  27
ATOM     27  C   UNL     1       2.238  13.956  18.478  0.00  0.00    +0.000 A 
ATOM     28  C   UNL     1       2.800  14.571  17.347  0.00  0.00    +0.000 A 
ATOM     29  C   UNL     1       3.621  15.696  17.468  0.00  0.00    +0.000 A 
ATOM     30  C   UNL     1       3.907  16.214  18.725  0.00  0.00    +0.000 A 
ATOM     31  C   UNL     1       3.353  15.617  19.854  0.00  0.00    +0.000 A 
ATOM     32  C   UNL     1       2.504  14.493  19.748  0.00  0.00    +0.000 A 
BRANCH  32  33
ATOM     33  C   UNL     1       2.022  13.871  21.030  0.00  0.00    +0.000 C 
ATOM     34  F   UNL     1       2.687  14.284  22.144  0.00  0.00    +0.000 F 
ATOM     35  F   UNL     1       0.708  14.133  21.275  0.00  0.00    +0.000 F 
ATOM     36  F   UNL     1       2.136  12.514  21.026  0.00  0.00    +0.000 F 
ENDBRANCH  32  33
ENDBRANCH  25  27
ENDBRANCH  22  23
ENDBRANCH  10  22
TORSDOF 6
ENDMDL
MODEL 9
REMARK VINA RESULT:      -8.6      4.959      8.641
REMARK  Name = 
REMARK  7 active torsions:
REMARK  status: ('A' for Active; 'I' for Inactive)
REMARK    1  A    between atoms: C_1  and  C_2
REMARK    2  A    between atoms: C_8  and  C_9
REMARK    3  A    between atoms: C_9  and  C_11
REMARK    4  A    between atoms: N_19  and  C_20
REMARK    5  A    between atoms: C_20  and  C_21
REMARK    6  A    between atoms: N_23  and  C_24
REMARK    7  A    between atoms: C_29  and  C_30
REMARK                            x       y       z     vdW  Elec       q    Type
REMARK                         _______ _______ _______ _____ _____    ______ ____
ROOT
ATOM      1  C   UNL     1       2.160   8.874  17.875  0.00  0.00    +0.000 C 
ATOM      2  C   UNL     1       1.325   9.299  19.047  0.00  0.00    +0.000 A 
ATOM      3  C   UNL     1       1.329   8.540  20.210  0.00  0.00    +0.000 A 
ATOM      4  C   UNL     1       0.617   9.001  21.303  0.00  0.00    +0.000 A 
ATOM      5  C   UNL     1      -0.064  10.212  21.195  0.00  0.00    +0.000 A 
ATOM      6  C   UNL     1      -0.786  10.745  22.367  0.00  0.00    +0.000 A 
ATOM      7  O   UNL     1      -0.645  10.212  23.461  0.00  0.00    +0.000 OA
ATOM      8  C   UNL     1      -1.647  11.933  22.172  0.00  0.00    +0.000 A 
ATOM      9  C   UNL     1      -1.553  12.556  20.985  0.00  0.00    +0.000 A 
ATOM     10  N   UNL     1      -0.785  12.134  19.909  0.00  0.00    +0.000 N 
ATOM     11  C   UNL     1      -0.058  10.926  19.996  0.00  0.00    +0.000 A 
ATOM     12  N   UNL     1       0.629  10.464  18.921  0.00  0.00    +0.000 NA
ENDROOT
BRANCH   8  13
ATOM     13  C   UNL     1      -2.559  12.488  23.217  0.00  0.00    +0.000 C 
ATOM     14  O   UNL     1      -3.369  11.769  23.801  0.00  0.00    +0.000 OA
BRANCH  13  15
ATOM     15  C   UNL     1      -2.477  13.931  23.575  0.00  0.00    +0.000 A 
ATOM     16  C   UNL     1      -1.261  14.428  24.066  0.00  0.00    +0.000 A 
ATOM     17  C   UNL     1      -1.140  15.775  24.420  0.00  0.00    +0.000 A 
ATOM     18  C   UNL     1      -2.232  16.633  24.287  0.00  0.00    +0.000 A 
ATOM     19  C   UNL     1      -3.434  16.143  23.780  0.00  0.00    +0.000 A 
ATOM     20 CL   UNL     1      -4.788  17.197  23.627  0.00  0.00    +0.000 Cl
ATOM     21  C   UNL     1      -3.556  14.807  23.401  0.00  0.00    +0.000 A 
ENDBRANCH  13  15
ENDBRANCH   8  13
BRANCH  10  22
ATOM     22  C   UNL     1      -0.752  12.834  18.614  0.00  0.00    +0.000 C 
BRANCH  22  23
ATOM     23  C   UNL     1       0.184  14.047  18.641  0.00  0.00    +0.000 C 
ATOM     24  O   UNL     1      -0.261  15.194  18.608  0.00  0.00    +0.000 OA
ATOM     25  N   UNL     1       1.535  13.729  18.674  0.00  0.00    +0.000 N 
ATOM     26  H   UNL     1       1.763  12.820  18.268  0.00  0.00    +0.000 HD
BRANCH  25  27
ATOM     27  C   UNL     1       2.555  14.706  18.776  0.00  0.00    +0.000 A 
ATOM     28  C   UNL     1       3.059  15.307  17.610  0.00  0.00    +0.000 A 
ATOM     29  C   UNL     1       4.047  16.294  17.675  0.00  0.00    +0.000 A 
ATOM     30  C   UNL     1       4.558  16.684  18.906  0.00  0.00    +0.000 A 
ATOM     31  C   UNL     1       4.064  16.100  20.070  0.00  0.00    +0.000 A 
ATOM     32  C   UNL     1       3.051  15.117  20.024  0.00  0.00    +0.000 A 
BRANCH  32  33
ATOM     33  C   UNL     1       2.643  14.488  21.328  0.00  0.00    +0.000 C 
ATOM     34  F   UNL     1       3.453  14.791  22.380  0.00  0.00    +0.000 F 
ATOM     35  F   UNL     1       1.391  14.859  21.716  0.00  0.00    +0.000 F 
ATOM     36  F   UNL     1       2.625  13.127  21.268  0.00  0.00    +0.000 F 
ENDBRANCH  32  33
ENDBRANCH  25  27
ENDBRANCH  22  23
ENDBRANCH  10  22
TORSDOF 6
ENDMDL
