MODEL 1
REMARK VINA RESULT:      -9.5      0.000      0.000
REMARK  Name = 
REMARK  7 active torsions:
REMARK  status: ('A' for Active; 'I' for Inactive)
REMARK    1  A    between atoms: O_1  and  C_2
REMARK    2  A    between atoms: C_5  and  C_6
REMARK    3  A    between atoms: C_10  and  C_11
REMARK    4  A    between atoms: C_12  and  C_13
REMARK    5  A    between atoms: C_24  and  O_25
REMARK    6  A    between atoms: O_25  and  C_26
REMARK    7  A    between atoms: C_26  and  C_27
REMARK                            x       y       z     vdW  Elec       q    Type
REMARK                         _______ _______ _______ _____ _____    ______ ____
ROOT
ATOM      1  C   UNL     1       2.531   7.593  18.804  0.00  0.00    +0.000 A 
ATOM      2  C   UNL     1       2.093   7.598  20.146  0.00  0.00    +0.000 A 
ATOM      3  C   UNL     1       1.208   8.564  20.647  0.00  0.00    +0.000 A 
ATOM      4  C   UNL     1       0.717   9.546  19.771  0.00  0.00    +0.000 A 
ATOM      5  C   UNL     1      -0.161  10.667  19.855  0.00  0.00    +0.000 A 
ATOM      6  N   UNL     1      -0.289  11.277  18.670  0.00  0.00    +0.000 NA
ATOM      7  N   UNL     1       0.500  10.573  17.850  0.00  0.00    +0.000 N 
ATOM      8  C   UNL     1       1.133   9.520  18.447  0.00  0.00    +0.000 A 
ATOM      9  C   UNL     1       2.032   8.580  17.935  0.00  0.00    +0.000 A 
ATOM     10  H   UNL     1       0.569  10.865  16.883  0.00  0.00    +0.000 HD
ENDROOT
BRANCH   1  14
ATOM     11  C   UNL     1       5.391   4.659  17.504  0.00  0.00    +0.000 A 
ATOM     12  C   UNL     1       4.922   5.606  16.595  0.00  0.00    +0.000 A 
ATOM     13  C   UNL     1       3.976   6.553  17.004  0.00  0.00    +0.000 A 
ATOM     14  C   UNL     1       3.519   6.600  18.331  0.00  0.00    +0.000 A 
ATOM     15  C   UNL     1       4.047   5.658  19.228  0.00  0.00    +0.000 A 
ATOM     16  C   UNL     1       4.930   4.655  18.821  0.00  0.00    +0.000 A 
BRANCH  11  17
ATOM     17  O   UNL     1       6.295   3.714  17.102  0.00  0.00    +0.000 OA
ATOM     18  H   UNL     1       7.157   3.914  17.497  0.00  0.00    +0.000 HD
ENDBRANCH  11  17
BRANCH  16  19
ATOM     19  O   UNL     1       5.371   3.667  19.663  0.00  0.00    +0.000 OA
BRANCH  19  20
ATOM     20  C   UNL     1       4.627   2.445  19.584  0.00  0.00    +0.000 C 
BRANCH  20  21
ATOM     21  C   UNL     1       3.146   2.679  19.732  0.00  0.00    +0.000 A 
ATOM     22  C   UNL     1       2.303   2.500  18.624  0.00  0.00    +0.000 A 
ATOM     23  C   UNL     1       0.925   2.670  18.749  0.00  0.00    +0.000 A 
ATOM     24  C   UNL     1       0.376   3.004  19.985  0.00  0.00    +0.000 A 
ATOM     25  C   UNL     1       1.201   3.157  21.098  0.00  0.00    +0.000 A 
ATOM     26  C   UNL     1       2.578   2.986  20.974  0.00  0.00    +0.000 A 
ENDBRANCH  20  21
ENDBRANCH  19  20
ENDBRANCH  16  19
ENDBRANCH   1  14
BRANCH   5  27
ATOM     27  C   UNL     1      -0.804  11.115  21.057  0.00  0.00    +0.000 C 
ATOM     28  C   UNL     1      -1.350  12.334  21.201  0.00  0.00    +0.000 C 
BRANCH  28  29
ATOM     29  C   UNL     1      -1.948  12.859  22.434  0.00  0.00    +0.000 A 
ATOM     30  C   UNL     1      -3.106  12.238  22.923  0.00  0.00    +0.000 A 
ATOM     31  C   UNL     1      -3.727  12.699  24.084  0.00  0.00    +0.000 A 
ATOM     32  C   UNL     1      -3.188  13.780  24.779  0.00  0.00    +0.000 A 
ATOM     33  C   UNL     1      -2.022  14.390  24.319  0.00  0.00    +0.000 A 
ATOM     34  C   UNL     1      -1.400  13.927  23.156  0.00  0.00    +0.000 A 
ENDBRANCH  28  29
ENDBRANCH   5  27
TORSDOF 7
ENDMDL
MODEL 2
REMARK VINA RESULT:      -9.5      4.079     10.275
REMARK  Name = 
REMARK  7 active torsions:
REMARK  status: ('A' for Active; 'I' for Inactive)
REMARK    1  A    between atoms: O_1  and  C_2
REMARK    2  A    between atoms: C_5  and  C_6
REMARK    3  A    between atoms: C_10  and  C_11
REMARK    4  A    between atoms: C_12  and  C_13
REMARK    5  A    between atoms: C_24  and  O_25
REMARK    6  A    between atoms: O_25  and  C_26
REMARK    7  A    between atoms: C_26  and  C_27
REMARK                            x       y       z     vdW  Elec       q    Type
REMARK                         _______ _______ _______ _____ _____    ______ ____
ROOT
ATOM      1  C   UNL     1       2.086   7.380  19.718  0.00  0.00    +0.000 A 
ATOM      2  C   UNL     1       2.700   7.699  18.488  0.00  0.00    +0.000 A 
ATOM      3  C   UNL     1       3.514   6.793  17.794  0.00  0.00    +0.000 A 
ATOM      4  C   UNL     1       3.700   5.508  18.330  0.00  0.00    +0.000 A 
ATOM      5  C   UNL     1       4.415   4.327  17.971  0.00  0.00    +0.000 A 
ATOM      6  N   UNL     1       4.231   3.352  18.870  0.00  0.00    +0.000 NA
ATOM      7  N   UNL     1       3.430   3.901  19.791  0.00  0.00    +0.000 N 
ATOM      8  C   UNL     1       3.073   5.193  19.527  0.00  0.00    +0.000 A 
ATOM      9  C   UNL     1       2.277   6.090  20.245  0.00  0.00    +0.000 A 
ATOM     10  H   UNL     1       3.160   3.338  20.588  0.00  0.00    +0.000 HD
ENDROOT
BRANCH   1  14
ATOM     11  C   UNL     1      -0.226  10.356  21.787  0.00  0.00    +0.000 A 
ATOM     12  C   UNL     1      -0.047   9.103  22.369  0.00  0.00    +0.000 A 
ATOM     13  C   UNL     1       0.687   8.121  21.695  0.00  0.00    +0.000 A 
ATOM     14  C   UNL     1       1.291   8.387  20.455  0.00  0.00    +0.000 A 
ATOM     15  C   UNL     1       1.126   9.674  19.920  0.00  0.00    +0.000 A 
ATOM     16  C   UNL     1       0.330  10.641  20.539  0.00  0.00    +0.000 A 
BRANCH  11  17
ATOM     17  O   UNL     1      -0.966  11.310  22.431  0.00  0.00    +0.000 OA
ATOM     18  H   UNL     1      -1.268  11.964  21.783  0.00  0.00    +0.000 HD
ENDBRANCH  11  17
BRANCH  16  19
ATOM     19  O   UNL     1       0.076  11.865  19.976  0.00  0.00    +0.000 OA
BRANCH  19  20
ATOM     20  C   UNL     1      -0.153  11.831  18.562  0.00  0.00    +0.000 C 
BRANCH  20  21
ATOM     21  C   UNL     1      -1.550  11.374  18.231  0.00  0.00    +0.000 A 
ATOM     22  C   UNL     1      -1.735  10.215  17.460  0.00  0.00    +0.000 A 
ATOM     23  C   UNL     1      -3.019   9.750  17.178  0.00  0.00    +0.000 A 
ATOM     24  C   UNL     1      -4.128  10.430  17.676  0.00  0.00    +0.000 A 
ATOM     25  C   UNL     1      -3.955  11.566  18.466  0.00  0.00    +0.000 A 
ATOM     26  C   UNL     1      -2.672  12.030  18.749  0.00  0.00    +0.000 A 
ENDBRANCH  20  21
ENDBRANCH  19  20
ENDBRANCH  16  19
ENDBRANCH   1  14
BRANCH   5  27
ATOM     27  C   UNL     1       5.255   4.198  16.815  0.00  0.00    +0.000 C 
ATOM     28  C   UNL     1       4.887   4.574  15.578  0.00  0.00    +0.000 C 
BRANCH  28  29
ATOM     29  C   UNL     1       5.683   4.389  14.360  0.00  0.00    +0.000 A 
ATOM     30  C   UNL     1       6.894   5.086  14.251  0.00  0.00    +0.000 A 
ATOM     31  C   UNL     1       7.689   4.961  13.111  0.00  0.00    +0.000 A 
ATOM     32  C   UNL     1       7.288   4.126  12.071  0.00  0.00    +0.000 A 
ATOM     33  C   UNL     1       6.098   3.406  12.178  0.00  0.00    +0.000 A 
ATOM     34  C   UNL     1       5.303   3.531  13.319  0.00  0.00    +0.000 A 
ENDBRANCH  28  29
ENDBRANCH   5  27
TORSDOF 7
ENDMDL
MODEL 3
REMARK VINA RESULT:      -9.5      4.227     10.526
REMARK  Name = 
REMARK  7 active torsions:
REMARK  status: ('A' for Active; 'I' for Inactive)
REMARK    1  A    between atoms: O_1  and  C_2
REMARK    2  A    between atoms: C_5  and  C_6
REMARK    3  A    between atoms: C_10  and  C_11
REMARK    4  A    between atoms: C_12  and  C_13
REMARK    5  A    between atoms: C_24  and  O_25
REMARK    6  A    between atoms: O_25  and  C_26
REMARK    7  A    between atoms: C_26  and  C_27
REMARK                            x       y       z     vdW  Elec       q    Type
REMARK                         _______ _______ _______ _____ _____    ______ ____
ROOT
ATOM      1  C   UNL     1       1.815   7.970  19.817  0.00  0.00    +0.000 A 
ATOM      2  C   UNL     1       2.043   8.349  18.477  0.00  0.00    +0.000 A 
ATOM      3  C   UNL     1       2.802   7.570  17.592  0.00  0.00    +0.000 A 
ATOM      4  C   UNL     1       3.330   6.351  18.050  0.00  0.00    +0.000 A 
ATOM      5  C   UNL     1       4.124   5.296  17.512  0.00  0.00    +0.000 A 
ATOM      6  N   UNL     1       4.336   4.333  18.418  0.00  0.00    +0.000 NA
ATOM      7  N   UNL     1       3.705   4.769  19.515  0.00  0.00    +0.000 N 
ATOM      8  C   UNL     1       3.081   5.974  19.362  0.00  0.00    +0.000 A 
ATOM      9  C   UNL     1       2.346   6.748  20.266  0.00  0.00    +0.000 A 
ATOM     10  H   UNL     1       3.740   4.194  20.348  0.00  0.00    +0.000 HD
ENDROOT
BRANCH   1  14
ATOM     11  C   UNL     1      -0.403  10.567  22.429  0.00  0.00    +0.000 A 
ATOM     12  C   UNL     1       0.394   9.563  22.978  0.00  0.00    +0.000 A 
ATOM     13  C   UNL     1       1.104   8.701  22.135  0.00  0.00    +0.000 A 
ATOM     14  C   UNL     1       1.068   8.853  20.739  0.00  0.00    +0.000 A 
ATOM     15  C   UNL     1       0.289   9.901  20.226  0.00  0.00    +0.000 A 
ATOM     16  C   UNL     1      -0.490  10.722  21.046  0.00  0.00    +0.000 A 
BRANCH  11  17
ATOM     17  O   UNL     1      -1.120  11.395  23.248  0.00  0.00    +0.000 OA
ATOM     18  H   UNL     1      -1.859  11.770  22.748  0.00  0.00    +0.000 HD
ENDBRANCH  11  17
BRANCH  16  19
ATOM     19  O   UNL     1      -1.334  11.681  20.548  0.00  0.00    +0.000 OA
BRANCH  19  20
ATOM     20  C   UNL     1      -1.185  11.933  19.146  0.00  0.00    +0.000 C 
BRANCH  20  21
ATOM     21  C   UNL     1      -2.466  11.683  18.392  0.00  0.00    +0.000 A 
ATOM     22  C   UNL     1      -3.696  11.994  18.994  0.00  0.00    +0.000 A 
ATOM     23  C   UNL     1      -4.890  11.811  18.300  0.00  0.00    +0.000 A 
ATOM     24  C   UNL     1      -4.866  11.329  16.993  0.00  0.00    +0.000 A 
ATOM     25  C   UNL     1      -3.649  11.043  16.375  0.00  0.00    +0.000 A 
ATOM     26  C   UNL     1      -2.455  11.227  17.070  0.00  0.00    +0.000 A 
ENDBRANCH  20  21
ENDBRANCH  19  20
ENDBRANCH  16  19
ENDBRANCH   1  14
BRANCH   5  27
ATOM     27  C   UNL     1       4.662   5.273  16.182  0.00  0.00    +0.000 C 
ATOM     28  C   UNL     1       5.604   4.405  15.773  0.00  0.00    +0.000 C 
BRANCH  28  29
ATOM     29  C   UNL     1       6.236   4.396  14.448  0.00  0.00    +0.000 A 
ATOM     30  C   UNL     1       5.683   3.572  13.459  0.00  0.00    +0.000 A 
ATOM     31  C   UNL     1       6.246   3.511  12.184  0.00  0.00    +0.000 A 
ATOM     32  C   UNL     1       7.363   4.286  11.879  0.00  0.00    +0.000 A 
ATOM     33  C   UNL     1       7.907   5.130  12.846  0.00  0.00    +0.000 A 
ATOM     34  C   UNL     1       7.342   5.192  14.122  0.00  0.00    +0.000 A 
ENDBRANCH  28  29
ENDBRANCH   5  27
TORSDOF 7
ENDMDL
MODEL 4
REMARK VINA RESULT:      -9.4      4.209     10.334
REMARK  Name = 
REMARK  7 active torsions:
REMARK  status: ('A' for Active; 'I' for Inactive)
REMARK    1  A    between atoms: O_1  and  C_2
REMARK    2  A    between atoms: C_5  and  C_6
REMARK    3  A    between atoms: C_10  and  C_11
REMARK    4  A    between atoms: C_12  and  C_13
REMARK    5  A    between atoms: C_24  and  O_25
REMARK    6  A    between atoms: O_25  and  C_26
REMARK    7  A    between atoms: C_26  and  C_27
REMARK                            x       y       z     vdW  Elec       q    Type
REMARK                         _______ _______ _______ _____ _____    ______ ____
ROOT
ATOM      1  C   UNL     1       2.193   7.331  19.548  0.00  0.00    +0.000 A 
ATOM      2  C   UNL     1       2.645   7.513  18.224  0.00  0.00    +0.000 A 
ATOM      3  C   UNL     1       3.377   6.534  17.536  0.00  0.00    +0.000 A 
ATOM      4  C   UNL     1       3.642   5.314  18.181  0.00  0.00    +0.000 A 
ATOM      5  C   UNL     1       4.320   4.100  17.865  0.00  0.00    +0.000 A 
ATOM      6  N   UNL     1       4.260   3.229  18.881  0.00  0.00    +0.000 NA
ATOM      7  N   UNL     1       3.574   3.877  19.830  0.00  0.00    +0.000 N 
ATOM      8  C   UNL     1       3.173   5.133  19.474  0.00  0.00    +0.000 A 
ATOM      9  C   UNL     1       2.463   6.106  20.184  0.00  0.00    +0.000 A 
ATOM     10  H   UNL     1       3.411   3.405  20.711  0.00  0.00    +0.000 HD
ENDROOT
BRANCH   1  14
ATOM     11  C   UNL     1       0.101  10.506  21.555  0.00  0.00    +0.000 A 
ATOM     12  C   UNL     1       0.698   9.497  22.309  0.00  0.00    +0.000 A 
ATOM     13  C   UNL     1       1.365   8.449  21.664  0.00  0.00    +0.000 A 
ATOM     14  C   UNL     1       1.485   8.414  20.265  0.00  0.00    +0.000 A 
ATOM     15  C   UNL     1       0.909   9.470  19.542  0.00  0.00    +0.000 A 
ATOM     16  C   UNL     1       0.171  10.481  20.162  0.00  0.00    +0.000 A 
BRANCH  11  17
ATOM     17  O   UNL     1      -0.574  11.518  22.180  0.00  0.00    +0.000 OA
ATOM     18  H   UNL     1      -0.115  12.355  22.012  0.00  0.00    +0.000 HD
ENDBRANCH  11  17
BRANCH  16  19
ATOM     19  O   UNL     1      -0.484  11.460  19.458  0.00  0.00    +0.000 OA
BRANCH  19  20
ATOM     20  C   UNL     1      -1.913  11.389  19.534  0.00  0.00    +0.000 C 
BRANCH  20  21
ATOM     21  C   UNL     1      -2.530  11.056  18.201  0.00  0.00    +0.000 A 
ATOM     22  C   UNL     1      -3.762  11.628  17.846  0.00  0.00    +0.000 A 
ATOM     23  C   UNL     1      -4.330  11.367  16.600  0.00  0.00    +0.000 A 
ATOM     24  C   UNL     1      -3.666  10.544  15.692  0.00  0.00    +0.000 A 
ATOM     25  C   UNL     1      -2.428   9.994  16.024  0.00  0.00    +0.000 A 
ATOM     26  C   UNL     1      -1.860  10.256  17.269  0.00  0.00    +0.000 A 
ENDBRANCH  20  21
ENDBRANCH  19  20
ENDBRANCH  16  19
ENDBRANCH   1  14
BRANCH   5  27
ATOM     27  C   UNL     1       5.011   3.843  16.635  0.00  0.00    +0.000 C 
ATOM     28  C   UNL     1       5.402   4.807  15.783  0.00  0.00    +0.000 C 
BRANCH  28  29
ATOM     29  C   UNL     1       6.041   4.584  14.481  0.00  0.00    +0.000 A 
ATOM     30  C   UNL     1       5.427   3.696  13.587  0.00  0.00    +0.000 A 
ATOM     31  C   UNL     1       5.993   3.434  12.339  0.00  0.00    +0.000 A 
ATOM     32  C   UNL     1       7.175   4.070  11.964  0.00  0.00    +0.000 A 
ATOM     33  C   UNL     1       7.782   4.976  12.833  0.00  0.00    +0.000 A 
ATOM     34  C   UNL     1       7.214   5.239  14.082  0.00  0.00    +0.000 A 
ENDBRANCH  28  29
ENDBRANCH   5  27
TORSDOF 7
ENDMDL
MODEL 5
REMARK VINA RESULT:      -9.4      0.859      1.302
REMARK  Name = 
REMARK  7 active torsions:
REMARK  status: ('A' for Active; 'I' for Inactive)
REMARK    1  A    between atoms: O_1  and  C_2
REMARK    2  A    between atoms: C_5  and  C_6
REMARK    3  A    between atoms: C_10  and  C_11
REMARK    4  A    between atoms: C_12  and  C_13
REMARK    5  A    between atoms: C_24  and  O_25
REMARK    6  A    between atoms: O_25  and  C_26
REMARK    7  A    between atoms: C_26  and  C_27
REMARK                            x       y       z     vdW  Elec       q    Type
REMARK                         _______ _______ _______ _____ _____    ______ ____
ROOT
ATOM      1  C   UNL     1       2.365   7.624  18.678  0.00  0.00    +0.000 A 
ATOM      2  C   UNL     1       1.991   7.627  20.039  0.00  0.00    +0.000 A 
ATOM      3  C   UNL     1       1.170   8.620  20.593  0.00  0.00    +0.000 A 
ATOM      4  C   UNL     1       0.678   9.633  19.753  0.00  0.00    +0.000 A 
ATOM      5  C   UNL     1      -0.149  10.786  19.893  0.00  0.00    +0.000 A 
ATOM      6  N   UNL     1      -0.309  11.417  18.722  0.00  0.00    +0.000 NA
ATOM      7  N   UNL     1       0.412  10.695  17.858  0.00  0.00    +0.000 N 
ATOM      8  C   UNL     1       1.031   9.609  18.411  0.00  0.00    +0.000 A 
ATOM      9  C   UNL     1       1.867   8.641  17.846  0.00  0.00    +0.000 A 
ATOM     10  H   UNL     1       0.448  10.997  16.892  0.00  0.00    +0.000 HD
ENDROOT
BRANCH   1  14
ATOM     11  C   UNL     1       4.984   4.596  17.112  0.00  0.00    +0.000 A 
ATOM     12  C   UNL     1       5.500   5.852  17.424  0.00  0.00    +0.000 A 
ATOM     13  C   UNL     1       4.652   6.850  17.915  0.00  0.00    +0.000 A 
ATOM     14  C   UNL     1       3.290   6.599  18.147  0.00  0.00    +0.000 A 
ATOM     15  C   UNL     1       2.815   5.310  17.862  0.00  0.00    +0.000 A 
ATOM     16  C   UNL     1       3.627   4.325  17.295  0.00  0.00    +0.000 A 
BRANCH  11  17
ATOM     17  O   UNL     1       5.804   3.625  16.605  0.00  0.00    +0.000 OA
ATOM     18  H   UNL     1       6.688   3.727  16.989  0.00  0.00    +0.000 HD
ENDBRANCH  11  17
BRANCH  16  19
ATOM     19  O   UNL     1       3.150   3.096  16.916  0.00  0.00    +0.000 OA
BRANCH  19  20
ATOM     20  C   UNL     1       3.349   2.059  17.884  0.00  0.00    +0.000 C 
BRANCH  20  21
ATOM     21  C   UNL     1       2.624   2.348  19.173  0.00  0.00    +0.000 A 
ATOM     22  C   UNL     1       3.360   2.514  20.358  0.00  0.00    +0.000 A 
ATOM     23  C   UNL     1       2.714   2.824  21.554  0.00  0.00    +0.000 A 
ATOM     24  C   UNL     1       1.330   2.987  21.574  0.00  0.00    +0.000 A 
ATOM     25  C   UNL     1       0.594   2.853  20.398  0.00  0.00    +0.000 A 
ATOM     26  C   UNL     1       1.239   2.543  19.202  0.00  0.00    +0.000 A 
ENDBRANCH  20  21
ENDBRANCH  19  20
ENDBRANCH  16  19
ENDBRANCH   1  14
BRANCH   5  27
ATOM     27  C   UNL     1      -0.717  11.242  21.129  0.00  0.00    +0.000 C 
ATOM     28  C   UNL     1      -1.475  12.347  21.240  0.00  0.00    +0.000 C 
BRANCH  28  29
ATOM     29  C   UNL     1      -2.010  12.890  22.494  0.00  0.00    +0.000 A 
ATOM     30  C   UNL     1      -3.161  12.297  23.032  0.00  0.00    +0.000 A 
ATOM     31  C   UNL     1      -3.723  12.777  24.215  0.00  0.00    +0.000 A 
ATOM     32  C   UNL     1      -3.133  13.848  24.882  0.00  0.00    +0.000 A 
ATOM     33  C   UNL     1      -1.973  14.429  24.372  0.00  0.00    +0.000 A 
ATOM     34  C   UNL     1      -1.409  13.948  23.188  0.00  0.00    +0.000 A 
ENDBRANCH  28  29
ENDBRANCH   5  27
TORSDOF 7
ENDMDL
MODEL 6
REMARK VINA RESULT:      -9.3      1.238      3.315
REMARK  Name = 
REMARK  7 active torsions:
REMARK  status: ('A' for Active; 'I' for Inactive)
REMARK    1  A    between atoms: O_1  and  C_2
REMARK    2  A    between atoms: C_5  and  C_6
REMARK    3  A    between atoms: C_10  and  C_11
REMARK    4  A    between atoms: C_12  and  C_13
REMARK    5  A    between atoms: C_24  and  O_25
REMARK    6  A    between atoms: O_25  and  C_26
REMARK    7  A    between atoms: C_26  and  C_27
REMARK                            x       y       z     vdW  Elec       q    Type
REMARK                         _______ _______ _______ _____ _____    ______ ____
ROOT
ATOM      1  C   UNL     1       2.090   7.147  19.716  0.00  0.00    +0.000 A 
ATOM      2  C   UNL     1       1.235   7.440  20.799  0.00  0.00    +0.000 A 
ATOM      3  C   UNL     1       0.544   8.656  20.907  0.00  0.00    +0.000 A 
ATOM      4  C   UNL     1       0.687   9.604  19.881  0.00  0.00    +0.000 A 
ATOM      5  C   UNL     1       0.190  10.912  19.600  0.00  0.00    +0.000 A 
ATOM      6  N   UNL     1       0.660  11.371  18.432  0.00  0.00    +0.000 NA
ATOM      7  N   UNL     1       1.450  10.389  17.985  0.00  0.00    +0.000 N 
ATOM      8  C   UNL     1       1.511   9.299  18.807  0.00  0.00    +0.000 A 
ATOM      9  C   UNL     1       2.226   8.103  18.694  0.00  0.00    +0.000 A 
ATOM     10  H   UNL     1       1.930  10.523  17.104  0.00  0.00    +0.000 HD
ENDROOT
BRANCH   1  14
ATOM     11  C   UNL     1       4.392   3.518  19.603  0.00  0.00    +0.000 A 
ATOM     12  C   UNL     1       3.008   3.446  19.754  0.00  0.00    +0.000 A 
ATOM     13  C   UNL     1       2.253   4.622  19.811  0.00  0.00    +0.000 A 
ATOM     14  C   UNL     1       2.857   5.883  19.674  0.00  0.00    +0.000 A 
ATOM     15  C   UNL     1       4.246   5.914  19.480  0.00  0.00    +0.000 A 
ATOM     16  C   UNL     1       5.027   4.756  19.500  0.00  0.00    +0.000 A 
BRANCH  11  17
ATOM     17  O   UNL     1       5.137   2.371  19.573  0.00  0.00    +0.000 OA
ATOM     18  H   UNL     1       4.887   1.852  18.794  0.00  0.00    +0.000 HD
ENDBRANCH  11  17
BRANCH  16  19
ATOM     19  O   UNL     1       6.396   4.782  19.416  0.00  0.00    +0.000 OA
BRANCH  19  20
ATOM     20  C   UNL     1       6.916   5.769  18.517  0.00  0.00    +0.000 C 
BRANCH  20  21
ATOM     21  C   UNL     1       6.541   5.479  17.087  0.00  0.00    +0.000 A 
ATOM     22  C   UNL     1       7.067   4.344  16.450  0.00  0.00    +0.000 A 
ATOM     23  C   UNL     1       6.700   4.034  15.142  0.00  0.00    +0.000 A 
ATOM     24  C   UNL     1       5.793   4.845  14.463  0.00  0.00    +0.000 A 
ATOM     25  C   UNL     1       5.243   5.958  15.097  0.00  0.00    +0.000 A 
ATOM     26  C   UNL     1       5.609   6.269  16.405  0.00  0.00    +0.000 A 
ENDBRANCH  20  21
ENDBRANCH  19  20
ENDBRANCH  16  19
ENDBRANCH   1  14
BRANCH   5  27
ATOM     27  C   UNL     1      -0.675  11.663  20.463  0.00  0.00    +0.000 C 
ATOM     28  C   UNL     1      -0.413  11.899  21.760  0.00  0.00    +0.000 C 
BRANCH  28  29
ATOM     29  C   UNL     1      -1.304  12.595  22.696  0.00  0.00    +0.000 A 
ATOM     30  C   UNL     1      -2.479  11.944  23.097  0.00  0.00    +0.000 A 
ATOM     31  C   UNL     1      -3.371  12.559  23.975  0.00  0.00    +0.000 A 
ATOM     32  C   UNL     1      -3.093  13.829  24.474  0.00  0.00    +0.000 A 
ATOM     33  C   UNL     1      -1.914  14.477  24.105  0.00  0.00    +0.000 A 
ATOM     34  C   UNL     1      -1.020  13.860  23.226  0.00  0.00    +0.000 A 
ENDBRANCH  28  29
ENDBRANCH   5  27
TORSDOF 7
ENDMDL
MODEL 7
REMARK VINA RESULT:      -9.3      0.876      1.406
REMARK  Name = 
REMARK  7 active torsions:
REMARK  status: ('A' for Active; 'I' for Inactive)
REMARK    1  A    between atoms: O_1  and  C_2
REMARK    2  A    between atoms: C_5  and  C_6
REMARK    3  A    between atoms: C_10  and  C_11
REMARK    4  A    between atoms: C_12  and  C_13
REMARK    5  A    between atoms: C_24  and  O_25
REMARK    6  A    between atoms: O_25  and  C_26
REMARK    7  A    between atoms: C_26  and  C_27
REMARK                            x       y       z     vdW  Elec       q    Type
REMARK                         _______ _______ _______ _____ _____    ______ ____
ROOT
ATOM      1  C   UNL     1       2.391   7.651  18.603  0.00  0.00    +0.000 A 
ATOM      2  C   UNL     1       2.014   7.640  19.963  0.00  0.00    +0.000 A 
ATOM      3  C   UNL     1       1.191   8.628  20.525  0.00  0.00    +0.000 A 
ATOM      4  C   UNL     1       0.700   9.647  19.694  0.00  0.00    +0.000 A 
ATOM      5  C   UNL     1      -0.129  10.799  19.842  0.00  0.00    +0.000 A 
ATOM      6  N   UNL     1      -0.287  11.441  18.678  0.00  0.00    +0.000 NA
ATOM      7  N   UNL     1       0.437  10.727  17.808  0.00  0.00    +0.000 N 
ATOM      8  C   UNL     1       1.055   9.637  18.352  0.00  0.00    +0.000 A 
ATOM      9  C   UNL     1       1.893   8.675  17.780  0.00  0.00    +0.000 A 
ATOM     10  H   UNL     1       0.474  11.038  16.845  0.00  0.00    +0.000 HD
ENDROOT
BRANCH   1  14
ATOM     11  C   UNL     1       5.016   4.638  17.017  0.00  0.00    +0.000 A 
ATOM     12  C   UNL     1       5.519   5.908  17.289  0.00  0.00    +0.000 A 
ATOM     13  C   UNL     1       4.668   6.901  17.787  0.00  0.00    +0.000 A 
ATOM     14  C   UNL     1       3.318   6.632  18.064  0.00  0.00    +0.000 A 
ATOM     15  C   UNL     1       2.858   5.329  17.819  0.00  0.00    +0.000 A 
ATOM     16  C   UNL     1       3.670   4.347  17.247  0.00  0.00    +0.000 A 
BRANCH  11  17
ATOM     17  O   UNL     1       5.837   3.672  16.505  0.00  0.00    +0.000 OA
ATOM     18  H   UNL     1       6.535   4.095  15.982  0.00  0.00    +0.000 HD
ENDBRANCH  11  17
BRANCH  16  19
ATOM     19  O   UNL     1       3.204   3.103  16.906  0.00  0.00    +0.000 OA
BRANCH  19  20
ATOM     20  C   UNL     1       3.408   2.099  17.907  0.00  0.00    +0.000 C 
BRANCH  20  21
ATOM     21  C   UNL     1       2.687   2.430  19.188  0.00  0.00    +0.000 A 
ATOM     22  C   UNL     1       1.289   2.560  19.183  0.00  0.00    +0.000 A 
ATOM     23  C   UNL     1       0.598   2.824  20.364  0.00  0.00    +0.000 A 
ATOM     24  C   UNL     1       1.296   2.946  21.564  0.00  0.00    +0.000 A 
ATOM     25  C   UNL     1       2.681   2.792  21.586  0.00  0.00    +0.000 A 
ATOM     26  C   UNL     1       3.372   2.527  20.405  0.00  0.00    +0.000 A 
ENDBRANCH  20  21
ENDBRANCH  19  20
ENDBRANCH  16  19
ENDBRANCH   1  14
BRANCH   5  27
ATOM     27  C   UNL     1      -0.700  11.242  21.082  0.00  0.00    +0.000 C 
ATOM     28  C   UNL     1      -1.548  12.280  21.184  0.00  0.00    +0.000 C 
BRANCH  28  29
ATOM     29  C   UNL     1      -2.093  12.814  22.437  0.00  0.00    +0.000 A 
ATOM     30  C   UNL     1      -1.414  13.872  23.055  0.00  0.00    +0.000 A 
ATOM     31  C   UNL     1      -1.876  14.414  24.255  0.00  0.00    +0.000 A 
ATOM     32  C   UNL     1      -3.034  13.912  24.844  0.00  0.00    +0.000 A 
ATOM     33  C   UNL     1      -3.735  12.877  24.226  0.00  0.00    +0.000 A 
ATOM     34  C   UNL     1      -3.272  12.335  23.024  0.00  0.00    +0.000 A 
ENDBRANCH  28  29
ENDBRANCH   5  27
TORSDOF 7
ENDMDL
MODEL 8
REMARK VINA RESULT:      -9.3      1.551      3.529
REMARK  Name = 
REMARK  7 active torsions:
REMARK  status: ('A' for Active; 'I' for Inactive)
REMARK    1  A    between atoms: O_1  and  C_2
REMARK    2  A    between atoms: C_5  and  C_6
REMARK    3  A    between atoms: C_10  and  C_11
REMARK    4  A    between atoms: C_12  and  C_13
REMARK    5  A    between atoms: C_24  and  O_25
REMARK    6  A    between atoms: O_25  and  C_26
REMARK    7  A    between atoms: C_26  and  C_27
REMARK                            x       y       z     vdW  Elec       q    Type
REMARK                         _______ _______ _______ _____ _____    ______ ____
ROOT
ATOM      1  C   UNL     1       2.045   7.354  19.529  0.00  0.00    +0.000 A 
ATOM      2  C   UNL     1       1.529   7.663  20.805  0.00  0.00    +0.000 A 
ATOM      3  C   UNL     1       1.010   8.927  21.122  0.00  0.00    +0.000 A 
ATOM      4  C   UNL     1       0.977   9.911  20.121  0.00  0.00    +0.000 A 
ATOM      5  C   UNL     1       0.554  11.270  20.015  0.00  0.00    +0.000 A 
ATOM      6  N   UNL     1       0.750  11.747  18.779  0.00  0.00    +0.000 NA
ATOM      7  N   UNL     1       1.300  10.724  18.114  0.00  0.00    +0.000 N 
ATOM      8  C   UNL     1       1.464   9.592  18.861  0.00  0.00    +0.000 A 
ATOM      9  C   UNL     1       2.006   8.346  18.533  0.00  0.00    +0.000 A 
ATOM     10  H   UNL     1       1.548  10.861  17.143  0.00  0.00    +0.000 HD
ENDROOT
BRANCH   1  14
ATOM     11  C   UNL     1       3.837   3.544  18.657  0.00  0.00    +0.000 A 
ATOM     12  C   UNL     1       3.257   3.757  19.907  0.00  0.00    +0.000 A 
ATOM     13  C   UNL     1       2.688   5.000  20.206  0.00  0.00    +0.000 A 
ATOM     14  C   UNL     1       2.649   6.031  19.254  0.00  0.00    +0.000 A 
ATOM     15  C   UNL     1       3.204   5.765  17.992  0.00  0.00    +0.000 A 
ATOM     16  C   UNL     1       3.846   4.559  17.701  0.00  0.00    +0.000 A 
BRANCH  11  17
ATOM     17  O   UNL     1       4.417   2.339  18.369  0.00  0.00    +0.000 OA
ATOM     18  H   UNL     1       4.167   1.697  19.051  0.00  0.00    +0.000 HD
ENDBRANCH  11  17
BRANCH  16  19
ATOM     19  O   UNL     1       4.483   4.327  16.509  0.00  0.00    +0.000 OA
BRANCH  19  20
ATOM     20  C   UNL     1       5.886   4.064  16.627  0.00  0.00    +0.000 C 
BRANCH  20  21
ATOM     21  C   UNL     1       6.616   5.203  17.291  0.00  0.00    +0.000 A 
ATOM     22  C   UNL     1       7.319   4.972  18.485  0.00  0.00    +0.000 A 
ATOM     23  C   UNL     1       8.036   6.000  19.094  0.00  0.00    +0.000 A 
ATOM     24  C   UNL     1       8.069   7.265  18.509  0.00  0.00    +0.000 A 
ATOM     25  C   UNL     1       7.397   7.498  17.310  0.00  0.00    +0.000 A 
ATOM     26  C   UNL     1       6.681   6.469  16.700  0.00  0.00    +0.000 A 
ENDBRANCH  20  21
ENDBRANCH  19  20
ENDBRANCH  16  19
ENDBRANCH   1  14
BRANCH   5  27
ATOM     27  C   UNL     1       0.017  12.047  21.094  0.00  0.00    +0.000 C 
ATOM     28  C   UNL     1      -1.188  11.826  21.646  0.00  0.00    +0.000 C 
BRANCH  28  29
ATOM     29  C   UNL     1      -1.807  12.643  22.697  0.00  0.00    +0.000 A 
ATOM     30  C   UNL     1      -3.048  12.236  23.205  0.00  0.00    +0.000 A 
ATOM     31  C   UNL     1      -3.691  12.978  24.196  0.00  0.00    +0.000 A 
ATOM     32  C   UNL     1      -3.093  14.130  24.701  0.00  0.00    +0.000 A 
ATOM     33  C   UNL     1      -1.846  14.531  24.224  0.00  0.00    +0.000 A 
ATOM     34  C   UNL     1      -1.201  13.788  23.232  0.00  0.00    +0.000 A 
ENDBRANCH  28  29
ENDBRANCH   5  27
TORSDOF 7
ENDMDL
MODEL 9
REMARK VINA RESULT:      -9.3      1.227      3.438
REMARK  Name = 
REMARK  7 active torsions:
REMARK  status: ('A' for Active; 'I' for Inactive)
REMARK    1  A    between atoms: O_1  and  C_2
REMARK    2  A    between atoms: C_5  and  C_6
REMARK    3  A    between atoms: C_10  and  C_11
REMARK    4  A    between atoms: C_12  and  C_13
REMARK    5  A    between atoms: C_24  and  O_25
REMARK    6  A    between atoms: O_25  and  C_26
REMARK    7  A    between atoms: C_26  and  C_27
REMARK                            x       y       z     vdW  Elec       q    Type
REMARK                         _______ _______ _______ _____ _____    ______ ____
ROOT
ATOM      1  C   UNL     1       2.018   7.219  19.840  0.00  0.00    +0.000 A 
ATOM      2  C   UNL     1       1.420   7.638  21.047  0.00  0.00    +0.000 A 
ATOM      3  C   UNL     1       0.870   8.917  21.212  0.00  0.00    +0.000 A 
ATOM      4  C   UNL     1       0.889   9.803  20.122  0.00  0.00    +0.000 A 
ATOM      5  C   UNL     1       0.459  11.139  19.863  0.00  0.00    +0.000 A 
ATOM      6  N   UNL     1       0.727  11.501  18.602  0.00  0.00    +0.000 NA
ATOM      7  N   UNL     1       1.327  10.430  18.072  0.00  0.00    +0.000 N 
ATOM      8  C   UNL     1       1.456   9.375  18.930  0.00  0.00    +0.000 A 
ATOM      9  C   UNL     1       2.030   8.113  18.755  0.00  0.00    +0.000 A 
ATOM     10  H   UNL     1       1.634  10.480  17.108  0.00  0.00    +0.000 HD
ENDROOT
BRANCH   1  14
ATOM     11  C   UNL     1       3.935   3.383  19.526  0.00  0.00    +0.000 A 
ATOM     12  C   UNL     1       2.551   3.446  19.679  0.00  0.00    +0.000 A 
ATOM     13  C   UNL     1       1.921   4.689  19.802  0.00  0.00    +0.000 A 
ATOM     14  C   UNL     1       2.650   5.886  19.727  0.00  0.00    +0.000 A 
ATOM     15  C   UNL     1       4.036   5.785  19.529  0.00  0.00    +0.000 A 
ATOM     16  C   UNL     1       4.694   4.553  19.485  0.00  0.00    +0.000 A 
BRANCH  11  17
ATOM     17  O   UNL     1       4.559   2.170  19.432  0.00  0.00    +0.000 OA
ATOM     18  H   UNL     1       4.647   1.931  18.497  0.00  0.00    +0.000 HD
ENDBRANCH  11  17
BRANCH  16  19
ATOM     19  O   UNL     1       6.058   4.444  19.395  0.00  0.00    +0.000 OA
BRANCH  19  20
ATOM     20  C   UNL     1       6.683   5.449  18.588  0.00  0.00    +0.000 C 
BRANCH  20  21
ATOM     21  C   UNL     1       6.369   5.268  17.126  0.00  0.00    +0.000 A 
ATOM     22  C   UNL     1       5.542   6.198  16.475  0.00  0.00    +0.000 A 
ATOM     23  C   UNL     1       5.273   6.074  15.113  0.00  0.00    +0.000 A 
ATOM     24  C   UNL     1       5.840   5.029  14.385  0.00  0.00    +0.000 A 
ATOM     25  C   UNL     1       6.685   4.117  15.015  0.00  0.00    +0.000 A 
ATOM     26  C   UNL     1       6.955   4.241  16.377  0.00  0.00    +0.000 A 
ENDBRANCH  20  21
ENDBRANCH  19  20
ENDBRANCH  16  19
ENDBRANCH   1  14
BRANCH   5  27
ATOM     27  C   UNL     1      -0.151  12.005  20.830  0.00  0.00    +0.000 C 
ATOM     28  C   UNL     1      -1.016  11.584  21.769  0.00  0.00    +0.000 C 
BRANCH  28  29
ATOM     29  C   UNL     1      -1.721  12.445  22.725  0.00  0.00    +0.000 A 
ATOM     30  C   UNL     1      -1.086  13.621  23.147  0.00  0.00    +0.000 A 
ATOM     31  C   UNL     1      -1.700  14.475  24.064  0.00  0.00    +0.000 A 
ATOM     32  C   UNL     1      -2.965  14.168  24.560  0.00  0.00    +0.000 A 
ATOM     33  C   UNL     1      -3.620  13.015  24.129  0.00  0.00    +0.000 A 
ATOM     34  C   UNL     1      -3.005  12.161  23.210  0.00  0.00    +0.000 A 
ENDBRANCH  28  29
ENDBRANCH   5  27
TORSDOF 7
ENDMDL
