MODEL 1
REMARK VINA RESULT:      -7.8      0.000      0.000
REMARK  Name = 
REMARK  7 active torsions:
REMARK  status: ('A' for Active; 'I' for Inactive)
REMARK    1  A    between atoms: C_2  and  C_3
REMARK    2  A    between atoms: C_3  and  C_4
REMARK    3  A    between atoms: C_4  and  C_5
REMARK    4  A    between atoms: C_7  and  O_8
REMARK    5  A    between atoms: C_15  and  C_16
REMARK    6  A    between atoms: C_16  and  O_17
REMARK    7  A    between atoms: O_17  and  C_18
REMARK                            x       y       z     vdW  Elec       q    Type
REMARK                         _______ _______ _______ _____ _____    ______ ____
ROOT
ATOM      1  O   UNL     1       5.077   6.627  15.207  0.00  0.00    +0.000 OA
ATOM      2  C   UNL     1       5.582   5.728  15.883  0.00  0.00    +0.000 C 
ATOM      3  N   UNL     1       6.788   5.899  16.549  0.00  0.00    +0.000 N 
ATOM      4  C   UNL     1       7.468   4.893  17.363  0.00  0.00    +0.000 C 
ATOM      5  C   UNL     1       7.601   5.378  18.804  0.00  0.00    +0.000 C 
ATOM      6  C   UNL     1       8.264   6.756  18.870  0.00  0.00    +0.000 C 
ATOM      7  C   UNL     1       7.553   7.766  17.951  0.00  0.00    +0.000 C 
ATOM      8  C   UNL     1       7.435   7.207  16.527  0.00  0.00    +0.000 C 
ENDROOT
BRANCH   2   9
ATOM      9  C   UNL     1       4.889   4.388  16.035  0.00  0.00    +0.000 C 
BRANCH   9  10
ATOM     10  C   UNL     1       3.805   4.454  17.110  0.00  0.00    +0.000 C 
BRANCH  10  11
ATOM     11  C   UNL     1       4.037   3.472  18.197  0.00  0.00    +0.000 A 
ATOM     12  C   UNL     1       4.581   3.560  19.457  0.00  0.00    +0.000 A 
ATOM     13  C   UNL     1       4.492   2.250  19.936  0.00  0.00    +0.000 A 
ATOM     14  N   UNL     1       3.935   1.407  19.074  0.00  0.00    +0.000 NA
ATOM     15  O   UNL     1       3.633   2.189  17.964  0.00  0.00    +0.000 OA
BRANCH  13  16
ATOM     16  O   UNL     1       4.893   1.755  21.111  0.00  0.00    +0.000 OA
ATOM     17  H   UNL     1       4.120   1.567  21.665  0.00  0.00    +0.000 HD
ENDBRANCH  13  16
ENDBRANCH  10  11
ENDBRANCH   9  10
ENDBRANCH   2   9
BRANCH   7  18
ATOM     18  C   UNL     1       8.279   9.114  17.922  0.00  0.00    +0.000 C 
BRANCH  18  19
ATOM     19  O   UNL     1       8.892   9.347  19.191  0.00  0.00    +0.000 OA
BRANCH  19  20
ATOM     20  C   UNL     1       9.520  10.552  19.351  0.00  0.00    +0.000 A 
ATOM     21  C   UNL     1      10.121  11.297  18.333  0.00  0.00    +0.000 A 
ATOM     22  C   UNL     1      10.727  12.524  18.625  0.00  0.00    +0.000 A 
ATOM     23  C   UNL     1      10.730  12.995  19.931  0.00  0.00    +0.000 A 
ATOM     24  F   UNL     1      11.310  14.170  20.204  0.00  0.00    +0.000 F 
ATOM     25  C   UNL     1      10.141  12.264  20.954  0.00  0.00    +0.000 A 
ATOM     26  C   UNL     1       9.538  11.040  20.663  0.00  0.00    +0.000 A 
ENDBRANCH  19  20
ENDBRANCH  18  19
ENDBRANCH   7  18
TORSDOF 7
ENDMDL
MODEL 2
REMARK VINA RESULT:      -7.6      5.359      7.418
REMARK  Name = 
REMARK  7 active torsions:
REMARK  status: ('A' for Active; 'I' for Inactive)
REMARK    1  A    between atoms: C_2  and  C_3
REMARK    2  A    between atoms: C_3  and  C_4
REMARK    3  A    between atoms: C_4  and  C_5
REMARK    4  A    between atoms: C_7  and  O_8
REMARK    5  A    between atoms: C_15  and  C_16
REMARK    6  A    between atoms: C_16  and  O_17
REMARK    7  A    between atoms: O_17  and  C_18
REMARK                            x       y       z     vdW  Elec       q    Type
REMARK                         _______ _______ _______ _____ _____    ______ ____
ROOT
ATOM      1  O   UNL     1       6.742   6.272  18.193  0.00  0.00    +0.000 OA
ATOM      2  C   UNL     1       6.193   5.250  17.776  0.00  0.00    +0.000 C 
ATOM      3  N   UNL     1       5.001   4.785  18.312  0.00  0.00    +0.000 N 
ATOM      4  C   UNL     1       4.282   3.583  17.892  0.00  0.00    +0.000 C 
ATOM      5  C   UNL     1       2.895   3.950  17.370  0.00  0.00    +0.000 C 
ATOM      6  C   UNL     1       2.120   4.791  18.387  0.00  0.00    +0.000 C 
ATOM      7  C   UNL     1       2.939   6.011  18.848  0.00  0.00    +0.000 C 
ATOM      8  C   UNL     1       4.325   5.574  19.338  0.00  0.00    +0.000 C 
ENDROOT
BRANCH   2   9
ATOM      9  C   UNL     1       6.793   4.459  16.629  0.00  0.00    +0.000 C 
BRANCH   9  10
ATOM     10  C   UNL     1       6.935   5.330  15.381  0.00  0.00    +0.000 C 
BRANCH  10  11
ATOM     11  C   UNL     1       6.616   4.582  14.141  0.00  0.00    +0.000 A 
ATOM     12  C   UNL     1       5.609   3.716  13.786  0.00  0.00    +0.000 A 
ATOM     13  C   UNL     1       5.926   3.381  12.466  0.00  0.00    +0.000 A 
ATOM     14  N   UNL     1       7.021   3.984  12.015  0.00  0.00    +0.000 NA
ATOM     15  O   UNL     1       7.458   4.761  13.082  0.00  0.00    +0.000 OA
BRANCH  13  16
ATOM     16  O   UNL     1       5.290   2.552  11.632  0.00  0.00    +0.000 OA
ATOM     17  H   UNL     1       4.337   2.730  11.660  0.00  0.00    +0.000 HD
ENDBRANCH  13  16
ENDBRANCH  10  11
ENDBRANCH   9  10
ENDBRANCH   2   9
BRANCH   7  18
ATOM     18  C   UNL     1       2.219   6.793  19.949  0.00  0.00    +0.000 C 
BRANCH  18  19
ATOM     19  O   UNL     1       1.852   8.081  19.452  0.00  0.00    +0.000 OA
BRANCH  19  20
ATOM     20  C   UNL     1       1.110   8.867  20.290  0.00  0.00    +0.000 A 
ATOM     21  C   UNL     1       0.267   9.910  19.893  0.00  0.00    +0.000 A 
ATOM     22  C   UNL     1      -0.446  10.638  20.850  0.00  0.00    +0.000 A 
ATOM     23  C   UNL     1      -0.311  10.323  22.195  0.00  0.00    +0.000 A 
ATOM     24  F   UNL     1      -0.998  11.023  23.107  0.00  0.00    +0.000 F 
ATOM     25  C   UNL     1       0.526   9.294  22.605  0.00  0.00    +0.000 A 
ATOM     26  C   UNL     1       1.239   8.568  21.652  0.00  0.00    +0.000 A 
ENDBRANCH  19  20
ENDBRANCH  18  19
ENDBRANCH   7  18
TORSDOF 7
ENDMDL
MODEL 3
REMARK VINA RESULT:      -7.6      5.710      7.524
REMARK  Name = 
REMARK  7 active torsions:
REMARK  status: ('A' for Active; 'I' for Inactive)
REMARK    1  A    between atoms: C_2  and  C_3
REMARK    2  A    between atoms: C_3  and  C_4
REMARK    3  A    between atoms: C_4  and  C_5
REMARK    4  A    between atoms: C_7  and  O_8
REMARK    5  A    between atoms: C_15  and  C_16
REMARK    6  A    between atoms: C_16  and  O_17
REMARK    7  A    between atoms: O_17  and  C_18
REMARK                            x       y       z     vdW  Elec       q    Type
REMARK                         _______ _______ _______ _____ _____    ______ ____
ROOT
ATOM      1  O   UNL     1       2.464   7.810  19.360  0.00  0.00    +0.000 OA
ATOM      2  C   UNL     1       1.818   7.028  20.060  0.00  0.00    +0.000 C 
ATOM      3  N   UNL     1       1.881   5.653  19.876  0.00  0.00    +0.000 N 
ATOM      4  C   UNL     1       1.147   4.650  20.646  0.00  0.00    +0.000 C 
ATOM      5  C   UNL     1       2.120   3.723  21.369  0.00  0.00    +0.000 C 
ATOM      6  C   UNL     1       3.137   3.113  20.401  0.00  0.00    +0.000 C 
ATOM      7  C   UNL     1       3.839   4.201  19.567  0.00  0.00    +0.000 C 
ATOM      8  C   UNL     1       2.806   5.109  18.887  0.00  0.00    +0.000 C 
ENDROOT
BRANCH   2   9
ATOM      9  C   UNL     1       0.933   7.537  21.181  0.00  0.00    +0.000 C 
BRANCH   9  10
ATOM     10  C   UNL     1       1.558   8.756  21.859  0.00  0.00    +0.000 C 
BRANCH  10  11
ATOM     11  C   UNL     1       0.542   9.766  22.237  0.00  0.00    +0.000 A 
ATOM     12  C   UNL     1      -0.635   9.712  22.948  0.00  0.00    +0.000 A 
ATOM     13  C   UNL     1      -1.089  11.033  22.917  0.00  0.00    +0.000 A 
ATOM     14  N   UNL     1      -0.278  11.857  22.262  0.00  0.00    +0.000 NA
ATOM     15  O   UNL     1       0.771  11.050  21.835  0.00  0.00    +0.000 OA
BRANCH  13  16
ATOM     16  O   UNL     1      -2.205  11.551  23.440  0.00  0.00    +0.000 OA
ATOM     17  H   UNL     1      -1.974  12.193  24.128  0.00  0.00    +0.000 HD
ENDBRANCH  13  16
ENDBRANCH  10  11
ENDBRANCH   9  10
ENDBRANCH   2   9
BRANCH   7  18
ATOM     18  C   UNL     1       4.772   3.594  18.517  0.00  0.00    +0.000 C 
BRANCH  18  19
ATOM     19  O   UNL     1       6.124   3.929  18.834  0.00  0.00    +0.000 OA
BRANCH  19  20
ATOM     20  C   UNL     1       6.567   5.146  18.397  0.00  0.00    +0.000 A 
ATOM     21  C   UNL     1       6.045   5.862  17.315  0.00  0.00    +0.000 A 
ATOM     22  C   UNL     1       6.584   7.105  16.970  0.00  0.00    +0.000 A 
ATOM     23  C   UNL     1       7.642   7.623  17.705  0.00  0.00    +0.000 A 
ATOM     24  F   UNL     1       8.154   8.814  17.370  0.00  0.00    +0.000 F 
ATOM     25  C   UNL     1       8.176   6.922  18.778  0.00  0.00    +0.000 A 
ATOM     26  C   UNL     1       7.639   5.682  19.122  0.00  0.00    +0.000 A 
ENDBRANCH  19  20
ENDBRANCH  18  19
ENDBRANCH   7  18
TORSDOF 7
ENDMDL
MODEL 4
REMARK VINA RESULT:      -7.4      5.601      7.509
REMARK  Name = 
REMARK  7 active torsions:
REMARK  status: ('A' for Active; 'I' for Inactive)
REMARK    1  A    between atoms: C_2  and  C_3
REMARK    2  A    between atoms: C_3  and  C_4
REMARK    3  A    between atoms: C_4  and  C_5
REMARK    4  A    between atoms: C_7  and  O_8
REMARK    5  A    between atoms: C_15  and  C_16
REMARK    6  A    between atoms: C_16  and  O_17
REMARK    7  A    between atoms: O_17  and  C_18
REMARK                            x       y       z     vdW  Elec       q    Type
REMARK                         _______ _______ _______ _____ _____    ______ ____
ROOT
ATOM      1  O   UNL     1       6.053   5.224  20.019  0.00  0.00    +0.000 OA
ATOM      2  C   UNL     1       5.830   5.649  18.884  0.00  0.00    +0.000 C 
ATOM      3  N   UNL     1       4.544   5.936  18.446  0.00  0.00    +0.000 N 
ATOM      4  C   UNL     1       4.180   6.433  17.120  0.00  0.00    +0.000 C 
ATOM      5  C   UNL     1       3.511   7.800  17.233  0.00  0.00    +0.000 C 
ATOM      6  C   UNL     1       2.332   7.767  18.209  0.00  0.00    +0.000 C 
ATOM      7  C   UNL     1       2.747   7.180  19.570  0.00  0.00    +0.000 C 
ATOM      8  C   UNL     1       3.430   5.819  19.383  0.00  0.00    +0.000 C 
ENDROOT
BRANCH   2   9
ATOM      9  C   UNL     1       6.966   5.902  17.911  0.00  0.00    +0.000 C 
BRANCH   9  10
ATOM     10  C   UNL     1       7.444   4.595  17.280  0.00  0.00    +0.000 C 
BRANCH  10  11
ATOM     11  C   UNL     1       7.066   4.496  15.850  0.00  0.00    +0.000 A 
ATOM     12  C   UNL     1       6.194   3.695  15.151  0.00  0.00    +0.000 A 
ATOM     13  C   UNL     1       6.340   4.137  13.833  0.00  0.00    +0.000 A 
ATOM     14  N   UNL     1       7.209   5.133  13.701  0.00  0.00    +0.000 NA
ATOM     15  O   UNL     1       7.668   5.371  14.992  0.00  0.00    +0.000 OA
BRANCH  13  16
ATOM     16  O   UNL     1       5.739   3.692  12.725  0.00  0.00    +0.000 OA
ATOM     17  H   UNL     1       4.787   3.603  12.885  0.00  0.00    +0.000 HD
ENDBRANCH  13  16
ENDBRANCH  10  11
ENDBRANCH   9  10
ENDBRANCH   2   9
BRANCH   7  18
ATOM     18  C   UNL     1       1.549   7.036  20.512  0.00  0.00    +0.000 C 
BRANCH  18  19
ATOM     19  O   UNL     1       1.685   7.960  21.594  0.00  0.00    +0.000 OA
BRANCH  19  20
ATOM     20  C   UNL     1       0.831   9.028  21.592  0.00  0.00    +0.000 A 
ATOM     21  C   UNL     1       0.591   9.875  20.506  0.00  0.00    +0.000 A 
ATOM     22  C   UNL     1      -0.315  10.934  20.629  0.00  0.00    +0.000 A 
ATOM     23  C   UNL     1      -0.972  11.139  21.835  0.00  0.00    +0.000 A 
ATOM     24  F   UNL     1      -1.839  12.153  21.946  0.00  0.00    +0.000 F 
ATOM     25  C   UNL     1      -0.740  10.309  22.924  0.00  0.00    +0.000 A 
ATOM     26  C   UNL     1       0.164   9.254  22.802  0.00  0.00    +0.000 A 
ENDBRANCH  19  20
ENDBRANCH  18  19
ENDBRANCH   7  18
TORSDOF 7
ENDMDL
MODEL 5
REMARK VINA RESULT:      -7.4      1.705      2.115
REMARK  Name = 
REMARK  7 active torsions:
REMARK  status: ('A' for Active; 'I' for Inactive)
REMARK    1  A    between atoms: C_2  and  C_3
REMARK    2  A    between atoms: C_3  and  C_4
REMARK    3  A    between atoms: C_4  and  C_5
REMARK    4  A    between atoms: C_7  and  O_8
REMARK    5  A    between atoms: C_15  and  C_16
REMARK    6  A    between atoms: C_16  and  O_17
REMARK    7  A    between atoms: O_17  and  C_18
REMARK                            x       y       z     vdW  Elec       q    Type
REMARK                         _______ _______ _______ _____ _____    ______ ____
ROOT
ATOM      1  O   UNL     1       5.391   5.975  15.096  0.00  0.00    +0.000 OA
ATOM      2  C   UNL     1       5.872   5.221  15.943  0.00  0.00    +0.000 C 
ATOM      3  N   UNL     1       6.993   5.568  16.684  0.00  0.00    +0.000 N 
ATOM      4  C   UNL     1       7.640   4.739  17.700  0.00  0.00    +0.000 C 
ATOM      5  C   UNL     1       7.599   5.436  19.057  0.00  0.00    +0.000 C 
ATOM      6  C   UNL     1       8.176   6.851  18.977  0.00  0.00    +0.000 C 
ATOM      7  C   UNL     1       7.509   7.667  17.855  0.00  0.00    +0.000 C 
ATOM      8  C   UNL     1       7.566   6.901  16.526  0.00  0.00    +0.000 C 
ENDROOT
BRANCH   2   9
ATOM      9  C   UNL     1       5.242   3.872  16.230  0.00  0.00    +0.000 C 
BRANCH   9  10
ATOM     10  C   UNL     1       3.745   4.017  16.505  0.00  0.00    +0.000 C 
BRANCH  10  11
ATOM     11  C   UNL     1       3.478   4.768  17.755  0.00  0.00    +0.000 A 
ATOM     12  C   UNL     1       2.982   6.022  18.022  0.00  0.00    +0.000 A 
ATOM     13  C   UNL     1       3.002   6.083  19.419  0.00  0.00    +0.000 A 
ATOM     14  N   UNL     1       3.453   4.972  19.991  0.00  0.00    +0.000 NA
ATOM     15  O   UNL     1       3.749   4.126  18.929  0.00  0.00    +0.000 OA
BRANCH  13  16
ATOM     16  O   UNL     1       2.642   7.089  20.222  0.00  0.00    +0.000 OA
ATOM     17  H   UNL     1       2.042   7.685  19.748  0.00  0.00    +0.000 HD
ENDBRANCH  13  16
ENDBRANCH  10  11
ENDBRANCH   9  10
ENDBRANCH   2   9
BRANCH   7  18
ATOM     18  C   UNL     1       8.159   9.043  17.692  0.00  0.00    +0.000 C 
BRANCH  18  19
ATOM     19  O   UNL     1       8.721   9.451  18.940  0.00  0.00    +0.000 OA
BRANCH  19  20
ATOM     20  C   UNL     1       9.369  10.655  18.951  0.00  0.00    +0.000 A 
ATOM     21  C   UNL     1      10.337  11.050  19.879  0.00  0.00    +0.000 A 
ATOM     22  C   UNL     1      10.933  12.311  19.778  0.00  0.00    +0.000 A 
ATOM     23  C   UNL     1      10.557  13.169  18.753  0.00  0.00    +0.000 A 
ATOM     24  F   UNL     1      11.132  14.374  18.660  0.00  0.00    +0.000 F 
ATOM     25  C   UNL     1       9.593  12.793  17.827  0.00  0.00    +0.000 A 
ATOM     26  C   UNL     1       8.997  11.536  17.928  0.00  0.00    +0.000 A 
ENDBRANCH  19  20
ENDBRANCH  18  19
ENDBRANCH   7  18
TORSDOF 7
ENDMDL
MODEL 6
REMARK VINA RESULT:      -7.4      2.117      2.708
REMARK  Name = 
REMARK  7 active torsions:
REMARK  status: ('A' for Active; 'I' for Inactive)
REMARK    1  A    between atoms: C_2  and  C_3
REMARK    2  A    between atoms: C_3  and  C_4
REMARK    3  A    between atoms: C_4  and  C_5
REMARK    4  A    between atoms: C_7  and  O_8
REMARK    5  A    between atoms: C_15  and  C_16
REMARK    6  A    between atoms: C_16  and  O_17
REMARK    7  A    between atoms: O_17  and  C_18
REMARK                            x       y       z     vdW  Elec       q    Type
REMARK                         _______ _______ _______ _____ _____    ______ ____
ROOT
ATOM      1  O   UNL     1       3.231   6.180  18.995  0.00  0.00    +0.000 OA
ATOM      2  C   UNL     1       3.458   5.511  17.986  0.00  0.00    +0.000 C 
ATOM      3  N   UNL     1       4.564   5.746  17.181  0.00  0.00    +0.000 N 
ATOM      4  C   UNL     1       4.911   5.014  15.964  0.00  0.00    +0.000 C 
ATOM      5  C   UNL     1       6.263   4.325  16.127  0.00  0.00    +0.000 C 
ATOM      6  C   UNL     1       7.346   5.315  16.565  0.00  0.00    +0.000 C 
ATOM      7  C   UNL     1       6.913   6.106  17.812  0.00  0.00    +0.000 C 
ATOM      8  C   UNL     1       5.539   6.753  17.588  0.00  0.00    +0.000 C 
ENDROOT
BRANCH   2   9
ATOM      9  C   UNL     1       2.539   4.373  17.585  0.00  0.00    +0.000 C 
BRANCH   9  10
ATOM     10  C   UNL     1       3.028   3.047  18.166  0.00  0.00    +0.000 C 
BRANCH  10  11
ATOM     11  C   UNL     1       2.573   2.848  19.562  0.00  0.00    +0.000 A 
ATOM     12  C   UNL     1       1.335   2.753  20.154  0.00  0.00    +0.000 A 
ATOM     13  C   UNL     1       1.640   2.574  21.507  0.00  0.00    +0.000 A 
ATOM     14  N   UNL     1       2.944   2.543  21.756  0.00  0.00    +0.000 NA
ATOM     15  O   UNL     1       3.543   2.709  20.512  0.00  0.00    +0.000 OA
BRANCH  13  16
ATOM     16  O   UNL     1       0.810   2.442  22.546  0.00  0.00    +0.000 OA
ATOM     17  H   UNL     1      -0.058   2.144  22.233  0.00  0.00    +0.000 HD
ENDBRANCH  13  16
ENDBRANCH  10  11
ENDBRANCH   9  10
ENDBRANCH   2   9
BRANCH   7  18
ATOM     18  C   UNL     1       7.939   7.178  18.188  0.00  0.00    +0.000 C 
BRANCH  18  19
ATOM     19  O   UNL     1       7.656   8.377  17.465  0.00  0.00    +0.000 OA
BRANCH  19  20
ATOM     20  C   UNL     1       8.231   9.523  17.939  0.00  0.00    +0.000 A 
ATOM     21  C   UNL     1       8.115  10.791  17.361  0.00  0.00    +0.000 A 
ATOM     22  C   UNL     1       8.750  11.891  17.948  0.00  0.00    +0.000 A 
ATOM     23  C   UNL     1       9.495  11.716  19.106  0.00  0.00    +0.000 A 
ATOM     24  F   UNL     1      10.098  12.773  19.665  0.00  0.00    +0.000 F 
ATOM     25  C   UNL     1       9.623  10.462  19.690  0.00  0.00    +0.000 A 
ATOM     26  C   UNL     1       8.993   9.365  19.104  0.00  0.00    +0.000 A 
ENDBRANCH  19  20
ENDBRANCH  18  19
ENDBRANCH   7  18
TORSDOF 7
ENDMDL
MODEL 7
REMARK VINA RESULT:      -7.3      3.929      8.915
REMARK  Name = 
REMARK  7 active torsions:
REMARK  status: ('A' for Active; 'I' for Inactive)
REMARK    1  A    between atoms: C_2  and  C_3
REMARK    2  A    between atoms: C_3  and  C_4
REMARK    3  A    between atoms: C_4  and  C_5
REMARK    4  A    between atoms: C_7  and  O_8
REMARK    5  A    between atoms: C_15  and  C_16
REMARK    6  A    between atoms: C_16  and  O_17
REMARK    7  A    between atoms: O_17  and  C_18
REMARK                            x       y       z     vdW  Elec       q    Type
REMARK                         _______ _______ _______ _____ _____    ______ ____
ROOT
ATOM      1  O   UNL     1       6.620   5.550  19.793  0.00  0.00    +0.000 OA
ATOM      2  C   UNL     1       7.158   5.725  18.699  0.00  0.00    +0.000 C 
ATOM      3  N   UNL     1       6.806   4.984  17.580  0.00  0.00    +0.000 N 
ATOM      4  C   UNL     1       7.392   5.113  16.246  0.00  0.00    +0.000 C 
ATOM      5  C   UNL     1       6.325   5.524  15.236  0.00  0.00    +0.000 C 
ATOM      6  C   UNL     1       5.122   4.578  15.277  0.00  0.00    +0.000 C 
ATOM      7  C   UNL     1       4.577   4.425  16.708  0.00  0.00    +0.000 C 
ATOM      8  C   UNL     1       5.703   4.033  17.674  0.00  0.00    +0.000 C 
ENDROOT
BRANCH   2   9
ATOM      9  C   UNL     1       8.228   6.786  18.520  0.00  0.00    +0.000 C 
BRANCH   9  10
ATOM     10  C   UNL     1       7.668   8.008  17.793  0.00  0.00    +0.000 C 
BRANCH  10  11
ATOM     11  C   UNL     1       8.340   9.261  18.210  0.00  0.00    +0.000 A 
ATOM     12  C   UNL     1       9.189   9.587  19.241  0.00  0.00    +0.000 A 
ATOM     13  C   UNL     1       9.432  10.948  19.037  0.00  0.00    +0.000 A 
ATOM     14  N   UNL     1       8.812  11.444  17.973  0.00  0.00    +0.000 NA
ATOM     15  O   UNL     1       8.120  10.364  17.436  0.00  0.00    +0.000 OA
BRANCH  13  16
ATOM     16  O   UNL     1      10.181  11.786  19.762  0.00  0.00    +0.000 OA
ATOM     17  H   UNL     1       9.794  12.674  19.735  0.00  0.00    +0.000 HD
ENDBRANCH  13  16
ENDBRANCH  10  11
ENDBRANCH   9  10
ENDBRANCH   2   9
BRANCH   7  18
ATOM     18  C   UNL     1       3.449   3.393  16.777  0.00  0.00    +0.000 C 
BRANCH  18  19
ATOM     19  O   UNL     1       2.268   4.016  17.285  0.00  0.00    +0.000 OA
BRANCH  19  20
ATOM     20  C   UNL     1       1.956   3.753  18.590  0.00  0.00    +0.000 A 
ATOM     21  C   UNL     1       1.817   4.708  19.602  0.00  0.00    +0.000 A 
ATOM     22  C   UNL     1       1.487   4.310  20.902  0.00  0.00    +0.000 A 
ATOM     23  C   UNL     1       1.300   2.963  21.182  0.00  0.00    +0.000 A 
ATOM     24  F   UNL     1       0.982   2.588  22.427  0.00  0.00    +0.000 F 
ATOM     25  C   UNL     1       1.439   2.003  20.189  0.00  0.00    +0.000 A 
ATOM     26  C   UNL     1       1.769   2.398  18.893  0.00  0.00    +0.000 A 
ENDBRANCH  19  20
ENDBRANCH  18  19
ENDBRANCH   7  18
TORSDOF 7
ENDMDL
MODEL 8
REMARK VINA RESULT:      -7.3      3.865      8.994
REMARK  Name = 
REMARK  7 active torsions:
REMARK  status: ('A' for Active; 'I' for Inactive)
REMARK    1  A    between atoms: C_2  and  C_3
REMARK    2  A    between atoms: C_3  and  C_4
REMARK    3  A    between atoms: C_4  and  C_5
REMARK    4  A    between atoms: C_7  and  O_8
REMARK    5  A    between atoms: C_15  and  C_16
REMARK    6  A    between atoms: C_16  and  O_17
REMARK    7  A    between atoms: O_17  and  C_18
REMARK                            x       y       z     vdW  Elec       q    Type
REMARK                         _______ _______ _______ _____ _____    ______ ____
ROOT
ATOM      1  O   UNL     1       6.742   5.509  19.812  0.00  0.00    +0.000 OA
ATOM      2  C   UNL     1       7.208   5.754  18.697  0.00  0.00    +0.000 C 
ATOM      3  N   UNL     1       6.806   5.060  17.565  0.00  0.00    +0.000 N 
ATOM      4  C   UNL     1       7.306   5.271  16.207  0.00  0.00    +0.000 C 
ATOM      5  C   UNL     1       6.169   5.702  15.285  0.00  0.00    +0.000 C 
ATOM      6  C   UNL     1       4.994   4.723  15.349  0.00  0.00    +0.000 C 
ATOM      7  C   UNL     1       4.542   4.484  16.801  0.00  0.00    +0.000 C 
ATOM      8  C   UNL     1       5.735   4.075  17.676  0.00  0.00    +0.000 C 
ENDROOT
BRANCH   2   9
ATOM      9  C   UNL     1       8.238   6.852  18.509  0.00  0.00    +0.000 C 
BRANCH   9  10
ATOM     10  C   UNL     1       7.628   8.054  17.790  0.00  0.00    +0.000 C 
BRANCH  10  11
ATOM     11  C   UNL     1       8.317   9.320  18.137  0.00  0.00    +0.000 A 
ATOM     12  C   UNL     1       8.335  10.576  17.578  0.00  0.00    +0.000 A 
ATOM     13  C   UNL     1       9.202  11.286  18.414  0.00  0.00    +0.000 A 
ATOM     14  N   UNL     1       9.682  10.560  19.418  0.00  0.00    +0.000 NA
ATOM     15  O   UNL     1       9.109   9.305  19.248  0.00  0.00    +0.000 OA
BRANCH  13  16
ATOM     16  O   UNL     1       9.600  12.559  18.327  0.00  0.00    +0.000 OA
ATOM     17  H   UNL     1       9.495  12.992  19.188  0.00  0.00    +0.000 HD
ENDBRANCH  13  16
ENDBRANCH  10  11
ENDBRANCH   9  10
ENDBRANCH   2   9
BRANCH   7  18
ATOM     18  C   UNL     1       3.446   3.418  16.884  0.00  0.00    +0.000 C 
BRANCH  18  19
ATOM     19  O   UNL     1       3.742   2.517  17.952  0.00  0.00    +0.000 OA
BRANCH  19  20
ATOM     20  C   UNL     1       2.921   2.578  19.044  0.00  0.00    +0.000 A 
ATOM     21  C   UNL     1       1.533   2.736  19.010  0.00  0.00    +0.000 A 
ATOM     22  C   UNL     1       0.802   2.777  20.202  0.00  0.00    +0.000 A 
ATOM     23  C   UNL     1       1.462   2.662  21.418  0.00  0.00    +0.000 A 
ATOM     24  F   UNL     1       0.757   2.700  22.555  0.00  0.00    +0.000 F 
ATOM     25  C   UNL     1       2.841   2.510  21.468  0.00  0.00    +0.000 A 
ATOM     26  C   UNL     1       3.571   2.470  20.280  0.00  0.00    +0.000 A 
ENDBRANCH  19  20
ENDBRANCH  18  19
ENDBRANCH   7  18
TORSDOF 7
ENDMDL
MODEL 9
REMARK VINA RESULT:      -7.2      5.332      7.175
REMARK  Name = 
REMARK  7 active torsions:
REMARK  status: ('A' for Active; 'I' for Inactive)
REMARK    1  A    between atoms: C_2  and  C_3
REMARK    2  A    between atoms: C_3  and  C_4
REMARK    3  A    between atoms: C_4  and  C_5
REMARK    4  A    between atoms: C_7  and  O_8
REMARK    5  A    between atoms: C_15  and  C_16
REMARK    6  A    between atoms: C_16  and  O_17
REMARK    7  A    between atoms: O_17  and  C_18
REMARK                            x       y       z     vdW  Elec       q    Type
REMARK                         _______ _______ _______ _____ _____    ______ ____
ROOT
ATOM      1  O   UNL     1       6.282   5.772  18.847  0.00  0.00    +0.000 OA
ATOM      2  C   UNL     1       5.866   4.863  18.126  0.00  0.00    +0.000 C 
ATOM      3  N   UNL     1       4.695   4.176  18.414  0.00  0.00    +0.000 N 
ATOM      4  C   UNL     1       4.129   3.081  17.628  0.00  0.00    +0.000 C 
ATOM      5  C   UNL     1       2.747   3.464  17.104  0.00  0.00    +0.000 C 
ATOM      6  C   UNL     1       1.829   3.931  18.236  0.00  0.00    +0.000 C 
ATOM      7  C   UNL     1       2.491   5.040  19.074  0.00  0.00    +0.000 C 
ATOM      8  C   UNL     1       3.881   4.598  19.550  0.00  0.00    +0.000 C 
ENDROOT
BRANCH   2   9
ATOM      9  C   UNL     1       6.613   4.466  16.867  0.00  0.00    +0.000 C 
BRANCH   9  10
ATOM     10  C   UNL     1       6.232   5.373  15.698  0.00  0.00    +0.000 C 
BRANCH  10  11
ATOM     11  C   UNL     1       6.254   4.652  14.403  0.00  0.00    +0.000 A 
ATOM     12  C   UNL     1       5.403   3.756  13.799  0.00  0.00    +0.000 A 
ATOM     13  C   UNL     1       6.040   3.476  12.587  0.00  0.00    +0.000 A 
ATOM     14  N   UNL     1       7.181   4.136  12.424  0.00  0.00    +0.000 NA
ATOM     15  O   UNL     1       7.315   4.897  13.580  0.00  0.00    +0.000 OA
BRANCH  13  16
ATOM     16  O   UNL     1       5.661   2.647  11.609  0.00  0.00    +0.000 OA
ATOM     17  H   UNL     1       6.293   2.698  10.877  0.00  0.00    +0.000 HD
ENDBRANCH  13  16
ENDBRANCH  10  11
ENDBRANCH   9  10
ENDBRANCH   2   9
BRANCH   7  18
ATOM     18  C   UNL     1       1.629   5.432  20.277  0.00  0.00    +0.000 C 
BRANCH  18  19
ATOM     19  O   UNL     1       2.097   6.672  20.810  0.00  0.00    +0.000 OA
BRANCH  19  20
ATOM     20  C   UNL     1       1.701   7.804  20.153  0.00  0.00    +0.000 A 
ATOM     21  C   UNL     1       2.020   8.132  18.832  0.00  0.00    +0.000 A 
ATOM     22  C   UNL     1       1.546   9.322  18.270  0.00  0.00    +0.000 A 
ATOM     23  C   UNL     1       0.760  10.176  19.032  0.00  0.00    +0.000 A 
ATOM     24  F   UNL     1       0.307  11.313  18.488  0.00  0.00    +0.000 F 
ATOM     25  C   UNL     1       0.438   9.866  20.347  0.00  0.00    +0.000 A 
ATOM     26  C   UNL     1       0.911   8.680  20.908  0.00  0.00    +0.000 A 
ENDBRANCH  19  20
ENDBRANCH  18  19
ENDBRANCH   7  18
TORSDOF 7
ENDMDL
