MODEL 1
REMARK VINA RESULT:      -7.4      0.000      0.000
REMARK  Name = 
REMARK  3 active torsions:
REMARK  status: ('A' for Active; 'I' for Inactive)
REMARK    1  A    between atoms: C_2  and  C_3
REMARK    2  A    between atoms: C_8  and  C_9
REMARK    3  A    between atoms: C_10  and  C_11
REMARK                            x       y       z     vdW  Elec       q    Type
REMARK                         _______ _______ _______ _____ _____    ______ ____
ROOT
ATOM      1  C   UNL     1       2.859   4.510  19.989  0.00  0.00    +0.000 A 
ATOM      2  C   UNL     1       2.274   5.758  20.220  0.00  0.00    +0.000 A 
ATOM      3  C   UNL     1       2.463   6.780  19.296  0.00  0.00    +0.000 A 
ATOM      4  F   UNL     1       1.906   7.977  19.519  0.00  0.00    +0.000 F 
ATOM      5  C   UNL     1       3.221   6.584  18.146  0.00  0.00    +0.000 A 
ATOM      6  C   UNL     1       3.802   5.337  17.908  0.00  0.00    +0.000 A 
ATOM      7  C   UNL     1       3.626   4.301  18.833  0.00  0.00    +0.000 A 
ENDROOT
BRANCH   1   9
ATOM      8  N   UNL     1       2.521   2.601  21.713  0.00  0.00    +0.000 NA
ATOM      9  C   UNL     1       2.669   3.451  20.937  0.00  0.00    +0.000 C 
ENDBRANCH   1   9
BRANCH   6  10
ATOM     10  C   UNL     1       4.579   5.132  16.720  0.00  0.00    +0.000 C 
ATOM     11  C   UNL     1       5.216   4.919  15.724  0.00  0.00    +0.000 C 
BRANCH  11  12
ATOM     12  C   UNL     1       5.938   4.621  14.522  0.00  0.00    +0.000 A 
ATOM     13  C   UNL     1       5.446   3.699  13.603  0.00  0.00    +0.000 A 
ATOM     14  C   UNL     1       6.139   3.517  12.408  0.00  0.00    +0.000 A 
ATOM     15  C   UNL     1       7.302   4.245  12.189  0.00  0.00    +0.000 A 
ATOM     16  C   UNL     1       7.727   5.115  13.180  0.00  0.00    +0.000 A 
ATOM     17  F   UNL     1       8.863   5.797  12.975  0.00  0.00    +0.000 F 
ATOM     18  N   UNL     1       7.072   5.328  14.341  0.00  0.00    +0.000 NA
ENDBRANCH  11  12
ENDBRANCH   6  10
TORSDOF 3
ENDMDL
MODEL 2
REMARK VINA RESULT:      -7.3      2.028      2.495
REMARK  Name = 
REMARK  3 active torsions:
REMARK  status: ('A' for Active; 'I' for Inactive)
REMARK    1  A    between atoms: C_2  and  C_3
REMARK    2  A    between atoms: C_8  and  C_9
REMARK    3  A    between atoms: C_10  and  C_11
REMARK                            x       y       z     vdW  Elec       q    Type
REMARK                         _______ _______ _______ _____ _____    ______ ____
ROOT
ATOM      1  C   UNL     1       2.699   5.717  19.353  0.00  0.00    +0.000 A 
ATOM      2  C   UNL     1       2.406   4.545  20.054  0.00  0.00    +0.000 A 
ATOM      3  C   UNL     1       2.889   3.330  19.581  0.00  0.00    +0.000 A 
ATOM      4  F   UNL     1       2.605   2.205  20.251  0.00  0.00    +0.000 F 
ATOM      5  C   UNL     1       3.660   3.259  18.425  0.00  0.00    +0.000 A 
ATOM      6  C   UNL     1       3.961   4.428  17.725  0.00  0.00    +0.000 A 
ATOM      7  C   UNL     1       3.476   5.658  18.186  0.00  0.00    +0.000 A 
ENDROOT
BRANCH   1   9
ATOM      8  N   UNL     1       1.809   7.989  20.234  0.00  0.00    +0.000 NA
ATOM      9  C   UNL     1       2.205   6.975  19.833  0.00  0.00    +0.000 C 
ENDBRANCH   1   9
BRANCH   6  10
ATOM     10  C   UNL     1       4.761   4.357  16.537  0.00  0.00    +0.000 C 
ATOM     11  C   UNL     1       5.395   4.310  15.518  0.00  0.00    +0.000 C 
BRANCH  11  12
ATOM     12  C   UNL     1       6.114   4.294  14.277  0.00  0.00    +0.000 A 
ATOM     13  C   UNL     1       5.706   3.479  13.226  0.00  0.00    +0.000 A 
ATOM     14  C   UNL     1       6.382   3.572  12.011  0.00  0.00    +0.000 A 
ATOM     15  C   UNL     1       7.448   4.457  11.903  0.00  0.00    +0.000 A 
ATOM     16  C   UNL     1       7.798   5.202  13.017  0.00  0.00    +0.000 A 
ATOM     17  F   UNL     1       8.843   6.036  12.917  0.00  0.00    +0.000 F 
ATOM     18  N   UNL     1       7.154   5.148  14.203  0.00  0.00    +0.000 NA
ENDBRANCH  11  12
ENDBRANCH   6  10
TORSDOF 3
ENDMDL
MODEL 3
REMARK VINA RESULT:      -7.2      7.155      8.566
REMARK  Name = 
REMARK  3 active torsions:
REMARK  status: ('A' for Active; 'I' for Inactive)
REMARK    1  A    between atoms: C_2  and  C_3
REMARK    2  A    between atoms: C_8  and  C_9
REMARK    3  A    between atoms: C_10  and  C_11
REMARK                            x       y       z     vdW  Elec       q    Type
REMARK                         _______ _______ _______ _____ _____    ______ ____
ROOT
ATOM      1  C   UNL     1       9.244  13.371  18.424  0.00  0.00    +0.000 A 
ATOM      2  C   UNL     1      10.502  13.402  19.032  0.00  0.00    +0.000 A 
ATOM      3  C   UNL     1      11.128  12.206  19.362  0.00  0.00    +0.000 A 
ATOM      4  F   UNL     1      12.332  12.235  19.949  0.00  0.00    +0.000 F 
ATOM      5  C   UNL     1      10.529  10.978  19.096  0.00  0.00    +0.000 A 
ATOM      6  C   UNL     1       9.276  10.942  18.482  0.00  0.00    +0.000 A 
ATOM      7  C   UNL     1       8.630  12.139  18.150  0.00  0.00    +0.000 A 
ENDROOT
BRANCH   1   9
ATOM      8  N   UNL     1       8.068  15.601  17.813  0.00  0.00    +0.000 NA
ATOM      9  C   UNL     1       8.590  14.600  18.081  0.00  0.00    +0.000 C 
ENDBRANCH   1   9
BRANCH   6  10
ATOM     10  C   UNL     1       8.660   9.678  18.202  0.00  0.00    +0.000 C 
ATOM     11  C   UNL     1       8.176   8.599  17.989  0.00  0.00    +0.000 C 
BRANCH  11  12
ATOM     12  C   UNL     1       7.628   7.290  17.784  0.00  0.00    +0.000 A 
ATOM     13  C   UNL     1       7.859   6.267  18.698  0.00  0.00    +0.000 A 
ATOM     14  C   UNL     1       7.224   5.043  18.500  0.00  0.00    +0.000 A 
ATOM     15  C   UNL     1       6.404   4.883  17.390  0.00  0.00    +0.000 A 
ATOM     16  C   UNL     1       6.262   5.953  16.520  0.00  0.00    +0.000 A 
ATOM     17  F   UNL     1       5.490   5.788  15.437  0.00  0.00    +0.000 F 
ATOM     18  N   UNL     1       6.849   7.158  16.692  0.00  0.00    +0.000 NA
ENDBRANCH  11  12
ENDBRANCH   6  10
TORSDOF 3
ENDMDL
MODEL 4
REMARK VINA RESULT:      -7.0      6.977      8.025
REMARK  Name = 
REMARK  3 active torsions:
REMARK  status: ('A' for Active; 'I' for Inactive)
REMARK    1  A    between atoms: C_2  and  C_3
REMARK    2  A    between atoms: C_8  and  C_9
REMARK    3  A    between atoms: C_10  and  C_11
REMARK                            x       y       z     vdW  Elec       q    Type
REMARK                         _______ _______ _______ _____ _____    ______ ____
ROOT
ATOM      1  C   UNL     1       9.646  12.251  20.484  0.00  0.00    +0.000 A 
ATOM      2  C   UNL     1      10.471  12.945  19.594  0.00  0.00    +0.000 A 
ATOM      3  C   UNL     1      10.699  12.420  18.328  0.00  0.00    +0.000 A 
ATOM      4  F   UNL     1      11.493  13.083  17.476  0.00  0.00    +0.000 F 
ATOM      5  C   UNL     1      10.121  11.220  17.927  0.00  0.00    +0.000 A 
ATOM      6  C   UNL     1       9.291  10.527  18.809  0.00  0.00    +0.000 A 
ATOM      7  C   UNL     1       9.057  11.039  20.091  0.00  0.00    +0.000 A 
ENDROOT
BRANCH   1   9
ATOM      8  N   UNL     1       9.224  13.216  22.855  0.00  0.00    +0.000 NA
ATOM      9  C   UNL     1       9.405  12.785  21.793  0.00  0.00    +0.000 C 
ENDBRANCH   1   9
BRANCH   6  10
ATOM     10  C   UNL     1       8.690   9.292  18.396  0.00  0.00    +0.000 C 
ATOM     11  C   UNL     1       8.149   8.271  18.067  0.00  0.00    +0.000 C 
BRANCH  11  12
ATOM     12  C   UNL     1       7.451   7.081  17.677  0.00  0.00    +0.000 A 
ATOM     13  C   UNL     1       7.635   5.886  18.365  0.00  0.00    +0.000 A 
ATOM     14  C   UNL     1       6.861   4.785  18.005  0.00  0.00    +0.000 A 
ATOM     15  C   UNL     1       5.952   4.916  16.962  0.00  0.00    +0.000 A 
ATOM     16  C   UNL     1       5.865   6.139  16.318  0.00  0.00    +0.000 A 
ATOM     17  F   UNL     1       5.006   6.255  15.295  0.00  0.00    +0.000 F 
ATOM     18  N   UNL     1       6.588   7.231  16.652  0.00  0.00    +0.000 NA
ENDBRANCH  11  12
ENDBRANCH   6  10
TORSDOF 3
ENDMDL
MODEL 5
REMARK VINA RESULT:      -7.0      2.894      7.586
REMARK  Name = 
REMARK  3 active torsions:
REMARK  status: ('A' for Active; 'I' for Inactive)
REMARK    1  A    between atoms: C_2  and  C_3
REMARK    2  A    between atoms: C_8  and  C_9
REMARK    3  A    between atoms: C_10  and  C_11
REMARK                            x       y       z     vdW  Elec       q    Type
REMARK                         _______ _______ _______ _____ _____    ______ ____
ROOT
ATOM      1  C   UNL     1       6.050   4.522  15.170  0.00  0.00    +0.000 A 
ATOM      2  C   UNL     1       7.131   4.160  15.978  0.00  0.00    +0.000 A 
ATOM      3  C   UNL     1       7.219   4.674  17.267  0.00  0.00    +0.000 A 
ATOM      4  F   UNL     1       8.258   4.330  18.040  0.00  0.00    +0.000 F 
ATOM      5  C   UNL     1       6.251   5.538  17.769  0.00  0.00    +0.000 A 
ATOM      6  C   UNL     1       5.166   5.896  16.968  0.00  0.00    +0.000 A 
ATOM      7  C   UNL     1       5.067   5.393  15.665  0.00  0.00    +0.000 A 
ENDROOT
BRANCH   1   9
ATOM      8  N   UNL     1       5.880   3.583  12.757  0.00  0.00    +0.000 NA
ATOM      9  C   UNL     1       5.951   3.998  13.839  0.00  0.00    +0.000 C 
ENDBRANCH   1   9
BRANCH   6  10
ATOM     10  C   UNL     1       4.165   6.782  17.486  0.00  0.00    +0.000 C 
ATOM     11  C   UNL     1       3.307   7.491  17.940  0.00  0.00    +0.000 C 
BRANCH  11  12
ATOM     12  C   UNL     1       2.274   8.296  18.524  0.00  0.00    +0.000 A 
ATOM     13  C   UNL     1       1.589   9.239  17.765  0.00  0.00    +0.000 A 
ATOM     14  C   UNL     1       0.531   9.927  18.357  0.00  0.00    +0.000 A 
ATOM     15  C   UNL     1       0.214   9.660  19.683  0.00  0.00    +0.000 A 
ATOM     16  C   UNL     1       0.978   8.724  20.363  0.00  0.00    +0.000 A 
ATOM     17  F   UNL     1       0.686   8.487  21.650  0.00  0.00    +0.000 F 
ATOM     18  N   UNL     1       1.998   8.029  19.816  0.00  0.00    +0.000 NA
ENDBRANCH  11  12
ENDBRANCH   6  10
TORSDOF 3
ENDMDL
MODEL 6
REMARK VINA RESULT:      -7.0      6.402      7.760
REMARK  Name = 
REMARK  3 active torsions:
REMARK  status: ('A' for Active; 'I' for Inactive)
REMARK    1  A    between atoms: C_2  and  C_3
REMARK    2  A    between atoms: C_8  and  C_9
REMARK    3  A    between atoms: C_10  and  C_11
REMARK                            x       y       z     vdW  Elec       q    Type
REMARK                         _______ _______ _______ _____ _____    ______ ____
ROOT
ATOM      1  C   UNL     1       8.642  12.682  18.321  0.00  0.00    +0.000 A 
ATOM      2  C   UNL     1       9.761  12.764  19.155  0.00  0.00    +0.000 A 
ATOM      3  C   UNL     1      10.373  11.594  19.590  0.00  0.00    +0.000 A 
ATOM      4  F   UNL     1      11.443  11.672  20.392  0.00  0.00    +0.000 F 
ATOM      5  C   UNL     1       9.895  10.343  19.211  0.00  0.00    +0.000 A 
ATOM      6  C   UNL     1       8.782  10.256  18.373  0.00  0.00    +0.000 A 
ATOM      7  C   UNL     1       8.151  11.426  17.932  0.00  0.00    +0.000 A 
ENDROOT
BRANCH   1   9
ATOM      8  N   UNL     1       7.477  14.850  17.504  0.00  0.00    +0.000 NA
ATOM      9  C   UNL     1       8.004  13.883  17.868  0.00  0.00    +0.000 C 
ENDBRANCH   1   9
BRANCH   6  10
ATOM     10  C   UNL     1       8.292   8.968  17.977  0.00  0.00    +0.000 C 
ATOM     11  C   UNL     1       7.858   7.887  17.683  0.00  0.00    +0.000 C 
BRANCH  11  12
ATOM     12  C   UNL     1       7.295   6.607  17.368  0.00  0.00    +0.000 A 
ATOM     13  C   UNL     1       6.571   5.892  18.318  0.00  0.00    +0.000 A 
ATOM     14  C   UNL     1       5.965   4.699  17.932  0.00  0.00    +0.000 A 
ATOM     15  C   UNL     1       6.123   4.258  16.624  0.00  0.00    +0.000 A 
ATOM     16  C   UNL     1       6.890   5.025  15.761  0.00  0.00    +0.000 A 
ATOM     17  F   UNL     1       7.062   4.584  14.507  0.00  0.00    +0.000 F 
ATOM     18  N   UNL     1       7.477   6.194  16.098  0.00  0.00    +0.000 NA
ENDBRANCH  11  12
ENDBRANCH   6  10
TORSDOF 3
ENDMDL
MODEL 7
REMARK VINA RESULT:      -6.9      6.645      7.734
REMARK  Name = 
REMARK  3 active torsions:
REMARK  status: ('A' for Active; 'I' for Inactive)
REMARK    1  A    between atoms: C_2  and  C_3
REMARK    2  A    between atoms: C_8  and  C_9
REMARK    3  A    between atoms: C_10  and  C_11
REMARK                            x       y       z     vdW  Elec       q    Type
REMARK                         _______ _______ _______ _____ _____    ______ ____
ROOT
ATOM      1  C   UNL     1       9.696  11.913  20.359  0.00  0.00    +0.000 A 
ATOM      2  C   UNL     1      10.648  12.510  19.529  0.00  0.00    +0.000 A 
ATOM      3  C   UNL     1      10.858  11.997  18.255  0.00  0.00    +0.000 A 
ATOM      4  F   UNL     1      11.774  12.567  17.460  0.00  0.00    +0.000 F 
ATOM      5  C   UNL     1      10.139  10.901  17.788  0.00  0.00    +0.000 A 
ATOM      6  C   UNL     1       9.182  10.305  18.611  0.00  0.00    +0.000 A 
ATOM      7  C   UNL     1       8.964  10.807  19.900  0.00  0.00    +0.000 A 
ENDROOT
BRANCH   1   9
ATOM      8  N   UNL     1       9.304  12.855  22.744  0.00  0.00    +0.000 NA
ATOM      9  C   UNL     1       9.472  12.435  21.676  0.00  0.00    +0.000 C 
ENDBRANCH   1   9
BRANCH   6  10
ATOM     10  C   UNL     1       8.435   9.179  18.130  0.00  0.00    +0.000 C 
ATOM     11  C   UNL     1       7.778   8.263  17.715  0.00  0.00    +0.000 C 
BRANCH  11  12
ATOM     12  C   UNL     1       6.965   7.208  17.183  0.00  0.00    +0.000 A 
ATOM     13  C   UNL     1       5.596   7.171  17.426  0.00  0.00    +0.000 A 
ATOM     14  C   UNL     1       4.838   6.178  16.807  0.00  0.00    +0.000 A 
ATOM     15  C   UNL     1       5.479   5.254  15.992  0.00  0.00    +0.000 A 
ATOM     16  C   UNL     1       6.853   5.357  15.839  0.00  0.00    +0.000 A 
ATOM     17  F   UNL     1       7.472   4.449  15.071  0.00  0.00    +0.000 F 
ATOM     18  N   UNL     1       7.614   6.315  16.409  0.00  0.00    +0.000 NA
ENDBRANCH  11  12
ENDBRANCH   6  10
TORSDOF 3
ENDMDL
MODEL 8
REMARK VINA RESULT:      -6.8      5.689      7.370
REMARK  Name = 
REMARK  3 active torsions:
REMARK  status: ('A' for Active; 'I' for Inactive)
REMARK    1  A    between atoms: C_2  and  C_3
REMARK    2  A    between atoms: C_8  and  C_9
REMARK    3  A    between atoms: C_10  and  C_11
REMARK                            x       y       z     vdW  Elec       q    Type
REMARK                         _______ _______ _______ _____ _____    ______ ____
ROOT
ATOM      1  C   UNL     1       6.481   4.917  15.933  0.00  0.00    +0.000 A 
ATOM      2  C   UNL     1       5.914   4.174  16.971  0.00  0.00    +0.000 A 
ATOM      3  C   UNL     1       5.981   4.660  18.271  0.00  0.00    +0.000 A 
ATOM      4  F   UNL     1       5.441   3.946  19.268  0.00  0.00    +0.000 F 
ATOM      5  C   UNL     1       6.598   5.874  18.559  0.00  0.00    +0.000 A 
ATOM      6  C   UNL     1       7.159   6.623  17.524  0.00  0.00    +0.000 A 
ATOM      7  C   UNL     1       7.106   6.142  16.210  0.00  0.00    +0.000 A 
ENDROOT
BRANCH   1   9
ATOM      8  N   UNL     1       6.361   4.033  13.497  0.00  0.00    +0.000 NA
ATOM      9  C   UNL     1       6.418   4.422  14.588  0.00  0.00    +0.000 C 
ENDBRANCH   1   9
BRANCH   6  10
ATOM     10  C   UNL     1       7.791   7.876  17.818  0.00  0.00    +0.000 C 
ATOM     11  C   UNL     1       8.281   8.944  18.071  0.00  0.00    +0.000 C 
BRANCH  11  12
ATOM     12  C   UNL     1       8.816  10.232  18.404  0.00  0.00    +0.000 A 
ATOM     13  C   UNL     1       8.535  11.346  17.620  0.00  0.00    +0.000 A 
ATOM     14  C   UNL     1       9.001  12.590  18.041  0.00  0.00    +0.000 A 
ATOM     15  C   UNL     1       9.744  12.667  19.212  0.00  0.00    +0.000 A 
ATOM     16  C   UNL     1       9.997  11.495  19.906  0.00  0.00    +0.000 A 
ATOM     17  F   UNL     1      10.736  11.569  21.023  0.00  0.00    +0.000 F 
ATOM     18  N   UNL     1       9.547  10.277  19.536  0.00  0.00    +0.000 NA
ENDBRANCH  11  12
ENDBRANCH   6  10
TORSDOF 3
ENDMDL
MODEL 9
REMARK VINA RESULT:      -6.7      1.411      1.684
REMARK  Name = 
REMARK  3 active torsions:
REMARK  status: ('A' for Active; 'I' for Inactive)
REMARK    1  A    between atoms: C_2  and  C_3
REMARK    2  A    between atoms: C_8  and  C_9
REMARK    3  A    between atoms: C_10  and  C_11
REMARK                            x       y       z     vdW  Elec       q    Type
REMARK                         _______ _______ _______ _____ _____    ______ ____
ROOT
ATOM      1  C   UNL     1       2.439   4.479  20.292  0.00  0.00    +0.000 A 
ATOM      2  C   UNL     1       1.950   5.759  20.567  0.00  0.00    +0.000 A 
ATOM      3  C   UNL     1       2.251   6.803  19.701  0.00  0.00    +0.000 A 
ATOM      4  F   UNL     1       1.786   8.031  19.966  0.00  0.00    +0.000 F 
ATOM      5  C   UNL     1       3.028   6.599  18.565  0.00  0.00    +0.000 A 
ATOM      6  C   UNL     1       3.513   5.322  18.282  0.00  0.00    +0.000 A 
ATOM      7  C   UNL     1       3.224   4.261  19.150  0.00  0.00    +0.000 A 
ENDROOT
BRANCH   1   9
ATOM      8  N   UNL     1       1.877   2.526  21.905  0.00  0.00    +0.000 NA
ATOM      9  C   UNL     1       2.134   3.395  21.181  0.00  0.00    +0.000 C 
ENDBRANCH   1   9
BRANCH   6  10
ATOM     10  C   UNL     1       4.310   5.109  17.109  0.00  0.00    +0.000 C 
ATOM     11  C   UNL     1       4.941   4.916  16.105  0.00  0.00    +0.000 C 
BRANCH  11  12
ATOM     12  C   UNL     1       5.644   4.690  14.876  0.00  0.00    +0.000 A 
ATOM     13  C   UNL     1       6.944   5.153  14.701  0.00  0.00    +0.000 A 
ATOM     14  C   UNL     1       7.615   4.824  13.525  0.00  0.00    +0.000 A 
ATOM     15  C   UNL     1       6.955   4.066  12.566  0.00  0.00    +0.000 A 
ATOM     16  C   UNL     1       5.649   3.679  12.821  0.00  0.00    +0.000 A 
ATOM     17  F   UNL     1       5.007   2.969  11.882  0.00  0.00    +0.000 F 
ATOM     18  N   UNL     1       4.976   3.966  13.956  0.00  0.00    +0.000 NA
ENDBRANCH  11  12
ENDBRANCH   6  10
TORSDOF 3
ENDMDL
