MODEL 1
REMARK VINA RESULT:      -8.5      0.000      0.000
REMARK  Name = 
REMARK  5 active torsions:
REMARK  status: ('A' for Active; 'I' for Inactive)
REMARK    1  A    between atoms: O_1  and  C_2
REMARK    2  A    between atoms: C_11  and  C_12
REMARK    3  A    between atoms: C_11  and  C_20
REMARK    4  A    between atoms: C_13  and  C_14
REMARK    5  A    between atoms: C_20  and  C_21
REMARK                            x       y       z     vdW  Elec       q    Type
REMARK                         _______ _______ _______ _____ _____    ______ ____
ROOT
ATOM      1  C   UNL     1       1.333   2.358  19.157  0.00  0.00    +0.000 C 
ATOM      2  C   UNL     1       1.905   3.514  20.001  0.00  0.00    +0.000 C 
ATOM      3  C   UNL     1       1.674   4.832  19.240  0.00  0.00    +0.000 C 
ATOM      4  C   UNL     1       2.417   4.802  17.885  0.00  0.00    +0.000 C 
ATOM      5  C   UNL     1       1.847   3.619  17.063  0.00  0.00    +0.000 C 
ATOM      6  C   UNL     1       2.075   2.295  17.809  0.00  0.00    +0.000 C 
ATOM      7  C   UNL     1       3.584   2.096  18.045  0.00  0.00    +0.000 C 
ATOM      8  C   UNL     1       4.161   3.273  18.872  0.00  0.00    +0.000 C 
ATOM      9  C   UNL     1       3.415   3.291  20.225  0.00  0.00    +0.000 C 
ATOM     10  C   UNL     1       3.958   4.628  18.118  0.00  0.00    +0.000 C 
ENDROOT
BRANCH   1  11
ATOM     11  O   UNL     1       1.476   1.120  19.843  0.00  0.00    +0.000 OA
ATOM     12  H   UNL     1       1.644   1.321  20.779  0.00  0.00    +0.000 HD
ENDBRANCH   1  11
BRANCH  10  13
ATOM     13  C   UNL     1       4.673   4.581  16.778  0.00  0.00    +0.000 C 
ATOM     14  C   UNL     1       5.286   4.541  15.627  0.00  0.00    +0.000 C 
BRANCH  14  15
ATOM     15  C   UNL     1       5.971   4.452  14.376  0.00  0.00    +0.000 A 
ATOM     16  C   UNL     1       5.493   3.598  13.379  0.00  0.00    +0.000 A 
ATOM     17  C   UNL     1       6.184   3.476  12.172  0.00  0.00    +0.000 A 
ATOM     18  C   UNL     1       7.350   4.211  11.959  0.00  0.00    +0.000 A 
ATOM     19  C   UNL     1       7.823   5.073  12.948  0.00  0.00    +0.000 A 
ATOM     20  C   UNL     1       7.134   5.194  14.156  0.00  0.00    +0.000 A 
ENDBRANCH  14  15
ENDBRANCH  10  13
BRANCH  10  21
ATOM     21  C   UNL     1       4.592   5.821  18.905  0.00  0.00    +0.000 C 
BRANCH  21  22
ATOM     22  C   UNL     1       6.080   5.748  19.010  0.00  0.00    +0.000 A 
ATOM     23  N   UNL     1       6.801   5.008  19.825  0.00  0.00    +0.000 NA
ATOM     24  N   UNL     1       8.114   5.306  19.551  0.00  0.00    +0.000 NA
ATOM     25  N   UNL     1       8.203   6.202  18.576  0.00  0.00    +0.000 NA
ATOM     26  N   UNL     1       6.939   6.480  18.239  0.00  0.00    +0.000 N 
ATOM     27  H   UNL     1       6.748   7.160  17.515  0.00  0.00    +0.000 HD
ENDBRANCH  21  22
ENDBRANCH  10  21
TORSDOF 5
ENDMDL
MODEL 2
REMARK VINA RESULT:      -8.5      0.839      1.193
REMARK  Name = 
REMARK  5 active torsions:
REMARK  status: ('A' for Active; 'I' for Inactive)
REMARK    1  A    between atoms: O_1  and  C_2
REMARK    2  A    between atoms: C_11  and  C_12
REMARK    3  A    between atoms: C_11  and  C_20
REMARK    4  A    between atoms: C_13  and  C_14
REMARK    5  A    between atoms: C_20  and  C_21
REMARK                            x       y       z     vdW  Elec       q    Type
REMARK                         _______ _______ _______ _____ _____    ______ ____
ROOT
ATOM      1  C   UNL     1       0.877   3.632  19.317  0.00  0.00    +0.000 C 
ATOM      2  C   UNL     1       2.028   3.922  20.299  0.00  0.00    +0.000 C 
ATOM      3  C   UNL     1       2.617   5.304  19.961  0.00  0.00    +0.000 C 
ATOM      4  C   UNL     1       3.189   5.303  18.526  0.00  0.00    +0.000 C 
ATOM      5  C   UNL     1       2.023   4.983  17.557  0.00  0.00    +0.000 C 
ATOM      6  C   UNL     1       1.427   3.604  17.879  0.00  0.00    +0.000 C 
ATOM      7  C   UNL     1       2.527   2.532  17.755  0.00  0.00    +0.000 C 
ATOM      8  C   UNL     1       3.695   2.841  18.725  0.00  0.00    +0.000 C 
ATOM      9  C   UNL     1       3.114   2.836  20.158  0.00  0.00    +0.000 C 
ATOM     10  C   UNL     1       4.328   4.233  18.398  0.00  0.00    +0.000 C 
ENDROOT
BRANCH   1  11
ATOM     11  O   UNL     1       0.263   2.385  19.621  0.00  0.00    +0.000 OA
ATOM     12  H   UNL     1      -0.443   2.238  18.969  0.00  0.00    +0.000 HD
ENDBRANCH   1  11
BRANCH  10  13
ATOM     13  C   UNL     1       4.867   4.230  16.977  0.00  0.00    +0.000 C 
ATOM     14  C   UNL     1       5.328   4.228  15.757  0.00  0.00    +0.000 C 
BRANCH  14  15
ATOM     15  C   UNL     1       5.875   4.206  14.437  0.00  0.00    +0.000 A 
ATOM     16  C   UNL     1       5.265   3.436  13.443  0.00  0.00    +0.000 A 
ATOM     17  C   UNL     1       5.821   3.377  12.164  0.00  0.00    +0.000 A 
ATOM     18  C   UNL     1       6.984   4.092  11.876  0.00  0.00    +0.000 A 
ATOM     19  C   UNL     1       7.588   4.871  12.863  0.00  0.00    +0.000 A 
ATOM     20  C   UNL     1       7.034   4.928  14.143  0.00  0.00    +0.000 A 
ENDBRANCH  14  15
ENDBRANCH  10  13
BRANCH  10  21
ATOM     21  C   UNL     1       5.552   4.537  19.324  0.00  0.00    +0.000 C 
BRANCH  21  22
ATOM     22  C   UNL     1       6.421   5.644  18.826  0.00  0.00    +0.000 A 
ATOM     23  N   UNL     1       6.111   6.602  17.978  0.00  0.00    +0.000 NA
ATOM     24  N   UNL     1       7.247   7.360  17.826  0.00  0.00    +0.000 NA
ATOM     25  N   UNL     1       8.235   6.890  18.576  0.00  0.00    +0.000 NA
ATOM     26  N   UNL     1       7.725   5.821  19.198  0.00  0.00    +0.000 N 
ATOM     27  H   UNL     1       8.304   5.277  19.824  0.00  0.00    +0.000 HD
ENDBRANCH  21  22
ENDBRANCH  10  21
TORSDOF 5
ENDMDL
MODEL 3
REMARK VINA RESULT:      -8.4      0.898      1.522
REMARK  Name = 
REMARK  5 active torsions:
REMARK  status: ('A' for Active; 'I' for Inactive)
REMARK    1  A    between atoms: O_1  and  C_2
REMARK    2  A    between atoms: C_11  and  C_12
REMARK    3  A    between atoms: C_11  and  C_20
REMARK    4  A    between atoms: C_13  and  C_14
REMARK    5  A    between atoms: C_20  and  C_21
REMARK                            x       y       z     vdW  Elec       q    Type
REMARK                         _______ _______ _______ _____ _____    ______ ____
ROOT
ATOM      1  C   UNL     1       1.018   3.748  19.392  0.00  0.00    +0.000 C 
ATOM      2  C   UNL     1       2.156   4.208  20.325  0.00  0.00    +0.000 C 
ATOM      3  C   UNL     1       2.646   5.588  19.849  0.00  0.00    +0.000 C 
ATOM      4  C   UNL     1       3.203   5.488  18.411  0.00  0.00    +0.000 C 
ATOM      5  C   UNL     1       2.053   5.000  17.495  0.00  0.00    +0.000 C 
ATOM      6  C   UNL     1       1.556   3.620  17.955  0.00  0.00    +0.000 C 
ATOM      7  C   UNL     1       2.726   2.618  17.916  0.00  0.00    +0.000 C 
ATOM      8  C   UNL     1       3.878   3.097  18.834  0.00  0.00    +0.000 C 
ATOM      9  C   UNL     1       3.312   3.189  20.269  0.00  0.00    +0.000 C 
ATOM     10  C   UNL     1       4.412   4.491  18.367  0.00  0.00    +0.000 C 
ENDROOT
BRANCH   1  11
ATOM     11  O   UNL     1       0.494   2.497  19.822  0.00  0.00    +0.000 OA
ATOM     12  H   UNL     1       0.195   2.017  19.032  0.00  0.00    +0.000 HD
ENDBRANCH   1  11
BRANCH  10  13
ATOM     13  C   UNL     1       4.937   4.389  16.945  0.00  0.00    +0.000 C 
ATOM     14  C   UNL     1       5.386   4.302  15.724  0.00  0.00    +0.000 C 
BRANCH  14  15
ATOM     15  C   UNL     1       5.921   4.190  14.403  0.00  0.00    +0.000 A 
ATOM     16  C   UNL     1       7.090   4.876  14.065  0.00  0.00    +0.000 A 
ATOM     17  C   UNL     1       7.592   4.804  12.764  0.00  0.00    +0.000 A 
ATOM     18  C   UNL     1       6.929   4.042  11.802  0.00  0.00    +0.000 A 
ATOM     19  C   UNL     1       5.769   3.346  12.141  0.00  0.00    +0.000 A 
ATOM     20  C   UNL     1       5.264   3.420  13.441  0.00  0.00    +0.000 A 
ENDBRANCH  14  15
ENDBRANCH  10  13
BRANCH  10  21
ATOM     21  C   UNL     1       5.620   4.963  19.241  0.00  0.00    +0.000 C 
BRANCH  21  22
ATOM     22  C   UNL     1       6.474   5.994  18.579  0.00  0.00    +0.000 A 
ATOM     23  N   UNL     1       7.772   6.174  18.701  0.00  0.00    +0.000 NA
ATOM     24  N   UNL     1       8.083   7.254  17.910  0.00  0.00    +0.000 NA
ATOM     25  N   UNL     1       7.002   7.723  17.300  0.00  0.00    +0.000 NA
ATOM     26  N   UNL     1       5.999   6.941  17.716  0.00  0.00    +0.000 N 
ATOM     27  H   UNL     1       5.056   7.116  17.393  0.00  0.00    +0.000 HD
ENDBRANCH  21  22
ENDBRANCH  10  21
TORSDOF 5
ENDMDL
MODEL 4
REMARK VINA RESULT:      -8.3      2.909      5.435
REMARK  Name = 
REMARK  5 active torsions:
REMARK  status: ('A' for Active; 'I' for Inactive)
REMARK    1  A    between atoms: O_1  and  C_2
REMARK    2  A    between atoms: C_11  and  C_12
REMARK    3  A    between atoms: C_11  and  C_20
REMARK    4  A    between atoms: C_13  and  C_14
REMARK    5  A    between atoms: C_20  and  C_21
REMARK                            x       y       z     vdW  Elec       q    Type
REMARK                         _______ _______ _______ _____ _____    ______ ____
ROOT
ATOM      1  C   UNL     1       2.033   1.998  19.524  0.00  0.00    +0.000 C 
ATOM      2  C   UNL     1       3.231   2.087  18.558  0.00  0.00    +0.000 C 
ATOM      3  C   UNL     1       4.321   2.954  19.214  0.00  0.00    +0.000 C 
ATOM      4  C   UNL     1       3.787   4.383  19.461  0.00  0.00    +0.000 C 
ATOM      5  C   UNL     1       2.569   4.271  20.412  0.00  0.00    +0.000 C 
ATOM      6  C   UNL     1       1.470   3.410  19.769  0.00  0.00    +0.000 C 
ATOM      7  C   UNL     1       1.041   4.047  18.433  0.00  0.00    +0.000 C 
ATOM      8  C   UNL     1       2.253   4.158  17.474  0.00  0.00    +0.000 C 
ATOM      9  C   UNL     1       2.776   2.724  17.230  0.00  0.00    +0.000 C 
ATOM     10  C   UNL     1       3.374   5.049  18.103  0.00  0.00    +0.000 C 
ENDROOT
BRANCH   1  11
ATOM     11  O   UNL     1       1.017   1.162  18.985  0.00  0.00    +0.000 OA
ATOM     12  H   UNL     1       1.451   0.376  18.613  0.00  0.00    +0.000 HD
ENDBRANCH   1  11
BRANCH  10  13
ATOM     13  C   UNL     1       2.833   6.445  18.365  0.00  0.00    +0.000 C 
ATOM     14  C   UNL     1       2.369   7.643  18.588  0.00  0.00    +0.000 C 
BRANCH  14  15
ATOM     15  C   UNL     1       1.859   8.946  18.881  0.00  0.00    +0.000 A 
ATOM     16  C   UNL     1       1.098   9.153  20.034  0.00  0.00    +0.000 A 
ATOM     17  C   UNL     1       0.562  10.414  20.301  0.00  0.00    +0.000 A 
ATOM     18  C   UNL     1       0.791  11.470  19.418  0.00  0.00    +0.000 A 
ATOM     19  C   UNL     1       1.561  11.268  18.273  0.00  0.00    +0.000 A 
ATOM     20  C   UNL     1       2.095  10.007  18.003  0.00  0.00    +0.000 A 
ENDBRANCH  14  15
ENDBRANCH  10  13
BRANCH  10  21
ATOM     21  C   UNL     1       4.580   5.228  17.124  0.00  0.00    +0.000 C 
BRANCH  21  22
ATOM     22  C   UNL     1       5.913   5.161  17.794  0.00  0.00    +0.000 A 
ATOM     23  N   UNL     1       6.358   5.895  18.792  0.00  0.00    +0.000 NA
ATOM     24  N   UNL     1       7.640   5.467  19.038  0.00  0.00    +0.000 NA
ATOM     25  N   UNL     1       7.976   4.479  18.219  0.00  0.00    +0.000 NA
ATOM     26  N   UNL     1       6.903   4.288  17.442  0.00  0.00    +0.000 N 
ATOM     27  H   UNL     1       6.926   3.583  16.717  0.00  0.00    +0.000 HD
ENDBRANCH  21  22
ENDBRANCH  10  21
TORSDOF 5
ENDMDL
MODEL 5
REMARK VINA RESULT:      -8.2      3.198      5.802
REMARK  Name = 
REMARK  5 active torsions:
REMARK  status: ('A' for Active; 'I' for Inactive)
REMARK    1  A    between atoms: O_1  and  C_2
REMARK    2  A    between atoms: C_11  and  C_12
REMARK    3  A    between atoms: C_11  and  C_20
REMARK    4  A    between atoms: C_13  and  C_14
REMARK    5  A    between atoms: C_20  and  C_21
REMARK                            x       y       z     vdW  Elec       q    Type
REMARK                         _______ _______ _______ _____ _____    ______ ____
ROOT
ATOM      1  C   UNL     1       1.649   2.080  19.353  0.00  0.00    +0.000 C 
ATOM      2  C   UNL     1       3.154   2.232  19.056  0.00  0.00    +0.000 C 
ATOM      3  C   UNL     1       3.794   3.045  20.196  0.00  0.00    +0.000 C 
ATOM      4  C   UNL     1       3.166   4.455  20.262  0.00  0.00    +0.000 C 
ATOM      5  C   UNL     1       1.651   4.281  20.535  0.00  0.00    +0.000 C 
ATOM      6  C   UNL     1       0.996   3.474  19.403  0.00  0.00    +0.000 C 
ATOM      7  C   UNL     1       1.212   4.207  18.064  0.00  0.00    +0.000 C 
ATOM      8  C   UNL     1       2.725   4.380  17.782  0.00  0.00    +0.000 C 
ATOM      9  C   UNL     1       3.343   2.965  17.712  0.00  0.00    +0.000 C 
ATOM     10  C   UNL     1       3.405   5.218  18.914  0.00  0.00    +0.000 C 
ENDROOT
BRANCH   1  11
ATOM     11  O   UNL     1       1.019   1.289  18.352  0.00  0.00    +0.000 OA
ATOM     12  H   UNL     1       0.121   1.084  18.662  0.00  0.00    +0.000 HD
ENDBRANCH   1  11
BRANCH  10  13
ATOM     13  C   UNL     1       2.765   6.594  18.988  0.00  0.00    +0.000 C 
ATOM     14  C   UNL     1       2.215   7.776  19.051  0.00  0.00    +0.000 C 
BRANCH  14  15
ATOM     15  C   UNL     1       1.587   9.055  19.157  0.00  0.00    +0.000 A 
ATOM     16  C   UNL     1       1.823  10.030  18.185  0.00  0.00    +0.000 A 
ATOM     17  C   UNL     1       1.246  11.295  18.310  0.00  0.00    +0.000 A 
ATOM     18  C   UNL     1       0.428  11.585  19.402  0.00  0.00    +0.000 A 
ATOM     19  C   UNL     1       0.181  10.608  20.367  0.00  0.00    +0.000 A 
ATOM     20  C   UNL     1       0.760   9.344  20.246  0.00  0.00    +0.000 A 
ENDBRANCH  14  15
ENDBRANCH  10  13
BRANCH  10  21
ATOM     21  C   UNL     1       4.920   5.462  18.615  0.00  0.00    +0.000 C 
BRANCH  21  22
ATOM     22  C   UNL     1       5.200   5.835  17.196  0.00  0.00    +0.000 A 
ATOM     23  N   UNL     1       4.811   6.912  16.548  0.00  0.00    +0.000 NA
ATOM     24  N   UNL     1       5.303   6.788  15.271  0.00  0.00    +0.000 NA
ATOM     25  N   UNL     1       5.996   5.665  15.137  0.00  0.00    +0.000 NA
ATOM     26  N   UNL     1       5.932   5.068  16.333  0.00  0.00    +0.000 N 
ATOM     27  H   UNL     1       6.380   4.173  16.474  0.00  0.00    +0.000 HD
ENDBRANCH  21  22
ENDBRANCH  10  21
TORSDOF 5
ENDMDL
MODEL 6
REMARK VINA RESULT:      -8.2      2.913      5.418
REMARK  Name = 
REMARK  5 active torsions:
REMARK  status: ('A' for Active; 'I' for Inactive)
REMARK    1  A    between atoms: O_1  and  C_2
REMARK    2  A    between atoms: C_11  and  C_12
REMARK    3  A    between atoms: C_11  and  C_20
REMARK    4  A    between atoms: C_13  and  C_14
REMARK    5  A    between atoms: C_20  and  C_21
REMARK                            x       y       z     vdW  Elec       q    Type
REMARK                         _______ _______ _______ _____ _____    ______ ____
ROOT
ATOM      1  C   UNL     1       2.341   2.131  19.567  0.00  0.00    +0.000 C 
ATOM      2  C   UNL     1       3.440   2.192  18.488  0.00  0.00    +0.000 C 
ATOM      3  C   UNL     1       4.570   3.104  18.998  0.00  0.00    +0.000 C 
ATOM      4  C   UNL     1       4.035   4.535  19.231  0.00  0.00    +0.000 C 
ATOM      5  C   UNL     1       2.915   4.450  20.297  0.00  0.00    +0.000 C 
ATOM      6  C   UNL     1       1.776   3.544  19.800  0.00  0.00    +0.000 C 
ATOM      7  C   UNL     1       1.212   4.112  18.483  0.00  0.00    +0.000 C 
ATOM      8  C   UNL     1       2.326   4.196  17.410  0.00  0.00    +0.000 C 
ATOM      9  C   UNL     1       2.851   2.760  17.182  0.00  0.00    +0.000 C 
ATOM     10  C   UNL     1       3.484   5.131  17.890  0.00  0.00    +0.000 C 
ENDROOT
BRANCH   1  11
ATOM     11  O   UNL     1       1.294   1.255  19.164  0.00  0.00    +0.000 OA
ATOM     12  H   UNL     1       1.693   0.546  18.633  0.00  0.00    +0.000 HD
ENDBRANCH   1  11
BRANCH  10  13
ATOM     13  C   UNL     1       2.944   6.530  18.138  0.00  0.00    +0.000 C 
ATOM     14  C   UNL     1       2.481   7.730  18.351  0.00  0.00    +0.000 C 
BRANCH  14  15
ATOM     15  C   UNL     1       1.952   9.029  18.625  0.00  0.00    +0.000 A 
ATOM     16  C   UNL     1       2.362  10.124  17.860  0.00  0.00    +0.000 A 
ATOM     17  C   UNL     1       1.881  11.401  18.152  0.00  0.00    +0.000 A 
ATOM     18  C   UNL     1       0.984  11.585  19.205  0.00  0.00    +0.000 A 
ATOM     19  C   UNL     1       0.563  10.491  19.962  0.00  0.00    +0.000 A 
ATOM     20  C   UNL     1       1.047   9.214  19.673  0.00  0.00    +0.000 A 
ENDBRANCH  14  15
ENDBRANCH  10  13
BRANCH  10  21
ATOM     21  C   UNL     1       4.589   5.282  16.793  0.00  0.00    +0.000 C 
BRANCH  21  22
ATOM     22  C   UNL     1       5.773   6.075  17.239  0.00  0.00    +0.000 A 
ATOM     23  N   UNL     1       6.611   5.803  18.218  0.00  0.00    +0.000 NA
ATOM     24  N   UNL     1       7.515   6.837  18.244  0.00  0.00    +0.000 NA
ATOM     25  N   UNL     1       7.251   7.723  17.292  0.00  0.00    +0.000 NA
ATOM     26  N   UNL     1       6.167   7.252  16.666  0.00  0.00    +0.000 N 
ATOM     27  H   UNL     1       5.761   7.772  15.900  0.00  0.00    +0.000 HD
ENDBRANCH  21  22
ENDBRANCH  10  21
TORSDOF 5
ENDMDL
MODEL 7
REMARK VINA RESULT:      -8.1      3.206      5.874
REMARK  Name = 
REMARK  5 active torsions:
REMARK  status: ('A' for Active; 'I' for Inactive)
REMARK    1  A    between atoms: O_1  and  C_2
REMARK    2  A    between atoms: C_11  and  C_12
REMARK    3  A    between atoms: C_11  and  C_20
REMARK    4  A    between atoms: C_13  and  C_14
REMARK    5  A    between atoms: C_20  and  C_21
REMARK                            x       y       z     vdW  Elec       q    Type
REMARK                         _______ _______ _______ _____ _____    ______ ____
ROOT
ATOM      1  C   UNL     1       1.692   2.086  19.083  0.00  0.00    +0.000 C 
ATOM      2  C   UNL     1       3.204   2.293  18.865  0.00  0.00    +0.000 C 
ATOM      3  C   UNL     1       3.773   3.037  20.087  0.00  0.00    +0.000 C 
ATOM      4  C   UNL     1       3.105   4.424  20.224  0.00  0.00    +0.000 C 
ATOM      5  C   UNL     1       1.584   4.196  20.416  0.00  0.00    +0.000 C 
ATOM      6  C   UNL     1       1.001   3.457  19.201  0.00  0.00    +0.000 C 
ATOM      7  C   UNL     1       1.255   4.288  17.928  0.00  0.00    +0.000 C 
ATOM      8  C   UNL     1       2.774   4.516  17.727  0.00  0.00    +0.000 C 
ATOM      9  C   UNL     1       3.431   3.124  17.586  0.00  0.00    +0.000 C 
ATOM     10  C   UNL     1       3.382   5.287  18.944  0.00  0.00    +0.000 C 
ENDROOT
BRANCH   1  11
ATOM     11  O   UNL     1       1.127   1.354  18.002  0.00  0.00    +0.000 OA
ATOM     12  H   UNL     1       1.358   0.418  18.129  0.00  0.00    +0.000 HD
ENDBRANCH   1  11
BRANCH  10  13
ATOM     13  C   UNL     1       2.703   6.639  19.086  0.00  0.00    +0.000 C 
ATOM     14  C   UNL     1       2.120   7.800  19.206  0.00  0.00    +0.000 C 
BRANCH  14  15
ATOM     15  C   UNL     1       1.462   9.056  19.380  0.00  0.00    +0.000 A 
ATOM     16  C   UNL     1       0.788   9.330  20.573  0.00  0.00    +0.000 A 
ATOM     17  C   UNL     1       0.107  10.539  20.729  0.00  0.00    +0.000 A 
ATOM     18  C   UNL     1       0.104  11.477  19.697  0.00  0.00    +0.000 A 
ATOM     19  C   UNL     1       0.787  11.211  18.509  0.00  0.00    +0.000 A 
ATOM     20  C   UNL     1       1.466  10.001  18.351  0.00  0.00    +0.000 A 
ENDBRANCH  14  15
ENDBRANCH  10  13
BRANCH  10  21
ATOM     21  C   UNL     1       4.902   5.586  18.731  0.00  0.00    +0.000 C 
BRANCH  21  22
ATOM     22  C   UNL     1       5.275   5.813  17.304  0.00  0.00    +0.000 A 
ATOM     23  N   UNL     1       6.150   5.150  16.577  0.00  0.00    +0.000 NA
ATOM     24  N   UNL     1       6.147   5.745  15.339  0.00  0.00    +0.000 NA
ATOM     25  N   UNL     1       5.278   6.746  15.295  0.00  0.00    +0.000 NA
ATOM     26  N   UNL     1       4.734   6.792  16.517  0.00  0.00    +0.000 N 
ATOM     27  H   UNL     1       4.042   7.496  16.735  0.00  0.00    +0.000 HD
ENDBRANCH  21  22
ENDBRANCH  10  21
TORSDOF 5
ENDMDL
MODEL 8
REMARK VINA RESULT:      -8.0      0.900      1.480
REMARK  Name = 
REMARK  5 active torsions:
REMARK  status: ('A' for Active; 'I' for Inactive)
REMARK    1  A    between atoms: O_1  and  C_2
REMARK    2  A    between atoms: C_11  and  C_12
REMARK    3  A    between atoms: C_11  and  C_20
REMARK    4  A    between atoms: C_13  and  C_14
REMARK    5  A    between atoms: C_20  and  C_21
REMARK                            x       y       z     vdW  Elec       q    Type
REMARK                         _______ _______ _______ _____ _____    ______ ____
ROOT
ATOM      1  C   UNL     1       0.554   3.409  19.272  0.00  0.00    +0.000 C 
ATOM      2  C   UNL     1       1.594   3.927  20.285  0.00  0.00    +0.000 C 
ATOM      3  C   UNL     1       2.048   5.330  19.840  0.00  0.00    +0.000 C 
ATOM      4  C   UNL     1       2.716   5.257  18.449  0.00  0.00    +0.000 C 
ATOM      5  C   UNL     1       1.665   4.710  17.451  0.00  0.00    +0.000 C 
ATOM      6  C   UNL     1       1.204   3.307  17.880  0.00  0.00    +0.000 C 
ATOM      7  C   UNL     1       2.423   2.366  17.934  0.00  0.00    +0.000 C 
ATOM      8  C   UNL     1       3.477   2.903  18.933  0.00  0.00    +0.000 C 
ATOM      9  C   UNL     1       2.801   2.968  20.321  0.00  0.00    +0.000 C 
ATOM     10  C   UNL     1       3.974   4.322  18.501  0.00  0.00    +0.000 C 
ENDROOT
BRANCH   1  11
ATOM     11  O   UNL     1       0.063   2.134  19.668  0.00  0.00    +0.000 OA
ATOM     12  H   UNL     1      -0.630   2.280  20.333  0.00  0.00    +0.000 HD
ENDBRANCH   1  11
BRANCH  10  13
ATOM     13  C   UNL     1       4.608   4.245  17.122  0.00  0.00    +0.000 C 
ATOM     14  C   UNL     1       5.152   4.179  15.939  0.00  0.00    +0.000 C 
BRANCH  14  15
ATOM     15  C   UNL     1       5.728   4.148  14.631  0.00  0.00    +0.000 A 
ATOM     16  C   UNL     1       6.920   4.831  14.378  0.00  0.00    +0.000 A 
ATOM     17  C   UNL     1       7.462   4.839  13.091  0.00  0.00    +0.000 A 
ATOM     18  C   UNL     1       6.816   4.160  12.058  0.00  0.00    +0.000 A 
ATOM     19  C   UNL     1       5.632   3.467  12.311  0.00  0.00    +0.000 A 
ATOM     20  C   UNL     1       5.087   3.460  13.597  0.00  0.00    +0.000 A 
ENDBRANCH  14  15
ENDBRANCH  10  13
BRANCH  10  21
ATOM     21  C   UNL     1       5.088   4.856  19.460  0.00  0.00    +0.000 C 
BRANCH  21  22
ATOM     22  C   UNL     1       6.343   5.256  18.759  0.00  0.00    +0.000 A 
ATOM     23  N   UNL     1       6.664   6.439  18.279  0.00  0.00    +0.000 NA
ATOM     24  N   UNL     1       7.908   6.298  17.713  0.00  0.00    +0.000 NA
ATOM     25  N   UNL     1       8.355   5.056  17.854  0.00  0.00    +0.000 NA
ATOM     26  N   UNL     1       7.382   4.405  18.503  0.00  0.00    +0.000 N 
ATOM     27  H   UNL     1       7.488   3.422  18.714  0.00  0.00    +0.000 HD
ENDBRANCH  21  22
ENDBRANCH  10  21
TORSDOF 5
ENDMDL
MODEL 9
REMARK VINA RESULT:      -7.9      3.936      7.050
REMARK  Name = 
REMARK  5 active torsions:
REMARK  status: ('A' for Active; 'I' for Inactive)
REMARK    1  A    between atoms: O_1  and  C_2
REMARK    2  A    between atoms: C_11  and  C_12
REMARK    3  A    between atoms: C_11  and  C_20
REMARK    4  A    between atoms: C_13  and  C_14
REMARK    5  A    between atoms: C_20  and  C_21
REMARK                            x       y       z     vdW  Elec       q    Type
REMARK                         _______ _______ _______ _____ _____    ______ ____
ROOT
ATOM      1  C   UNL     1       7.221   5.062  17.322  0.00  0.00    +0.000 C 
ATOM      2  C   UNL     1       6.178   4.077  16.759  0.00  0.00    +0.000 C 
ATOM      3  C   UNL     1       5.243   4.850  15.811  0.00  0.00    +0.000 C 
ATOM      4  C   UNL     1       4.498   5.961  16.586  0.00  0.00    +0.000 C 
ATOM      5  C   UNL     1       5.564   6.924  17.165  0.00  0.00    +0.000 C 
ATOM      6  C   UNL     1       6.503   6.167  18.118  0.00  0.00    +0.000 C 
ATOM      7  C   UNL     1       5.677   5.544  19.259  0.00  0.00    +0.000 C 
ATOM      8  C   UNL     1       4.611   4.575  18.688  0.00  0.00    +0.000 C 
ATOM      9  C   UNL     1       5.366   3.466  17.919  0.00  0.00    +0.000 C 
ATOM     10  C   UNL     1       3.633   5.333  17.732  0.00  0.00    +0.000 C 
ENDROOT
BRANCH   1  11
ATOM     11  O   UNL     1       8.144   4.383  18.166  0.00  0.00    +0.000 OA
ATOM     12  H   UNL     1       8.035   3.430  18.013  0.00  0.00    +0.000 HD
ENDBRANCH   1  11
BRANCH  10  13
ATOM     13  C   UNL     1       2.923   6.437  18.497  0.00  0.00    +0.000 C 
ATOM     14  C   UNL     1       2.313   7.386  19.152  0.00  0.00    +0.000 C 
BRANCH  14  15
ATOM     15  C   UNL     1       1.636   8.394  19.907  0.00  0.00    +0.000 A 
ATOM     16  C   UNL     1       1.411   8.207  21.273  0.00  0.00    +0.000 A 
ATOM     17  C   UNL     1       0.712   9.170  22.004  0.00  0.00    +0.000 A 
ATOM     18  C   UNL     1       0.244  10.322  21.372  0.00  0.00    +0.000 A 
ATOM     19  C   UNL     1       0.479  10.516  20.011  0.00  0.00    +0.000 A 
ATOM     20  C   UNL     1       1.175   9.553  19.278  0.00  0.00    +0.000 A 
ENDBRANCH  14  15
ENDBRANCH  10  13
BRANCH  10  21
ATOM     21  C   UNL     1       2.509   4.386  17.196  0.00  0.00    +0.000 C 
BRANCH  21  22
ATOM     22  C   UNL     1       1.895   3.525  18.250  0.00  0.00    +0.000 A 
ATOM     23  N   UNL     1       1.195   3.900  19.299  0.00  0.00    +0.000 NA
ATOM     24  N   UNL     1       0.868   2.747  19.972  0.00  0.00    +0.000 NA
ATOM     25  N   UNL     1       1.344   1.680  19.344  0.00  0.00    +0.000 NA
ATOM     26  N   UNL     1       1.986   2.161  18.272  0.00  0.00    +0.000 N 
ATOM     27  H   UNL     1       2.452   1.527  17.637  0.00  0.00    +0.000 HD
ENDBRANCH  21  22
ENDBRANCH  10  21
TORSDOF 5
ENDMDL
