MODEL 1
REMARK VINA RESULT:      -8.2      0.000      0.000
REMARK  Name = 
REMARK  4 active torsions:
REMARK  status: ('A' for Active; 'I' for Inactive)
REMARK    1  A    between atoms: N_1  and  C_2
REMARK    2  A    between atoms: C_2  and  C_3
REMARK    3  A    between atoms: C_2  and  C_18
REMARK    4  A    between atoms: C_3  and  C_4
REMARK                            x       y       z     vdW  Elec       q    Type
REMARK                         _______ _______ _______ _____ _____    ______ ____
ROOT
ATOM      1  C   UNL     1       2.176   7.519  20.453  0.00  0.00    +0.000 C 
ENDROOT
BRANCH   1   2
ATOM      2  C   UNL     1       1.433   8.618  19.680  0.00  0.00    +0.000 C 
ATOM      3  O   UNL     1       1.802   8.952  18.550  0.00  0.00    +0.000 OA
ATOM      4  N   UNL     1       0.326   9.183  20.277  0.00  0.00    +0.000 N 
ATOM      5  C   UNL     1      -0.130   8.974  21.639  0.00  0.00    +0.000 C 
ATOM      6  C   UNL     1      -0.138  10.146  22.610  0.00  0.00    +0.000 C 
ATOM      7  O   UNL     1      -0.072   9.918  23.830  0.00  0.00    +0.000 OA
ATOM      8  N   UNL     1      -0.390  11.436  22.258  0.00  0.00    +0.000 N 
ATOM      9  C   UNL     1      -0.155  12.124  21.055  0.00  0.00    +0.000 A 
ATOM     10  C   UNL     1       0.059  13.501  21.197  0.00  0.00    +0.000 A 
ATOM     11  C   UNL     1       0.497  14.284  20.124  0.00  0.00    +0.000 A 
ATOM     12  C   UNL     1       0.692  13.694  18.888  0.00  0.00    +0.000 A 
ATOM     13  C   UNL     1       0.404  12.342  18.713  0.00  0.00    +0.000 A 
ATOM     14  C   UNL     1      -0.049  11.545  19.788  0.00  0.00    +0.000 A 
ATOM     15  C   UNL     1      -0.462  10.133  19.509  0.00  0.00    +0.000 C 
ATOM     16  H   UNL     1      -0.445  12.015  23.086  0.00  0.00    +0.000 HD
ENDBRANCH   1   2
BRANCH   1  17
ATOM     17  C   UNL     1       2.155   6.151  19.732  0.00  0.00    +0.000 C 
BRANCH  17  18
ATOM     18  C   UNL     1       3.558   5.527  19.506  0.00  0.00    +0.000 C 
ATOM     19  C   UNL     1       3.482   3.970  19.579  0.00  0.00    +0.000 C 
ATOM     20  C   UNL     1       4.838   3.492  19.080  0.00  0.00    +0.000 C 
ATOM     21  C   UNL     1       4.971   4.431  17.919  0.00  0.00    +0.000 A 
ATOM     22  C   UNL     1       5.612   4.176  16.722  0.00  0.00    +0.000 A 
ATOM     23  C   UNL     1       5.549   5.143  15.739  0.00  0.00    +0.000 A 
ATOM     24  F   UNL     1       6.079   4.905  14.533  0.00  0.00    +0.000 F 
ATOM     25  C   UNL     1       4.913   6.380  15.988  0.00  0.00    +0.000 A 
ATOM     26  F   UNL     1       4.879   7.308  15.035  0.00  0.00    +0.000 F 
ATOM     27  C   UNL     1       4.277   6.633  17.209  0.00  0.00    +0.000 A 
ATOM     28  C   UNL     1       4.263   5.630  18.163  0.00  0.00    +0.000 A 
ENDBRANCH  17  18
BRANCH  17  29
ATOM     29  N   UNL     1       1.381   5.180  20.546  0.00  0.00    +0.000 NA
ATOM     30  H   UNL     1       1.406   5.497  21.520  0.00  0.00    +0.000 HD
ATOM     31  H   UNL     1       1.827   4.269  20.537  0.00  0.00    +0.000 HD
ENDBRANCH  17  29
ENDBRANCH   1  17
TORSDOF 4
ENDMDL
MODEL 2
REMARK VINA RESULT:      -8.1      2.185      2.785
REMARK  Name = 
REMARK  4 active torsions:
REMARK  status: ('A' for Active; 'I' for Inactive)
REMARK    1  A    between atoms: N_1  and  C_2
REMARK    2  A    between atoms: C_2  and  C_3
REMARK    3  A    between atoms: C_2  and  C_18
REMARK    4  A    between atoms: C_3  and  C_4
REMARK                            x       y       z     vdW  Elec       q    Type
REMARK                         _______ _______ _______ _____ _____    ______ ____
ROOT
ATOM      1  C   UNL     1       2.240   8.396  19.534  0.00  0.00    +0.000 C 
ENDROOT
BRANCH   1   2
ATOM      2  C   UNL     1       1.221   9.408  18.994  0.00  0.00    +0.000 C 
ATOM      3  O   UNL     1       1.358   9.901  17.870  0.00  0.00    +0.000 OA
ATOM      4  N   UNL     1       0.137   9.712  19.790  0.00  0.00    +0.000 N 
ATOM      5  C   UNL     1      -0.071   9.306  21.168  0.00  0.00    +0.000 C 
ATOM      6  C   UNL     1      -0.127  10.368  22.257  0.00  0.00    +0.000 C 
ATOM      7  O   UNL     1       0.156  10.050  23.424  0.00  0.00    +0.000 OA
ATOM      8  N   UNL     1      -0.638  11.618  22.088  0.00  0.00    +0.000 N 
ATOM      9  C   UNL     1      -0.700  12.440  20.949  0.00  0.00    +0.000 A 
ATOM     10  C   UNL     1      -0.696  13.815  21.215  0.00  0.00    +0.000 A 
ATOM     11  C   UNL     1      -0.557  14.754  20.188  0.00  0.00    +0.000 A 
ATOM     12  C   UNL     1      -0.454  14.320  18.879  0.00  0.00    +0.000 A 
ATOM     13  C   UNL     1      -0.538  12.959  18.593  0.00  0.00    +0.000 A 
ATOM     14  C   UNL     1      -0.689  12.002  19.622  0.00  0.00    +0.000 A 
ATOM     15  C   UNL     1      -0.901  10.570  19.243  0.00  0.00    +0.000 C 
ATOM     16  H   UNL     1      -0.663  12.104  22.976  0.00  0.00    +0.000 HD
ENDBRANCH   1   2
BRANCH   1  17
ATOM     17  C   UNL     1       1.761   6.930  19.417  0.00  0.00    +0.000 C 
BRANCH  17  18
ATOM     18  C   UNL     1       2.350   6.161  18.205  0.00  0.00    +0.000 C 
ATOM     19  C   UNL     1       3.863   6.497  18.027  0.00  0.00    +0.000 C 
ATOM     20  C   UNL     1       4.366   5.492  17.000  0.00  0.00    +0.000 C 
ATOM     21  C   UNL     1       3.670   4.280  17.544  0.00  0.00    +0.000 A 
ATOM     22  C   UNL     1       4.127   2.977  17.497  0.00  0.00    +0.000 A 
ATOM     23  C   UNL     1       3.379   2.008  18.136  0.00  0.00    +0.000 A 
ATOM     24  F   UNL     1       3.826   0.748  18.193  0.00  0.00    +0.000 F 
ATOM     25  C   UNL     1       2.150   2.338  18.748  0.00  0.00    +0.000 A 
ATOM     26  F   UNL     1       1.432   1.389  19.342  0.00  0.00    +0.000 F 
ATOM     27  C   UNL     1       1.689   3.661  18.780  0.00  0.00    +0.000 A 
ATOM     28  C   UNL     1       2.482   4.645  18.217  0.00  0.00    +0.000 A 
ENDBRANCH  17  18
BRANCH  17  29
ATOM     29  N   UNL     1       2.165   6.183  20.635  0.00  0.00    +0.000 NA
ATOM     30  H   UNL     1       1.376   6.199  21.288  0.00  0.00    +0.000 HD
ATOM     31  H   UNL     1       2.929   6.654  21.107  0.00  0.00    +0.000 HD
ENDBRANCH  17  29
ENDBRANCH   1  17
TORSDOF 4
ENDMDL
MODEL 3
REMARK VINA RESULT:      -7.9      2.997      4.237
REMARK  Name = 
REMARK  4 active torsions:
REMARK  status: ('A' for Active; 'I' for Inactive)
REMARK    1  A    between atoms: N_1  and  C_2
REMARK    2  A    between atoms: C_2  and  C_3
REMARK    3  A    between atoms: C_2  and  C_18
REMARK    4  A    between atoms: C_3  and  C_4
REMARK                            x       y       z     vdW  Elec       q    Type
REMARK                         _______ _______ _______ _____ _____    ______ ____
ROOT
ATOM      1  C   UNL     1       0.738   8.600  19.142  0.00  0.00    +0.000 C 
ENDROOT
BRANCH   1   2
ATOM      2  C   UNL     1       0.572   9.645  20.254  0.00  0.00    +0.000 C 
ATOM      3  O   UNL     1       0.815   9.357  21.431  0.00  0.00    +0.000 OA
ATOM      4  N   UNL     1       0.184  10.916  19.886  0.00  0.00    +0.000 N 
ATOM      5  C   UNL     1      -0.252  11.345  18.570  0.00  0.00    +0.000 C 
ATOM      6  C   UNL     1      -1.680  11.839  18.382  0.00  0.00    +0.000 C 
ATOM      7  O   UNL     1      -2.199  11.767  17.255  0.00  0.00    +0.000 OA
ATOM      8  N   UNL     1      -2.387  12.523  19.322  0.00  0.00    +0.000 N 
ATOM      9  C   UNL     1      -2.330  12.484  20.726  0.00  0.00    +0.000 A 
ATOM     10  C   UNL     1      -3.533  12.796  21.372  0.00  0.00    +0.000 A 
ATOM     11  C   UNL     1      -3.688  12.611  22.750  0.00  0.00    +0.000 A 
ATOM     12  C   UNL     1      -2.623  12.140  23.497  0.00  0.00    +0.000 A 
ATOM     13  C   UNL     1      -1.396  11.903  22.879  0.00  0.00    +0.000 A 
ATOM     14  C   UNL     1      -1.226  12.097  21.490  0.00  0.00    +0.000 A 
ATOM     15  C   UNL     1       0.145  11.948  20.908  0.00  0.00    +0.000 C 
ATOM     16  H   UNL     1      -3.267  12.835  18.931  0.00  0.00    +0.000 HD
ENDBRANCH   1   2
BRANCH   1  17
ATOM     17  C   UNL     1       2.207   8.415  18.697  0.00  0.00    +0.000 C 
BRANCH  17  18
ATOM     18  C   UNL     1       2.510   7.036  18.052  0.00  0.00    +0.000 C 
ATOM     19  C   UNL     1       3.951   7.017  17.455  0.00  0.00    +0.000 C 
ATOM     20  C   UNL     1       4.208   5.557  17.108  0.00  0.00    +0.000 C 
ATOM     21  C   UNL     1       3.635   4.948  18.353  0.00  0.00    +0.000 A 
ATOM     22  C   UNL     1       4.057   3.787  18.972  0.00  0.00    +0.000 A 
ATOM     23  C   UNL     1       3.456   3.438  20.165  0.00  0.00    +0.000 A 
ATOM     24  F   UNL     1       3.891   2.370  20.845  0.00  0.00    +0.000 F 
ATOM     25  C   UNL     1       2.392   4.208  20.685  0.00  0.00    +0.000 A 
ATOM     26  F   UNL     1       1.811   3.845  21.826  0.00  0.00    +0.000 F 
ATOM     27  C   UNL     1       1.964   5.377  20.043  0.00  0.00    +0.000 A 
ATOM     28  C   UNL     1       2.625   5.776  18.896  0.00  0.00    +0.000 A 
ENDBRANCH  17  18
BRANCH  17  29
ATOM     29  N   UNL     1       2.547   9.445  17.684  0.00  0.00    +0.000 NA
ATOM     30  H   UNL     1       3.259   9.051  17.062  0.00  0.00    +0.000 HD
ATOM     31  H   UNL     1       2.975  10.253  18.124  0.00  0.00    +0.000 HD
ENDBRANCH  17  29
ENDBRANCH   1  17
TORSDOF 4
ENDMDL
MODEL 4
REMARK VINA RESULT:      -7.9      1.388      1.435
REMARK  Name = 
REMARK  4 active torsions:
REMARK  status: ('A' for Active; 'I' for Inactive)
REMARK    1  A    between atoms: N_1  and  C_2
REMARK    2  A    between atoms: C_2  and  C_3
REMARK    3  A    between atoms: C_2  and  C_18
REMARK    4  A    between atoms: C_3  and  C_4
REMARK                            x       y       z     vdW  Elec       q    Type
REMARK                         _______ _______ _______ _____ _____    ______ ____
ROOT
ATOM      1  C   UNL     1       2.577   6.907  19.853  0.00  0.00    +0.000 C 
ENDROOT
BRANCH   1   2
ATOM      2  C   UNL     1       2.127   8.137  19.053  0.00  0.00    +0.000 C 
ATOM      3  O   UNL     1       2.620   8.384  17.948  0.00  0.00    +0.000 OA
ATOM      4  N   UNL     1       1.132   8.923  19.594  0.00  0.00    +0.000 N 
ATOM      5  C   UNL     1       0.567   8.817  20.927  0.00  0.00    +0.000 C 
ATOM      6  C   UNL     1       0.751   9.966  21.908  0.00  0.00    +0.000 C 
ATOM      7  O   UNL     1       0.701   9.731  23.127  0.00  0.00    +0.000 OA
ATOM      8  N   UNL     1       0.796  11.280  21.555  0.00  0.00    +0.000 N 
ATOM      9  C   UNL     1       1.237  11.901  20.374  0.00  0.00    +0.000 A 
ATOM     10  C   UNL     1       1.729  13.202  20.541  0.00  0.00    +0.000 A 
ATOM     11  C   UNL     1       2.379  13.873  19.501  0.00  0.00    +0.000 A 
ATOM     12  C   UNL     1       2.515  13.254  18.272  0.00  0.00    +0.000 A 
ATOM     13  C   UNL     1       1.959  11.992  18.068  0.00  0.00    +0.000 A 
ATOM     14  C   UNL     1       1.290  11.310  19.108  0.00  0.00    +0.000 A 
ATOM     15  C   UNL     1       0.605  10.016  18.793  0.00  0.00    +0.000 C 
ATOM     16  H   UNL     1       0.819  11.859  22.385  0.00  0.00    +0.000 HD
ENDBRANCH   1   2
BRANCH   1  17
ATOM     17  C   UNL     1       1.920   5.593  19.370  0.00  0.00    +0.000 C 
BRANCH  17  18
ATOM     18  C   UNL     1       2.926   4.518  18.882  0.00  0.00    +0.000 C 
ATOM     19  C   UNL     1       2.240   3.548  17.870  0.00  0.00    +0.000 C 
ATOM     20  C   UNL     1       3.382   2.734  17.278  0.00  0.00    +0.000 C 
ATOM     21  C   UNL     1       4.354   3.860  17.080  0.00  0.00    +0.000 A 
ATOM     22  C   UNL     1       5.301   3.965  16.080  0.00  0.00    +0.000 A 
ATOM     23  C   UNL     1       6.045   5.126  16.016  0.00  0.00    +0.000 A 
ATOM     24  F   UNL     1       6.911   5.310  15.013  0.00  0.00    +0.000 F 
ATOM     25  C   UNL     1       5.887   6.134  16.994  0.00  0.00    +0.000 A 
ATOM     26  F   UNL     1       6.627   7.237  16.928  0.00  0.00    +0.000 F 
ATOM     27  C   UNL     1       4.932   6.012  18.011  0.00  0.00    +0.000 A 
ATOM     28  C   UNL     1       4.126   4.888  18.023  0.00  0.00    +0.000 A 
ENDBRANCH  17  18
BRANCH  17  29
ATOM     29  N   UNL     1       1.156   4.988  20.489  0.00  0.00    +0.000 NA
ATOM     30  H   UNL     1       1.585   4.083  20.709  0.00  0.00    +0.000 HD
ATOM     31  H   UNL     1       0.204   4.783  20.204  0.00  0.00    +0.000 HD
ENDBRANCH  17  29
ENDBRANCH   1  17
TORSDOF 4
ENDMDL
MODEL 5
REMARK VINA RESULT:      -7.8      2.746      3.869
REMARK  Name = 
REMARK  4 active torsions:
REMARK  status: ('A' for Active; 'I' for Inactive)
REMARK    1  A    between atoms: N_1  and  C_2
REMARK    2  A    between atoms: C_2  and  C_3
REMARK    3  A    between atoms: C_2  and  C_18
REMARK    4  A    between atoms: C_3  and  C_4
REMARK                            x       y       z     vdW  Elec       q    Type
REMARK                         _______ _______ _______ _____ _____    ______ ____
ROOT
ATOM      1  C   UNL     1       1.251   8.893  18.971  0.00  0.00    +0.000 C 
ENDROOT
BRANCH   1   2
ATOM      2  C   UNL     1       0.948   9.697  20.243  0.00  0.00    +0.000 C 
ATOM      3  O   UNL     1       0.928   9.145  21.348  0.00  0.00    +0.000 OA
ATOM      4  N   UNL     1       0.741  11.054  20.109  0.00  0.00    +0.000 N 
ATOM      5  C   UNL     1       0.610  11.795  18.867  0.00  0.00    +0.000 C 
ATOM      6  C   UNL     1      -0.709  12.483  18.546  0.00  0.00    +0.000 C 
ATOM      7  O   UNL     1      -0.997  12.709  17.358  0.00  0.00    +0.000 OA
ATOM      8  N   UNL     1      -1.535  13.037  19.475  0.00  0.00    +0.000 N 
ATOM      9  C   UNL     1      -1.762  12.702  20.821  0.00  0.00    +0.000 A 
ATOM     10  C   UNL     1      -3.042  13.014  21.297  0.00  0.00    +0.000 A 
ATOM     11  C   UNL     1      -3.482  12.568  22.547  0.00  0.00    +0.000 A 
ATOM     12  C   UNL     1      -2.626  11.829  23.345  0.00  0.00    +0.000 A 
ATOM     13  C   UNL     1      -1.324  11.581  22.918  0.00  0.00    +0.000 A 
ATOM     14  C   UNL     1      -0.865  12.037  21.662  0.00  0.00    +0.000 A 
ATOM     15  C   UNL     1       0.579  11.850  21.314  0.00  0.00    +0.000 C 
ATOM     16  H   UNL     1      -2.292  13.526  19.015  0.00  0.00    +0.000 HD
ENDBRANCH   1   2
BRANCH   1  17
ATOM     17  C   UNL     1       1.628   7.421  19.259  0.00  0.00    +0.000 C 
BRANCH  17  18
ATOM     18  C   UNL     1       2.296   6.688  18.066  0.00  0.00    +0.000 C 
ATOM     19  C   UNL     1       3.833   6.956  18.052  0.00  0.00    +0.000 C 
ATOM     20  C   UNL     1       4.387   5.981  17.022  0.00  0.00    +0.000 C 
ATOM     21  C   UNL     1       3.587   4.780  17.427  0.00  0.00    +0.000 A 
ATOM     22  C   UNL     1       3.986   3.459  17.349  0.00  0.00    +0.000 A 
ATOM     23  C   UNL     1       3.136   2.498  17.857  0.00  0.00    +0.000 A 
ATOM     24  F   UNL     1       3.517   1.215  17.883  0.00  0.00    +0.000 F 
ATOM     25  C   UNL     1       1.869   2.857  18.367  0.00  0.00    +0.000 A 
ATOM     26  F   UNL     1       1.054   1.916  18.835  0.00  0.00    +0.000 F 
ATOM     27  C   UNL     1       1.468   4.198  18.431  0.00  0.00    +0.000 A 
ATOM     28  C   UNL     1       2.356   5.169  18.004  0.00  0.00    +0.000 A 
ENDBRANCH  17  18
BRANCH  17  29
ATOM     29  N   UNL     1       2.593   7.373  20.386  0.00  0.00    +0.000 NA
ATOM     30  H   UNL     1       2.097   7.015  21.209  0.00  0.00    +0.000 HD
ATOM     31  H   UNL     1       2.904   8.307  20.632  0.00  0.00    +0.000 HD
ENDBRANCH  17  29
ENDBRANCH   1  17
TORSDOF 4
ENDMDL
MODEL 6
REMARK VINA RESULT:      -7.8      3.758      8.668
REMARK  Name = 
REMARK  4 active torsions:
REMARK  status: ('A' for Active; 'I' for Inactive)
REMARK    1  A    between atoms: N_1  and  C_2
REMARK    2  A    between atoms: C_2  and  C_3
REMARK    3  A    between atoms: C_2  and  C_18
REMARK    4  A    between atoms: C_3  and  C_4
REMARK                            x       y       z     vdW  Elec       q    Type
REMARK                         _______ _______ _______ _____ _____    ______ ____
ROOT
ATOM      1  C   UNL     1       1.630   8.088  18.364  0.00  0.00    +0.000 C 
ENDROOT
BRANCH   1   2
ATOM      2  C   UNL     1       3.008   7.850  17.731  0.00  0.00    +0.000 C 
ATOM      3  O   UNL     1       3.373   8.509  16.752  0.00  0.00    +0.000 OA
ATOM      4  N   UNL     1       3.828   6.910  18.318  0.00  0.00    +0.000 N 
ATOM      5  C   UNL     1       3.472   5.987  19.380  0.00  0.00    +0.000 C 
ATOM      6  C   UNL     1       3.480   4.490  19.101  0.00  0.00    +0.000 C 
ATOM      7  O   UNL     1       2.769   3.745  19.795  0.00  0.00    +0.000 OA
ATOM      8  N   UNL     1       4.346   3.870  18.255  0.00  0.00    +0.000 N 
ATOM      9  C   UNL     1       4.989   4.333  17.094  0.00  0.00    +0.000 A 
ATOM     10  C   UNL     1       5.287   3.341  16.151  0.00  0.00    +0.000 A 
ATOM     11  C   UNL     1       5.746   3.668  14.871  0.00  0.00    +0.000 A 
ATOM     12  C   UNL     1       5.940   4.997  14.537  0.00  0.00    +0.000 A 
ATOM     13  C   UNL     1       5.724   5.988  15.492  0.00  0.00    +0.000 A 
ATOM     14  C   UNL     1       5.272   5.668  16.791  0.00  0.00    +0.000 A 
ATOM     15  C   UNL     1       5.181   6.762  17.809  0.00  0.00    +0.000 C 
ATOM     16  H   UNL     1       4.228   2.866  18.315  0.00  0.00    +0.000 HD
ENDBRANCH   1   2
BRANCH   1  17
ATOM     17  C   UNL     1       0.966   9.405  17.897  0.00  0.00    +0.000 C 
BRANCH  17  18
ATOM     18  C   UNL     1      -0.299   9.803  18.702  0.00  0.00    +0.000 C 
ATOM     19  C   UNL     1      -0.062  11.145  19.463  0.00  0.00    +0.000 C 
ATOM     20  C   UNL     1      -1.438  11.548  19.976  0.00  0.00    +0.000 C 
ATOM     21  C   UNL     1      -2.219  11.227  18.737  0.00  0.00    +0.000 A 
ATOM     22  C   UNL     1      -3.352  11.877  18.286  0.00  0.00    +0.000 A 
ATOM     23  C   UNL     1      -3.878  11.487  17.070  0.00  0.00    +0.000 A 
ATOM     24  F   UNL     1      -4.921  12.146  16.551  0.00  0.00    +0.000 F 
ATOM     25  C   UNL     1      -3.313  10.407  16.357  0.00  0.00    +0.000 A 
ATOM     26  F   UNL     1      -3.844  10.032  15.197  0.00  0.00    +0.000 F 
ATOM     27  C   UNL     1      -2.171   9.746  16.830  0.00  0.00    +0.000 A 
ATOM     28  C   UNL     1      -1.592  10.194  18.003  0.00  0.00    +0.000 A 
ENDBRANCH  17  18
BRANCH  17  29
ATOM     29  N   UNL     1       1.935  10.520  18.042  0.00  0.00    +0.000 NA
ATOM     30  H   UNL     1       1.608  11.123  18.804  0.00  0.00    +0.000 HD
ATOM     31  H   UNL     1       1.940  11.101  17.210  0.00  0.00    +0.000 HD
ENDBRANCH  17  29
ENDBRANCH   1  17
TORSDOF 4
ENDMDL
MODEL 7
REMARK VINA RESULT:      -7.8      2.010      2.934
REMARK  Name = 
REMARK  4 active torsions:
REMARK  status: ('A' for Active; 'I' for Inactive)
REMARK    1  A    between atoms: N_1  and  C_2
REMARK    2  A    between atoms: C_2  and  C_3
REMARK    3  A    between atoms: C_2  and  C_18
REMARK    4  A    between atoms: C_3  and  C_4
REMARK                            x       y       z     vdW  Elec       q    Type
REMARK                         _______ _______ _______ _____ _____    ______ ____
ROOT
ATOM      1  C   UNL     1       1.196   7.596  19.838  0.00  0.00    +0.000 C 
ENDROOT
BRANCH   1   2
ATOM      2  C   UNL     1       1.081   8.916  20.613  0.00  0.00    +0.000 C 
ATOM      3  O   UNL     1       1.346   8.963  21.819  0.00  0.00    +0.000 OA
ATOM      4  N   UNL     1       0.713  10.042  19.908  0.00  0.00    +0.000 N 
ATOM      5  C   UNL     1       0.254  10.096  18.532  0.00  0.00    +0.000 C 
ATOM      6  C   UNL     1      -1.166  10.557  18.237  0.00  0.00    +0.000 C 
ATOM      7  O   UNL     1      -1.714  10.186  17.185  0.00  0.00    +0.000 OA
ATOM      8  N   UNL     1      -1.835  11.498  18.958  0.00  0.00    +0.000 N 
ATOM      9  C   UNL     1      -1.744  11.854  20.315  0.00  0.00    +0.000 A 
ATOM     10  C   UNL     1      -2.924  12.369  20.868  0.00  0.00    +0.000 A 
ATOM     11  C   UNL     1      -3.049  12.584  22.244  0.00  0.00    +0.000 A 
ATOM     12  C   UNL     1      -1.977  12.312  23.075  0.00  0.00    +0.000 A 
ATOM     13  C   UNL     1      -0.772  11.876  22.528  0.00  0.00    +0.000 A 
ATOM     14  C   UNL     1      -0.631  11.667  21.138  0.00  0.00    +0.000 A 
ATOM     15  C   UNL     1       0.722  11.321  20.598  0.00  0.00    +0.000 C 
ATOM     16  H   UNL     1      -2.717  11.713  18.510  0.00  0.00    +0.000 HD
ENDBRANCH   1   2
BRANCH   1  17
ATOM     17  C   UNL     1       2.585   7.392  19.189  0.00  0.00    +0.000 C 
BRANCH  17  18
ATOM     18  C   UNL     1       2.987   5.906  18.996  0.00  0.00    +0.000 C 
ATOM     19  C   UNL     1       1.896   5.145  18.181  0.00  0.00    +0.000 C 
ATOM     20  C   UNL     1       2.531   3.805  17.838  0.00  0.00    +0.000 C 
ATOM     21  C   UNL     1       3.889   4.314  17.456  0.00  0.00    +0.000 A 
ATOM     22  C   UNL     1       4.735   3.773  16.507  0.00  0.00    +0.000 A 
ATOM     23  C   UNL     1       5.911   4.443  16.236  0.00  0.00    +0.000 A 
ATOM     24  F   UNL     1       6.721   4.005  15.264  0.00  0.00    +0.000 F 
ATOM     25  C   UNL     1       6.263   5.601  16.965  0.00  0.00    +0.000 A 
ATOM     26  F   UNL     1       7.409   6.222  16.704  0.00  0.00    +0.000 F 
ATOM     27  C   UNL     1       5.402   6.135  17.933  0.00  0.00    +0.000 A 
ATOM     28  C   UNL     1       4.184   5.514  18.143  0.00  0.00    +0.000 A 
ENDBRANCH  17  18
BRANCH  17  29
ATOM     29  N   UNL     1       2.593   8.015  17.842  0.00  0.00    +0.000 NA
ATOM     30  H   UNL     1       1.743   8.581  17.753  0.00  0.00    +0.000 HD
ATOM     31  H   UNL     1       2.533   7.307  17.118  0.00  0.00    +0.000 HD
ENDBRANCH  17  29
ENDBRANCH   1  17
TORSDOF 4
ENDMDL
MODEL 8
REMARK VINA RESULT:      -7.7      2.802      4.298
REMARK  Name = 
REMARK  4 active torsions:
REMARK  status: ('A' for Active; 'I' for Inactive)
REMARK    1  A    between atoms: N_1  and  C_2
REMARK    2  A    between atoms: C_2  and  C_3
REMARK    3  A    between atoms: C_2  and  C_18
REMARK    4  A    between atoms: C_3  and  C_4
REMARK                            x       y       z     vdW  Elec       q    Type
REMARK                         _______ _______ _______ _____ _____    ______ ____
ROOT
ATOM      1  C   UNL     1      -0.394   8.557  21.605  0.00  0.00    +0.000 C 
ENDROOT
BRANCH   1   2
ATOM      2  C   UNL     1      -0.218   9.998  22.102  0.00  0.00    +0.000 C 
ATOM      3  O   UNL     1      -0.001  10.231  23.296  0.00  0.00    +0.000 OA
ATOM      4  N   UNL     1      -0.274  11.010  21.167  0.00  0.00    +0.000 N 
ATOM      5  C   UNL     1      -0.649  10.883  19.770  0.00  0.00    +0.000 C 
ATOM      6  C   UNL     1      -1.902  11.586  19.268  0.00  0.00    +0.000 C 
ATOM      7  O   UNL     1      -2.479  11.142  18.261  0.00  0.00    +0.000 OA
ATOM      8  N   UNL     1      -2.353  12.782  19.735  0.00  0.00    +0.000 N 
ATOM      9  C   UNL     1      -2.236  13.378  21.002  0.00  0.00    +0.000 A 
ATOM     10  C   UNL     1      -3.278  14.252  21.340  0.00  0.00    +0.000 A 
ATOM     11  C   UNL     1      -3.404  14.767  22.634  0.00  0.00    +0.000 A 
ATOM     12  C   UNL     1      -2.465  14.434  23.593  0.00  0.00    +0.000 A 
ATOM     13  C   UNL     1      -1.379  13.632  23.248  0.00  0.00    +0.000 A 
ATOM     14  C   UNL     1      -1.235  13.115  21.942  0.00  0.00    +0.000 A 
ATOM     15  C   UNL     1       0.015  12.366  21.600  0.00  0.00    +0.000 C 
ATOM     16  H   UNL     1      -3.138  13.096  19.178  0.00  0.00    +0.000 HD
ENDBRANCH   1   2
BRANCH   1  17
ATOM     17  C   UNL     1       0.931   7.759  21.576  0.00  0.00    +0.000 C 
BRANCH  17  18
ATOM     18  C   UNL     1       1.214   7.041  20.230  0.00  0.00    +0.000 C 
ATOM     19  C   UNL     1       2.252   7.846  19.389  0.00  0.00    +0.000 C 
ATOM     20  C   UNL     1       2.635   6.914  18.248  0.00  0.00    +0.000 C 
ATOM     21  C   UNL     1       2.762   5.653  19.050  0.00  0.00    +0.000 A 
ATOM     22  C   UNL     1       3.628   4.604  18.804  0.00  0.00    +0.000 A 
ATOM     23  C   UNL     1       3.656   3.566  19.714  0.00  0.00    +0.000 A 
ATOM     24  F   UNL     1       4.540   2.571  19.566  0.00  0.00    +0.000 F 
ATOM     25  C   UNL     1       2.769   3.550  20.813  0.00  0.00    +0.000 A 
ATOM     26  F   UNL     1       2.796   2.531  21.668  0.00  0.00    +0.000 F 
ATOM     27  C   UNL     1       1.887   4.612  21.046  0.00  0.00    +0.000 A 
ATOM     28  C   UNL     1       1.921   5.694  20.185  0.00  0.00    +0.000 A 
ENDBRANCH  17  18
BRANCH  17  29
ATOM     29  N   UNL     1       2.066   8.685  21.814  0.00  0.00    +0.000 NA
ATOM     30  H   UNL     1       2.842   8.138  22.198  0.00  0.00    +0.000 HD
ATOM     31  H   UNL     1       1.828   9.369  22.525  0.00  0.00    +0.000 HD
ENDBRANCH  17  29
ENDBRANCH   1  17
TORSDOF 4
ENDMDL
MODEL 9
REMARK VINA RESULT:      -7.7      2.710      4.315
REMARK  Name = 
REMARK  4 active torsions:
REMARK  status: ('A' for Active; 'I' for Inactive)
REMARK    1  A    between atoms: N_1  and  C_2
REMARK    2  A    between atoms: C_2  and  C_3
REMARK    3  A    between atoms: C_2  and  C_18
REMARK    4  A    between atoms: C_3  and  C_4
REMARK                            x       y       z     vdW  Elec       q    Type
REMARK                         _______ _______ _______ _____ _____    ______ ____
ROOT
ATOM      1  C   UNL     1       1.975   4.083  18.298  0.00  0.00    +0.000 C 
ENDROOT
BRANCH   1   2
ATOM      2  C   UNL     1       1.816   4.974  19.538  0.00  0.00    +0.000 C 
ATOM      3  O   UNL     1       1.144   4.596  20.503  0.00  0.00    +0.000 OA
ATOM      4  N   UNL     1       2.478   6.184  19.546  0.00  0.00    +0.000 N 
ATOM      5  C   UNL     1       3.185   6.796  18.437  0.00  0.00    +0.000 C 
ATOM      6  C   UNL     1       2.678   8.112  17.864  0.00  0.00    +0.000 C 
ATOM      7  O   UNL     1       2.954   8.403  16.688  0.00  0.00    +0.000 OA
ATOM      8  N   UNL     1       2.083   9.092  18.598  0.00  0.00    +0.000 N 
ATOM      9  C   UNL     1       1.304   9.023  19.766  0.00  0.00    +0.000 A 
ATOM     10  C   UNL     1       0.365  10.052  19.909  0.00  0.00    +0.000 A 
ATOM     11  C   UNL     1      -0.609  10.015  20.911  0.00  0.00    +0.000 A 
ATOM     12  C   UNL     1      -0.629   8.955  21.801  0.00  0.00    +0.000 A 
ATOM     13  C   UNL     1       0.350   7.967  21.720  0.00  0.00    +0.000 A 
ATOM     14  C   UNL     1       1.345   8.001  20.718  0.00  0.00    +0.000 A 
ATOM     15  C   UNL     1       2.441   6.982  20.761  0.00  0.00    +0.000 C 
ATOM     16  H   UNL     1       1.930   9.909  18.021  0.00  0.00    +0.000 HD
ENDBRANCH   1   2
BRANCH   1  17
ATOM     17  C   UNL     1       3.101   3.034  18.446  0.00  0.00    +0.000 C 
BRANCH  17  18
ATOM     18  C   UNL     1       4.311   3.257  17.501  0.00  0.00    +0.000 C 
ATOM     19  C   UNL     1       3.859   3.987  16.198  0.00  0.00    +0.000 C 
ATOM     20  C   UNL     1       5.155   4.378  15.502  0.00  0.00    +0.000 C 
ATOM     21  C   UNL     1       5.898   4.863  16.712  0.00  0.00    +0.000 A 
ATOM     22  C   UNL     1       6.840   5.873  16.751  0.00  0.00    +0.000 A 
ATOM     23  C   UNL     1       7.348   6.233  17.983  0.00  0.00    +0.000 A 
ATOM     24  F   UNL     1       8.195   7.264  18.081  0.00  0.00    +0.000 F 
ATOM     25  C   UNL     1       6.967   5.532  19.149  0.00  0.00    +0.000 A 
ATOM     26  F   UNL     1       7.482   5.880  20.325  0.00  0.00    +0.000 F 
ATOM     27  C   UNL     1       6.020   4.501  19.097  0.00  0.00    +0.000 A 
ATOM     28  C   UNL     1       5.445   4.200  17.875  0.00  0.00    +0.000 A 
ENDBRANCH  17  18
BRANCH  17  29
ATOM     29  N   UNL     1       3.629   3.072  19.833  0.00  0.00    +0.000 NA
ATOM     30  H   UNL     1       3.862   2.113  20.107  0.00  0.00    +0.000 HD
ATOM     31  H   UNL     1       2.912   3.381  20.481  0.00  0.00    +0.000 HD
ENDBRANCH  17  29
ENDBRANCH   1  17
TORSDOF 4
ENDMDL
