MODEL 1
REMARK VINA RESULT:      -6.1      0.000      0.000
REMARK  Name = 
REMARK  2 active torsions:
REMARK  status: ('A' for Active; 'I' for Inactive)
REMARK    1  A    between atoms: C_1  and  O_2
REMARK    2  A    between atoms: O_2  and  C_3
REMARK                            x       y       z     vdW  Elec       q    Type
REMARK                         _______ _______ _______ _____ _____    ______ ____
ROOT
ATOM      1  C   UNL     1       1.169   9.604  19.766  0.00  0.00    +0.000 A 
ATOM      2  C   UNL     1       1.484  10.549  18.791  0.00  0.00    +0.000 A 
ATOM      3  C   UNL     1       0.502  11.454  18.393  0.00  0.00    +0.000 A 
ATOM      4  C   UNL     1      -0.817  11.255  18.823  0.00  0.00    +0.000 A 
ATOM      5  C   UNL     1      -1.035  10.321  19.838  0.00  0.00    +0.000 A 
ATOM      6  C   UNL     1       0.049   9.838  20.557  0.00  0.00    +0.000 A 
ATOM      7  O   UNL     1       0.416  10.575  21.765  0.00  0.00    +0.000 OA
ATOM      8  C   UNL     1      -0.451  11.550  22.227  0.00  0.00    +0.000 A 
ATOM      9  C   UNL     1      -1.536  11.207  23.028  0.00  0.00    +0.000 A 
ATOM     10  C   UNL     1      -2.590  12.110  23.208  0.00  0.00    +0.000 A 
ATOM     11  C   UNL     1      -2.581  13.317  22.507  0.00  0.00    +0.000 A 
ATOM     12  C   UNL     1      -1.333  13.802  22.048  0.00  0.00    +0.000 A 
ATOM     13  C   UNL     1      -0.233  12.883  21.902  0.00  0.00    +0.000 A 
ATOM     14  C   UNL     1      -3.773  13.676  21.622  0.00  0.00    +0.000 C 
ATOM     15  C   UNL     1      -5.220  13.159  21.817  0.00  0.00    +0.000 C 
ATOM     16  C   UNL     1      -6.101  12.819  20.551  0.00  0.00    +0.000 C 
ATOM     17  O   UNL     1      -7.266  13.247  20.526  0.00  0.00    +0.000 OA
ATOM     18  C   UNL     1      -5.668  11.840  19.428  0.00  0.00    +0.000 C 
ATOM     19  C   UNL     1      -4.184  11.918  19.211  0.00  0.00    +0.000 C 
ATOM     20  C   UNL     1      -3.333  11.486  18.034  0.00  0.00    +0.000 C 
ATOM     21  C   UNL     1      -1.923  12.117  18.278  0.00  0.00    +0.000 C 
ENDROOT
BRANCH   1  23
ATOM     22  C   UNL     1       2.252   8.115  18.227  0.00  0.00    +0.000 C 
ATOM     23  O   UNL     1       1.750   8.378  19.539  0.00  0.00    +0.000 OA
ENDBRANCH   1  23
TORSDOF 1
ENDMDL
MODEL 2
REMARK VINA RESULT:      -6.0      1.028      1.129
REMARK  Name = 
REMARK  2 active torsions:
REMARK  status: ('A' for Active; 'I' for Inactive)
REMARK    1  A    between atoms: C_1  and  O_2
REMARK    2  A    between atoms: O_2  and  C_3
REMARK                            x       y       z     vdW  Elec       q    Type
REMARK                         _______ _______ _______ _____ _____    ______ ____
ROOT
ATOM      1  C   UNL     1       1.361   8.680  20.201  0.00  0.00    +0.000 A 
ATOM      2  C   UNL     1       1.824   9.246  19.013  0.00  0.00    +0.000 A 
ATOM      3  C   UNL     1       0.994  10.128  18.324  0.00  0.00    +0.000 A 
ATOM      4  C   UNL     1      -0.343  10.255  18.725  0.00  0.00    +0.000 A 
ATOM      5  C   UNL     1      -0.708   9.697  19.953  0.00  0.00    +0.000 A 
ATOM      6  C   UNL     1       0.285   9.293  20.833  0.00  0.00    +0.000 A 
ATOM      7  O   UNL     1       0.752  10.288  21.798  0.00  0.00    +0.000 OA
ATOM      8  C   UNL     1       0.042  11.470  21.917  0.00  0.00    +0.000 A 
ATOM      9  C   UNL     1      -1.089  11.534  22.727  0.00  0.00    +0.000 A 
ATOM     10  C   UNL     1      -1.993  12.593  22.587  0.00  0.00    +0.000 A 
ATOM     11  C   UNL     1      -1.794  13.530  21.571  0.00  0.00    +0.000 A 
ATOM     12  C   UNL     1      -0.484  13.675  21.056  0.00  0.00    +0.000 A 
ATOM     13  C   UNL     1       0.463  12.604  21.235  0.00  0.00    +0.000 A 
ATOM     14  C   UNL     1      -2.912  13.785  20.561  0.00  0.00    +0.000 C 
ATOM     15  C   UNL     1      -4.422  13.562  20.822  0.00  0.00    +0.000 C 
ATOM     16  C   UNL     1      -5.337  12.999  19.664  0.00  0.00    +0.000 C 
ATOM     17  O   UNL     1      -6.422  13.565  19.459  0.00  0.00    +0.000 OA
ATOM     18  C   UNL     1      -5.051  11.685  18.891  0.00  0.00    +0.000 C 
ATOM     19  C   UNL     1      -3.571  11.481  18.737  0.00  0.00    +0.000 C 
ATOM     20  C   UNL     1      -2.789  10.607  17.778  0.00  0.00    +0.000 C 
ATOM     21  C   UNL     1      -1.300  11.071  17.901  0.00  0.00    +0.000 C 
ENDROOT
BRANCH   1  23
ATOM     22  C   UNL     1       2.513   6.769  19.315  0.00  0.00    +0.000 C 
ATOM     23  O   UNL     1       1.749   7.370  20.364  0.00  0.00    +0.000 OA
ENDBRANCH   1  23
TORSDOF 1
ENDMDL
MODEL 3
REMARK VINA RESULT:      -5.7      1.215      1.328
REMARK  Name = 
REMARK  2 active torsions:
REMARK  status: ('A' for Active; 'I' for Inactive)
REMARK    1  A    between atoms: C_1  and  O_2
REMARK    2  A    between atoms: O_2  and  C_3
REMARK                            x       y       z     vdW  Elec       q    Type
REMARK                         _______ _______ _______ _____ _____    ______ ____
ROOT
ATOM      1  C   UNL     1       0.898  10.032  21.444  0.00  0.00    +0.000 A 
ATOM      2  C   UNL     1       1.479  10.853  20.479  0.00  0.00    +0.000 A 
ATOM      3  C   UNL     1       0.649  11.626  19.669  0.00  0.00    +0.000 A 
ATOM      4  C   UNL     1      -0.734  11.399  19.704  0.00  0.00    +0.000 A 
ATOM      5  C   UNL     1      -1.235  10.601  20.735  0.00  0.00    +0.000 A 
ATOM      6  C   UNL     1      -0.417  10.296  21.812  0.00  0.00    +0.000 A 
ATOM      7  O   UNL     1      -0.458  11.215  22.949  0.00  0.00    +0.000 OA
ATOM      8  C   UNL     1      -1.446  12.184  22.973  0.00  0.00    +0.000 A 
ATOM      9  C   UNL     1      -2.719  11.881  23.450  0.00  0.00    +0.000 A 
ATOM     10  C   UNL     1      -3.796  12.728  23.163  0.00  0.00    +0.000 A 
ATOM     11  C   UNL     1      -3.596  13.824  22.323  0.00  0.00    +0.000 A 
ATOM     12  C   UNL     1      -2.278  14.325  22.196  0.00  0.00    +0.000 A 
ATOM     13  C   UNL     1      -1.167  13.470  22.531  0.00  0.00    +0.000 A 
ATOM     14  C   UNL     1      -4.463  13.977  21.074  0.00  0.00    +0.000 C 
ATOM     15  C   UNL     1      -5.887  13.397  20.898  0.00  0.00    +0.000 C 
ATOM     16  C   UNL     1      -6.326  12.827  19.491  0.00  0.00    +0.000 C 
ATOM     17  O   UNL     1      -7.434  13.168  19.050  0.00  0.00    +0.000 OA
ATOM     18  C   UNL     1      -5.545  11.735  18.714  0.00  0.00    +0.000 C 
ATOM     19  C   UNL     1      -4.069  11.881  18.948  0.00  0.00    +0.000 C 
ATOM     20  C   UNL     1      -2.886  11.350  18.165  0.00  0.00    +0.000 C 
ATOM     21  C   UNL     1      -1.634  12.102  18.725  0.00  0.00    +0.000 C 
ENDROOT
BRANCH   1  23
ATOM     22  C   UNL     1       1.599   7.959  20.458  0.00  0.00    +0.000 C 
ATOM     23  O   UNL     1       1.547   8.827  21.592  0.00  0.00    +0.000 OA
ENDBRANCH   1  23
TORSDOF 1
ENDMDL
MODEL 4
REMARK VINA RESULT:      -5.7      2.324      7.347
REMARK  Name = 
REMARK  2 active torsions:
REMARK  status: ('A' for Active; 'I' for Inactive)
REMARK    1  A    between atoms: C_1  and  O_2
REMARK    2  A    between atoms: O_2  and  C_3
REMARK                            x       y       z     vdW  Elec       q    Type
REMARK                         _______ _______ _______ _____ _____    ______ ____
ROOT
ATOM      1  C   UNL     1      -7.333  14.406  22.305  0.00  0.00    +0.000 A 
ATOM      2  C   UNL     1      -6.825  15.620  21.845  0.00  0.00    +0.000 A 
ATOM      3  C   UNL     1      -5.653  15.613  21.091  0.00  0.00    +0.000 A 
ATOM      4  C   UNL     1      -4.914  14.426  20.999  0.00  0.00    +0.000 A 
ATOM      5  C   UNL     1      -5.520  13.247  21.442  0.00  0.00    +0.000 A 
ATOM      6  C   UNL     1      -6.884  13.242  21.691  0.00  0.00    +0.000 A 
ATOM      7  O   UNL     1      -7.754  12.880  20.573  0.00  0.00    +0.000 OA
ATOM      8  C   UNL     1      -7.171  12.365  19.429  0.00  0.00    +0.000 A 
ATOM      9  C   UNL     1      -6.862  11.011  19.343  0.00  0.00    +0.000 A 
ATOM     10  C   UNL     1      -5.979  10.553  18.359  0.00  0.00    +0.000 A 
ATOM     11  C   UNL     1      -5.346  11.478  17.527  0.00  0.00    +0.000 A 
ATOM     12  C   UNL     1      -5.960  12.743  17.362  0.00  0.00    +0.000 A 
ATOM     13  C   UNL     1      -6.903  13.200  18.351  0.00  0.00    +0.000 A 
ATOM     14  C   UNL     1      -3.820  11.490  17.447  0.00  0.00    +0.000 C 
ATOM     15  C   UNL     1      -2.900  10.277  17.727  0.00  0.00    +0.000 C 
ATOM     16  C   UNL     1      -1.520  10.501  18.463  0.00  0.00    +0.000 C 
ATOM     17  O   UNL     1      -0.515   9.951  17.986  0.00  0.00    +0.000 OA
ATOM     18  C   UNL     1      -1.371  11.212  19.834  0.00  0.00    +0.000 C 
ATOM     19  C   UNL     1      -2.389  12.307  19.968  0.00  0.00    +0.000 C 
ATOM     20  C   UNL     1      -2.434  13.507  20.892  0.00  0.00    +0.000 C 
ATOM     21  C   UNL     1      -3.566  14.431  20.332  0.00  0.00    +0.000 C 
ENDROOT
BRANCH   1  23
ATOM     22  C   UNL     1      -7.632  13.411  24.469  0.00  0.00    +0.000 C 
ATOM     23  O   UNL     1      -7.879  14.491  23.566  0.00  0.00    +0.000 OA
ENDBRANCH   1  23
TORSDOF 1
ENDMDL
MODEL 5
REMARK VINA RESULT:      -5.5      2.657      5.821
REMARK  Name = 
REMARK  2 active torsions:
REMARK  status: ('A' for Active; 'I' for Inactive)
REMARK    1  A    between atoms: C_1  and  O_2
REMARK    2  A    between atoms: O_2  and  C_3
REMARK                            x       y       z     vdW  Elec       q    Type
REMARK                         _______ _______ _______ _____ _____    ______ ____
ROOT
ATOM      1  C   UNL     1      -3.239  15.072  22.907  0.00  0.00    +0.000 A 
ATOM      2  C   UNL     1      -3.913  14.056  23.582  0.00  0.00    +0.000 A 
ATOM      3  C   UNL     1      -4.384  12.966  22.854  0.00  0.00    +0.000 A 
ATOM      4  C   UNL     1      -4.356  13.023  21.454  0.00  0.00    +0.000 A 
ATOM      5  C   UNL     1      -3.617  14.049  20.860  0.00  0.00    +0.000 A 
ATOM      6  C   UNL     1      -2.740  14.787  21.640  0.00  0.00    +0.000 A 
ATOM      7  O   UNL     1      -1.365  14.295  21.727  0.00  0.00    +0.000 OA
ATOM      8  C   UNL     1      -0.979  13.276  20.874  0.00  0.00    +0.000 A 
ATOM      9  C   UNL     1      -0.563  13.563  19.577  0.00  0.00    +0.000 A 
ATOM     10  C   UNL     1      -0.505  12.546  18.617  0.00  0.00    +0.000 A 
ATOM     11  C   UNL     1      -0.952  11.267  18.952  0.00  0.00    +0.000 A 
ATOM     12  C   UNL     1      -0.975  10.915  20.323  0.00  0.00    +0.000 A 
ATOM     13  C   UNL     1      -0.992  11.960  21.315  0.00  0.00    +0.000 A 
ATOM     14  C   UNL     1      -2.038  10.609  18.102  0.00  0.00    +0.000 C 
ATOM     15  C   UNL     1      -2.322  10.923  16.613  0.00  0.00    +0.000 C 
ATOM     16  C   UNL     1      -3.814  10.942  16.094  0.00  0.00    +0.000 C 
ATOM     17  O   UNL     1      -4.065  10.343  15.036  0.00  0.00    +0.000 OA
ATOM     18  C   UNL     1      -4.942  11.804  16.720  0.00  0.00    +0.000 C 
ATOM     19  C   UNL     1      -4.747  11.921  18.204  0.00  0.00    +0.000 C 
ATOM     20  C   UNL     1      -5.719  12.304  19.301  0.00  0.00    +0.000 C 
ATOM     21  C   UNL     1      -5.007  11.934  20.645  0.00  0.00    +0.000 C 
ENDROOT
BRANCH   1  23
ATOM     22  C   UNL     1      -4.320  16.414  24.578  0.00  0.00    +0.000 C 
ATOM     23  O   UNL     1      -3.523  16.327  23.394  0.00  0.00    +0.000 OA
ENDBRANCH   1  23
TORSDOF 1
ENDMDL
MODEL 6
REMARK VINA RESULT:      -5.5      3.029      5.349
REMARK  Name = 
REMARK  2 active torsions:
REMARK  status: ('A' for Active; 'I' for Inactive)
REMARK    1  A    between atoms: C_1  and  O_2
REMARK    2  A    between atoms: O_2  and  C_3
REMARK                            x       y       z     vdW  Elec       q    Type
REMARK                         _______ _______ _______ _____ _____    ______ ____
ROOT
ATOM      1  C   UNL     1      -2.653  10.857  17.871  0.00  0.00    +0.000 A 
ATOM      2  C   UNL     1      -1.727   9.846  18.125  0.00  0.00    +0.000 A 
ATOM      3  C   UNL     1      -0.463  10.198  18.594  0.00  0.00    +0.000 A 
ATOM      4  C   UNL     1      -0.092  11.550  18.593  0.00  0.00    +0.000 A 
ATOM      5  C   UNL     1      -1.094  12.498  18.375  0.00  0.00    +0.000 A 
ATOM      6  C   UNL     1      -2.422  12.104  18.441  0.00  0.00    +0.000 A 
ATOM      7  O   UNL     1      -3.072  12.201  19.748  0.00  0.00    +0.000 OA
ATOM      8  C   UNL     1      -2.408  12.868  20.762  0.00  0.00    +0.000 A 
ATOM      9  C   UNL     1      -2.486  14.255  20.863  0.00  0.00    +0.000 A 
ATOM     10  C   UNL     1      -1.565  14.955  21.649  0.00  0.00    +0.000 A 
ATOM     11  C   UNL     1      -0.518  14.258  22.256  0.00  0.00    +0.000 A 
ATOM     12  C   UNL     1      -0.689  12.870  22.473  0.00  0.00    +0.000 A 
ATOM     13  C   UNL     1      -1.668  12.153  21.695  0.00  0.00    +0.000 A 
ATOM     14  C   UNL     1       0.922  14.692  21.988  0.00  0.00    +0.000 C 
ATOM     15  C   UNL     1       1.366  16.120  21.586  0.00  0.00    +0.000 C 
ATOM     16  C   UNL     1       2.540  16.305  20.546  0.00  0.00    +0.000 C 
ATOM     17  O   UNL     1       3.429  17.127  20.818  0.00  0.00    +0.000 OA
ATOM     18  C   UNL     1       2.559  15.663  19.134  0.00  0.00    +0.000 C 
ATOM     19  C   UNL     1       1.894  14.317  19.163  0.00  0.00    +0.000 C 
ATOM     20  C   UNL     1       1.976  13.153  18.197  0.00  0.00    +0.000 C 
ATOM     21  C   UNL     1       1.319  11.941  18.937  0.00  0.00    +0.000 C 
ENDROOT
BRANCH   1  23
ATOM     22  C   UNL     1      -2.828  10.778  15.478  0.00  0.00    +0.000 C 
ATOM     23  O   UNL     1      -3.431  10.611  16.763  0.00  0.00    +0.000 OA
ENDBRANCH   1  23
TORSDOF 1
ENDMDL
MODEL 7
REMARK VINA RESULT:      -5.5      4.529      9.835
REMARK  Name = 
REMARK  2 active torsions:
REMARK  status: ('A' for Active; 'I' for Inactive)
REMARK    1  A    between atoms: C_1  and  O_2
REMARK    2  A    between atoms: O_2  and  C_3
REMARK                            x       y       z     vdW  Elec       q    Type
REMARK                         _______ _______ _______ _____ _____    ______ ____
ROOT
ATOM      1  C   UNL     1       1.152   7.923  20.987  0.00  0.00    +0.000 A 
ATOM      2  C   UNL     1       0.577   8.543  19.879  0.00  0.00    +0.000 A 
ATOM      3  C   UNL     1       1.205   8.419  18.641  0.00  0.00    +0.000 A 
ATOM      4  C   UNL     1       2.490   7.863  18.585  0.00  0.00    +0.000 A 
ATOM      5  C   UNL     1       2.969   7.219  19.729  0.00  0.00    +0.000 A 
ATOM      6  C   UNL     1       2.085   6.917  20.754  0.00  0.00    +0.000 A 
ATOM      7  O   UNL     1       1.430   5.611  20.694  0.00  0.00    +0.000 OA
ATOM      8  C   UNL     1       1.884   4.692  19.764  0.00  0.00    +0.000 A 
ATOM      9  C   UNL     1       2.983   3.886  20.049  0.00  0.00    +0.000 A 
ATOM     10  C   UNL     1       3.650   3.218  19.017  0.00  0.00    +0.000 A 
ATOM     11  C   UNL     1       3.259   3.442  17.696  0.00  0.00    +0.000 A 
ATOM     12  C   UNL     1       1.943   3.912  17.469  0.00  0.00    +0.000 A 
ATOM     13  C   UNL     1       1.236   4.562  18.543  0.00  0.00    +0.000 A 
ATOM     14  C   UNL     1       4.295   3.921  16.680  0.00  0.00    +0.000 C 
ATOM     15  C   UNL     1       5.820   3.669  16.771  0.00  0.00    +0.000 C 
ATOM     16  C   UNL     1       6.824   4.798  16.309  0.00  0.00    +0.000 C 
ATOM     17  O   UNL     1       7.769   4.467  15.577  0.00  0.00    +0.000 OA
ATOM     18  C   UNL     1       6.808   6.251  16.854  0.00  0.00    +0.000 C 
ATOM     19  C   UNL     1       5.400   6.683  17.148  0.00  0.00    +0.000 C 
ATOM     20  C   UNL     1       4.806   8.066  17.322  0.00  0.00    +0.000 C 
ATOM     21  C   UNL     1       3.255   7.868  17.290  0.00  0.00    +0.000 C 
ENDROOT
BRANCH   1  23
ATOM     22  C   UNL     1      -0.220   9.279  22.415  0.00  0.00    +0.000 C 
ATOM     23  O   UNL     1       1.041   8.664  22.141  0.00  0.00    +0.000 OA
ENDBRANCH   1  23
TORSDOF 1
ENDMDL
MODEL 8
REMARK VINA RESULT:      -5.5      3.326      5.332
REMARK  Name = 
REMARK  2 active torsions:
REMARK  status: ('A' for Active; 'I' for Inactive)
REMARK    1  A    between atoms: C_1  and  O_2
REMARK    2  A    between atoms: O_2  and  C_3
REMARK                            x       y       z     vdW  Elec       q    Type
REMARK                         _______ _______ _______ _____ _____    ______ ____
ROOT
ATOM      1  C   UNL     1      -1.343  10.632  18.070  0.00  0.00    +0.000 A 
ATOM      2  C   UNL     1      -0.201   9.949  18.485  0.00  0.00    +0.000 A 
ATOM      3  C   UNL     1       0.896  10.685  18.929  0.00  0.00    +0.000 A 
ATOM      4  C   UNL     1       0.897  12.075  18.748  0.00  0.00    +0.000 A 
ATOM      5  C   UNL     1      -0.304  12.683  18.377  0.00  0.00    +0.000 A 
ATOM      6  C   UNL     1      -1.483  11.958  18.465  0.00  0.00    +0.000 A 
ATOM      7  O   UNL     1      -2.213  12.043  19.730  0.00  0.00    +0.000 OA
ATOM      8  C   UNL     1      -1.810  12.989  20.656  0.00  0.00    +0.000 A 
ATOM      9  C   UNL     1      -2.257  14.304  20.560  0.00  0.00    +0.000 A 
ATOM     10  C   UNL     1      -1.601  15.321  21.263  0.00  0.00    +0.000 A 
ATOM     11  C   UNL     1      -0.446  15.016  21.985  0.00  0.00    +0.000 A 
ATOM     12  C   UNL     1      -0.259  13.672  22.390  0.00  0.00    +0.000 A 
ATOM     13  C   UNL     1      -0.966  12.625  21.697  0.00  0.00    +0.000 A 
ATOM     14  C   UNL     1       0.843  15.783  21.694  0.00  0.00    +0.000 C 
ATOM     15  C   UNL     1       0.919  17.214  21.108  0.00  0.00    +0.000 C 
ATOM     16  C   UNL     1       2.063  17.572  20.079  0.00  0.00    +0.000 C 
ATOM     17  O   UNL     1       2.687  18.631  20.256  0.00  0.00    +0.000 OA
ATOM     18  C   UNL     1       2.336  16.784  18.772  0.00  0.00    +0.000 C 
ATOM     19  C   UNL     1       2.047  15.324  18.973  0.00  0.00    +0.000 C 
ATOM     20  C   UNL     1       2.491  14.110  18.181  0.00  0.00    +0.000 C 
ATOM     21  C   UNL     1       2.132  12.872  19.067  0.00  0.00    +0.000 C 
ENDROOT
BRANCH   1  23
ATOM     22  C   UNL     1      -2.696  10.896  16.105  0.00  0.00    +0.000 C 
ATOM     23  O   UNL     1      -1.961  10.046  16.989  0.00  0.00    +0.000 OA
ENDBRANCH   1  23
TORSDOF 1
ENDMDL
MODEL 9
REMARK VINA RESULT:      -5.4      2.410      5.334
REMARK  Name = 
REMARK  2 active torsions:
REMARK  status: ('A' for Active; 'I' for Inactive)
REMARK    1  A    between atoms: C_1  and  O_2
REMARK    2  A    between atoms: O_2  and  C_3
REMARK                            x       y       z     vdW  Elec       q    Type
REMARK                         _______ _______ _______ _____ _____    ______ ____
ROOT
ATOM      1  C   UNL     1      -0.718  14.836  22.971  0.00  0.00    +0.000 A 
ATOM      2  C   UNL     1      -1.604  14.154  23.804  0.00  0.00    +0.000 A 
ATOM      3  C   UNL     1      -2.461  13.210  23.241  0.00  0.00    +0.000 A 
ATOM      4  C   UNL     1      -2.556  13.129  21.845  0.00  0.00    +0.000 A 
ATOM      5  C   UNL     1      -1.598  13.807  21.088  0.00  0.00    +0.000 A 
ATOM      6  C   UNL     1      -0.461  14.293  21.717  0.00  0.00    +0.000 A 
ATOM      7  O   UNL     1       0.694  13.396  21.771  0.00  0.00    +0.000 OA
ATOM      8  C   UNL     1       0.657  12.235  21.019  0.00  0.00    +0.000 A 
ATOM      9  C   UNL     1       1.010  12.256  19.673  0.00  0.00    +0.000 A 
ATOM     10  C   UNL     1       0.653  11.191  18.837  0.00  0.00    +0.000 A 
ATOM     11  C   UNL     1      -0.134  10.158  19.348  0.00  0.00    +0.000 A 
ATOM     12  C   UNL     1      -0.129   9.957  20.749  0.00  0.00    +0.000 A 
ATOM     13  C   UNL     1       0.279  11.037  21.611  0.00  0.00    +0.000 A 
ATOM     14  C   UNL     1      -1.450   9.808  18.655  0.00  0.00    +0.000 C 
ATOM     15  C   UNL     1      -1.769  10.061  17.161  0.00  0.00    +0.000 C 
ATOM     16  C   UNL     1      -3.225  10.509  16.742  0.00  0.00    +0.000 C 
ATOM     17  O   UNL     1      -3.753   9.929  15.780  0.00  0.00    +0.000 OA
ATOM     18  C   UNL     1      -3.961  11.739  17.336  0.00  0.00    +0.000 C 
ATOM     19  C   UNL     1      -3.592  11.922  18.780  0.00  0.00    +0.000 C 
ATOM     20  C   UNL     1      -4.282  12.693  19.887  0.00  0.00    +0.000 C 
ATOM     21  C   UNL     1      -3.591  12.238  21.214  0.00  0.00    +0.000 C 
ENDROOT
BRANCH   1  23
ATOM     22  C   UNL     1      -0.497  16.464  24.721  0.00  0.00    +0.000 C 
ATOM     23  O   UNL     1      -0.547  16.154  23.326  0.00  0.00    +0.000 OA
ENDBRANCH   1  23
TORSDOF 1
ENDMDL
