MODEL 1
REMARK VINA RESULT:      -8.1      0.000      0.000
REMARK  Name = 
REMARK  2 active torsions:
REMARK  status: ('A' for Active; 'I' for Inactive)
REMARK    1  A    between atoms: C_1  and  N_2
REMARK    2  A    between atoms: C_12  and  C_13
REMARK                            x       y       z     vdW  Elec       q    Type
REMARK                         _______ _______ _______ _____ _____    ______ ____
ROOT
ATOM      1  C   UNL     1      -0.004  14.440  22.251  0.00  0.00    +0.000 C 
ATOM      2  N   UNL     1       0.390  13.079  21.912  0.00  0.00    +0.000 NA
ATOM      3  C   UNL     1       0.797  12.936  20.476  0.00  0.00    +0.000 C 
ATOM      4  C   UNL     1      -0.133  11.818  19.932  0.00  0.00    +0.000 C 
ATOM      5  C   UNL     1      -1.424  12.172  20.675  0.00  0.00    +0.000 C 
ATOM      6  C   UNL     1      -0.741  12.112  22.041  0.00  0.00    +0.000 C 
ATOM      7  C   UNL     1      -0.147  10.666  22.000  0.00  0.00    +0.000 C 
ATOM      8  N   UNL     1       0.207  10.544  20.584  0.00  0.00    +0.000 N 
ATOM      9  C   UNL     1       0.934   9.547  20.011  0.00  0.00    +0.000 A 
ATOM     10  C   UNL     1       1.296   8.414  20.725  0.00  0.00    +0.000 A 
ATOM     11  C   UNL     1       2.001   7.377  20.112  0.00  0.00    +0.000 A 
ATOM     12  C   UNL     1       2.334   7.477  18.773  0.00  0.00    +0.000 A 
ATOM     13  N   UNL     1       1.989   8.587  18.089  0.00  0.00    +0.000 NA
ATOM     14  N   UNL     1       1.287   9.617  18.712  0.00  0.00    +0.000 NA
ENDROOT
BRANCH  12  15
ATOM     15  C   UNL     1       3.086   6.434  18.047  0.00  0.00    +0.000 A 
ATOM     16  C   UNL     1       2.624   5.100  17.985  0.00  0.00    +0.000 A 
ATOM     17  C   UNL     1       3.343   4.079  17.348  0.00  0.00    +0.000 A 
ATOM     18  C   UNL     1       4.547   4.446  16.763  0.00  0.00    +0.000 A 
ATOM     19  O   UNL     1       5.397   3.608  16.108  0.00  0.00    +0.000 OA
ATOM     20  C   UNL     1       6.448   4.361  15.690  0.00  0.00    +0.000 A 
ATOM     21  C   UNL     1       6.284   5.675  16.066  0.00  0.00    +0.000 A 
ATOM     22  C   UNL     1       5.051   5.740  16.768  0.00  0.00    +0.000 A 
ATOM     23  C   UNL     1       4.309   6.748  17.411  0.00  0.00    +0.000 A 
ENDBRANCH  12  15
TORSDOF 1
ENDMDL
MODEL 2
REMARK VINA RESULT:      -8.0      3.368      8.699
REMARK  Name = 
REMARK  2 active torsions:
REMARK  status: ('A' for Active; 'I' for Inactive)
REMARK    1  A    between atoms: C_1  and  N_2
REMARK    2  A    between atoms: C_12  and  C_13
REMARK                            x       y       z     vdW  Elec       q    Type
REMARK                         _______ _______ _______ _____ _____    ______ ____
ROOT
ATOM      1  C   UNL     1       7.813   4.468  17.742  0.00  0.00    +0.000 C 
ATOM      2  N   UNL     1       6.707   5.417  17.753  0.00  0.00    +0.000 NA
ATOM      3  C   UNL     1       5.915   5.366  19.026  0.00  0.00    +0.000 C 
ATOM      4  C   UNL     1       4.463   5.092  18.552  0.00  0.00    +0.000 C 
ATOM      5  C   UNL     1       4.745   4.126  17.397  0.00  0.00    +0.000 C 
ATOM      6  C   UNL     1       5.687   5.112  16.706  0.00  0.00    +0.000 C 
ATOM      7  C   UNL     1       4.748   6.355  16.570  0.00  0.00    +0.000 C 
ATOM      8  N   UNL     1       3.966   6.258  17.806  0.00  0.00    +0.000 N 
ATOM      9  C   UNL     1       3.112   7.192  18.302  0.00  0.00    +0.000 A 
ATOM     10  C   UNL     1       2.765   8.318  17.568  0.00  0.00    +0.000 A 
ATOM     11  C   UNL     1       1.850   9.245  18.069  0.00  0.00    +0.000 A 
ATOM     12  C   UNL     1       1.275   9.034  19.310  0.00  0.00    +0.000 A 
ATOM     13  N   UNL     1       1.625   7.943  20.022  0.00  0.00    +0.000 NA
ATOM     14  N   UNL     1       2.542   7.025  19.512  0.00  0.00    +0.000 NA
ENDROOT
BRANCH  12  15
ATOM     15  C   UNL     1       0.306   9.965  19.921  0.00  0.00    +0.000 A 
ATOM     16  C   UNL     1      -0.348  10.957  19.156  0.00  0.00    +0.000 A 
ATOM     17  C   UNL     1      -1.232  11.888  19.719  0.00  0.00    +0.000 A 
ATOM     18  C   UNL     1      -1.446  11.784  21.086  0.00  0.00    +0.000 A 
ATOM     19  O   UNL     1      -2.255  12.593  21.825  0.00  0.00    +0.000 OA
ATOM     20  C   UNL     1      -2.185  12.153  23.109  0.00  0.00    +0.000 A 
ATOM     21  C   UNL     1      -1.343  11.070  23.206  0.00  0.00    +0.000 A 
ATOM     22  C   UNL     1      -0.854  10.823  21.896  0.00  0.00    +0.000 A 
ATOM     23  C   UNL     1       0.027   9.898  21.305  0.00  0.00    +0.000 A 
ENDBRANCH  12  15
TORSDOF 1
ENDMDL
MODEL 3
REMARK VINA RESULT:      -8.0      3.448      8.727
REMARK  Name = 
REMARK  2 active torsions:
REMARK  status: ('A' for Active; 'I' for Inactive)
REMARK    1  A    between atoms: C_1  and  N_2
REMARK    2  A    between atoms: C_12  and  C_13
REMARK                            x       y       z     vdW  Elec       q    Type
REMARK                         _______ _______ _______ _____ _____    ______ ____
ROOT
ATOM      1  C   UNL     1       7.453   4.438  17.317  0.00  0.00    +0.000 C 
ATOM      2  N   UNL     1       6.371   5.381  17.571  0.00  0.00    +0.000 NA
ATOM      3  C   UNL     1       5.728   5.174  18.910  0.00  0.00    +0.000 C 
ATOM      4  C   UNL     1       4.227   4.964  18.576  0.00  0.00    +0.000 C 
ATOM      5  C   UNL     1       4.360   4.148  17.287  0.00  0.00    +0.000 C 
ATOM      6  C   UNL     1       5.234   5.210  16.619  0.00  0.00    +0.000 C 
ATOM      7  C   UNL     1       4.306   6.463  16.745  0.00  0.00    +0.000 C 
ATOM      8  N   UNL     1       3.668   6.215  18.041  0.00  0.00    +0.000 N 
ATOM      9  C   UNL     1       2.891   7.083  18.743  0.00  0.00    +0.000 A 
ATOM     10  C   UNL     1       2.483   8.291  18.197  0.00  0.00    +0.000 A 
ATOM     11  C   UNL     1       1.646   9.151  18.910  0.00  0.00    +0.000 A 
ATOM     12  C   UNL     1       1.212   8.789  20.174  0.00  0.00    +0.000 A 
ATOM     13  N   UNL     1       1.623   7.618  20.701  0.00  0.00    +0.000 NA
ATOM     14  N   UNL     1       2.460   6.768  19.981  0.00  0.00    +0.000 NA
ENDROOT
BRANCH  12  15
ATOM     15  C   UNL     1       0.334   9.640  21.001  0.00  0.00    +0.000 A 
ATOM     16  C   UNL     1       0.130   9.374  22.374  0.00  0.00    +0.000 A 
ATOM     17  C   UNL     1      -0.737  10.133  23.172  0.00  0.00    +0.000 A 
ATOM     18  C   UNL     1      -1.393  11.182  22.542  0.00  0.00    +0.000 A 
ATOM     19  O   UNL     1      -2.281  12.029  23.132  0.00  0.00    +0.000 OA
ATOM     20  C   UNL     1      -2.685  12.905  22.176  0.00  0.00    +0.000 A 
ATOM     21  C   UNL     1      -2.066  12.634  20.977  0.00  0.00    +0.000 A 
ATOM     22  C   UNL     1      -1.225  11.513  21.204  0.00  0.00    +0.000 A 
ATOM     23  C   UNL     1      -0.346  10.737  20.426  0.00  0.00    +0.000 A 
ENDBRANCH  12  15
TORSDOF 1
ENDMDL
MODEL 4
REMARK VINA RESULT:      -7.7      3.302      8.814
REMARK  Name = 
REMARK  2 active torsions:
REMARK  status: ('A' for Active; 'I' for Inactive)
REMARK    1  A    between atoms: C_1  and  N_2
REMARK    2  A    between atoms: C_12  and  C_13
REMARK                            x       y       z     vdW  Elec       q    Type
REMARK                         _______ _______ _______ _____ _____    ______ ____
ROOT
ATOM      1  C   UNL     1       6.429   3.667  13.193  0.00  0.00    +0.000 C 
ATOM      2  N   UNL     1       5.571   4.095  14.291  0.00  0.00    +0.000 NA
ATOM      3  C   UNL     1       5.576   5.583  14.481  0.00  0.00    +0.000 C 
ATOM      4  C   UNL     1       6.002   5.770  15.962  0.00  0.00    +0.000 C 
ATOM      5  C   UNL     1       7.037   4.647  16.077  0.00  0.00    +0.000 C 
ATOM      6  C   UNL     1       6.043   3.583  15.612  0.00  0.00    +0.000 C 
ATOM      7  C   UNL     1       4.892   3.794  16.650  0.00  0.00    +0.000 C 
ATOM      8  N   UNL     1       4.945   5.246  16.841  0.00  0.00    +0.000 N 
ATOM      9  C   UNL     1       4.042   6.011  17.511  0.00  0.00    +0.000 A 
ATOM     10  C   UNL     1       3.012   5.438  18.245  0.00  0.00    +0.000 A 
ATOM     11  C   UNL     1       2.120   6.233  18.967  0.00  0.00    +0.000 A 
ATOM     12  C   UNL     1       2.270   7.609  18.957  0.00  0.00    +0.000 A 
ATOM     13  N   UNL     1       3.266   8.158  18.232  0.00  0.00    +0.000 NA
ATOM     14  N   UNL     1       4.150   7.355  17.513  0.00  0.00    +0.000 NA
ENDROOT
BRANCH  12  15
ATOM     15  C   UNL     1       1.369   8.525  19.682  0.00  0.00    +0.000 A 
ATOM     16  C   UNL     1       0.739   9.610  19.031  0.00  0.00    +0.000 A 
ATOM     17  C   UNL     1      -0.079  10.527  19.706  0.00  0.00    +0.000 A 
ATOM     18  C   UNL     1      -0.253  10.312  21.066  0.00  0.00    +0.000 A 
ATOM     19  O   UNL     1      -0.997  11.088  21.902  0.00  0.00    +0.000 OA
ATOM     20  C   UNL     1      -0.907  10.532  23.139  0.00  0.00    +0.000 A 
ATOM     21  C   UNL     1      -0.116   9.407  23.110  0.00  0.00    +0.000 A 
ATOM     22  C   UNL     1       0.317   9.256  21.766  0.00  0.00    +0.000 A 
ATOM     23  C   UNL     1       1.132   8.348  21.065  0.00  0.00    +0.000 A 
ENDBRANCH  12  15
TORSDOF 1
ENDMDL
MODEL 5
REMARK VINA RESULT:      -7.7      1.533      2.651
REMARK  Name = 
REMARK  2 active torsions:
REMARK  status: ('A' for Active; 'I' for Inactive)
REMARK    1  A    between atoms: C_1  and  N_2
REMARK    2  A    between atoms: C_12  and  C_13
REMARK                            x       y       z     vdW  Elec       q    Type
REMARK                         _______ _______ _______ _____ _____    ______ ____
ROOT
ATOM      1  C   UNL     1      -2.647  13.754  20.835  0.00  0.00    +0.000 C 
ATOM      2  N   UNL     1      -1.746  12.815  20.181  0.00  0.00    +0.000 NA
ATOM      3  C   UNL     1      -1.466  11.603  21.020  0.00  0.00    +0.000 C 
ATOM      4  C   UNL     1       0.082  11.579  21.139  0.00  0.00    +0.000 C 
ATOM      5  C   UNL     1       0.356  13.081  21.257  0.00  0.00    +0.000 C 
ATOM      6  C   UNL     1      -0.387  13.393  19.958  0.00  0.00    +0.000 C 
ATOM      7  C   UNL     1       0.377  12.461  18.961  0.00  0.00    +0.000 C 
ATOM      8  N   UNL     1       0.666  11.307  19.817  0.00  0.00    +0.000 N 
ATOM      9  C   UNL     1       1.163  10.105  19.419  0.00  0.00    +0.000 A 
ATOM     10  C   UNL     1       1.609   9.901  18.121  0.00  0.00    +0.000 A 
ATOM     11  C   UNL     1       2.160   8.677  17.738  0.00  0.00    +0.000 A 
ATOM     12  C   UNL     1       2.271   7.658  18.668  0.00  0.00    +0.000 A 
ATOM     13  N   UNL     1       1.824   7.861  19.924  0.00  0.00    +0.000 NA
ATOM     14  N   UNL     1       1.273   9.086  20.294  0.00  0.00    +0.000 NA
ENDROOT
BRANCH  12  15
ATOM     15  C   UNL     1       2.831   6.330  18.349  0.00  0.00    +0.000 A 
ATOM     16  C   UNL     1       3.899   6.179  17.435  0.00  0.00    +0.000 A 
ATOM     17  C   UNL     1       4.416   4.928  17.074  0.00  0.00    +0.000 A 
ATOM     18  C   UNL     1       3.826   3.822  17.671  0.00  0.00    +0.000 A 
ATOM     19  O   UNL     1       4.172   2.524  17.450  0.00  0.00    +0.000 OA
ATOM     20  C   UNL     1       3.358   1.762  18.227  0.00  0.00    +0.000 A 
ATOM     21  C   UNL     1       2.495   2.554  18.949  0.00  0.00    +0.000 A 
ATOM     22  C   UNL     1       2.789   3.897  18.592  0.00  0.00    +0.000 A 
ATOM     23  C   UNL     1       2.290   5.166  18.941  0.00  0.00    +0.000 A 
ENDBRANCH  12  15
TORSDOF 1
ENDMDL
MODEL 6
REMARK VINA RESULT:      -7.7      6.359      9.329
REMARK  Name = 
REMARK  2 active torsions:
REMARK  status: ('A' for Active; 'I' for Inactive)
REMARK    1  A    between atoms: C_1  and  N_2
REMARK    2  A    between atoms: C_12  and  C_13
REMARK                            x       y       z     vdW  Elec       q    Type
REMARK                         _______ _______ _______ _____ _____    ______ ____
ROOT
ATOM      1  C   UNL     1       2.980   3.632  17.180  0.00  0.00    +0.000 C 
ATOM      2  N   UNL     1       4.120   4.443  17.589  0.00  0.00    +0.000 NA
ATOM      3  C   UNL     1       4.034   5.854  17.089  0.00  0.00    +0.000 C 
ATOM      4  C   UNL     1       5.354   6.052  16.296  0.00  0.00    +0.000 C 
ATOM      5  C   UNL     1       5.480   4.668  15.654  0.00  0.00    +0.000 C 
ATOM      6  C   UNL     1       5.404   3.954  17.003  0.00  0.00    +0.000 C 
ATOM      7  C   UNL     1       6.578   4.653  17.763  0.00  0.00    +0.000 C 
ATOM      8  N   UNL     1       6.491   6.015  17.229  0.00  0.00    +0.000 N 
ATOM      9  C   UNL     1       7.165   7.108  17.677  0.00  0.00    +0.000 A 
ATOM     10  C   UNL     1       8.165   7.000  18.633  0.00  0.00    +0.000 A 
ATOM     11  C   UNL     1       8.881   8.123  19.049  0.00  0.00    +0.000 A 
ATOM     12  C   UNL     1       8.596   9.359  18.495  0.00  0.00    +0.000 A 
ATOM     13  N   UNL     1       7.614   9.457  17.576  0.00  0.00    +0.000 NA
ATOM     14  N   UNL     1       6.904   8.329  17.169  0.00  0.00    +0.000 NA
ENDROOT
BRANCH  12  15
ATOM     15  C   UNL     1       9.295  10.599  18.883  0.00  0.00    +0.000 A 
ATOM     16  C   UNL     1       9.583  10.893  20.235  0.00  0.00    +0.000 A 
ATOM     17  C   UNL     1      10.198  12.087  20.636  0.00  0.00    +0.000 A 
ATOM     18  C   UNL     1      10.526  12.980  19.625  0.00  0.00    +0.000 A 
ATOM     19  O   UNL     1      11.117  14.194  19.803  0.00  0.00    +0.000 OA
ATOM     20  C   UNL     1      11.265  14.744  18.569  0.00  0.00    +0.000 A 
ATOM     21  C   UNL     1      10.778  13.898  17.599  0.00  0.00    +0.000 A 
ATOM     22  C   UNL     1      10.292  12.749  18.276  0.00  0.00    +0.000 A 
ATOM     23  C   UNL     1       9.676  11.541  17.899  0.00  0.00    +0.000 A 
ENDBRANCH  12  15
TORSDOF 1
ENDMDL
MODEL 7
REMARK VINA RESULT:      -7.5      1.475      2.274
REMARK  Name = 
REMARK  2 active torsions:
REMARK  status: ('A' for Active; 'I' for Inactive)
REMARK    1  A    between atoms: C_1  and  N_2
REMARK    2  A    between atoms: C_12  and  C_13
REMARK                            x       y       z     vdW  Elec       q    Type
REMARK                         _______ _______ _______ _____ _____    ______ ____
ROOT
ATOM      1  C   UNL     1       0.095  15.334  22.467  0.00  0.00    +0.000 C 
ATOM      2  N   UNL     1       0.308  13.902  22.302  0.00  0.00    +0.000 NA
ATOM      3  C   UNL     1       0.878  13.555  20.958  0.00  0.00    +0.000 C 
ATOM      4  C   UNL     1      -0.136  12.535  20.374  0.00  0.00    +0.000 C 
ATOM      5  C   UNL     1      -1.443  13.147  20.885  0.00  0.00    +0.000 C 
ATOM      6  C   UNL     1      -0.970  13.130  22.338  0.00  0.00    +0.000 C 
ATOM      7  C   UNL     1      -0.614  11.616  22.504  0.00  0.00    +0.000 C 
ATOM      8  N   UNL     1      -0.095  11.298  21.170  0.00  0.00    +0.000 N 
ATOM      9  C   UNL     1       0.534  10.152  20.795  0.00  0.00    +0.000 A 
ATOM     10  C   UNL     1       0.611   9.058  21.645  0.00  0.00    +0.000 A 
ATOM     11  C   UNL     1       1.217   7.871  21.230  0.00  0.00    +0.000 A 
ATOM     12  C   UNL     1       1.741   7.783  19.952  0.00  0.00    +0.000 A 
ATOM     13  N   UNL     1       1.672   8.855  19.137  0.00  0.00    +0.000 NA
ATOM     14  N   UNL     1       1.067  10.036  19.562  0.00  0.00    +0.000 NA
ENDROOT
BRANCH  12  15
ATOM     15  C   UNL     1       2.408   6.573  19.434  0.00  0.00    +0.000 A 
ATOM     16  C   UNL     1       3.093   6.579  18.197  0.00  0.00    +0.000 A 
ATOM     17  C   UNL     1       3.690   5.432  17.656  0.00  0.00    +0.000 A 
ATOM     18  C   UNL     1       3.582   4.269  18.407  0.00  0.00    +0.000 A 
ATOM     19  O   UNL     1       4.080   3.052  18.057  0.00  0.00    +0.000 OA
ATOM     20  C   UNL     1       3.763   2.193  19.061  0.00  0.00    +0.000 A 
ATOM     21  C   UNL     1       3.068   2.843  20.054  0.00  0.00    +0.000 A 
ATOM     22  C   UNL     1       2.943   4.195  19.637  0.00  0.00    +0.000 A 
ATOM     23  C   UNL     1       2.354   5.361  20.161  0.00  0.00    +0.000 A 
ENDBRANCH  12  15
TORSDOF 1
ENDMDL
MODEL 8
REMARK VINA RESULT:      -7.3      1.387      2.253
REMARK  Name = 
REMARK  2 active torsions:
REMARK  status: ('A' for Active; 'I' for Inactive)
REMARK    1  A    between atoms: C_1  and  N_2
REMARK    2  A    between atoms: C_12  and  C_13
REMARK                            x       y       z     vdW  Elec       q    Type
REMARK                         _______ _______ _______ _____ _____    ______ ____
ROOT
ATOM      1  C   UNL     1       0.818  15.558  20.221  0.00  0.00    +0.000 C 
ATOM      2  N   UNL     1       0.991  14.112  20.267  0.00  0.00    +0.000 NA
ATOM      3  C   UNL     1       1.458  13.545  18.959  0.00  0.00    +0.000 C 
ATOM      4  C   UNL     1       0.385  12.479  18.609  0.00  0.00    +0.000 C 
ATOM      5  C   UNL     1      -0.871  13.203  19.103  0.00  0.00    +0.000 C 
ATOM      6  C   UNL     1      -0.297  13.393  20.507  0.00  0.00    +0.000 C 
ATOM      7  C   UNL     1       0.039  11.913  20.882  0.00  0.00    +0.000 C 
ATOM      8  N   UNL     1       0.457  11.379  19.583  0.00  0.00    +0.000 N 
ATOM      9  C   UNL     1       1.035  10.170  19.349  0.00  0.00    +0.000 A 
ATOM     10  C   UNL     1       1.149   9.217  20.352  0.00  0.00    +0.000 A 
ATOM     11  C   UNL     1       1.702   7.963  20.087  0.00  0.00    +0.000 A 
ATOM     12  C   UNL     1       2.133   7.664  18.806  0.00  0.00    +0.000 A 
ATOM     13  N   UNL     1       2.028   8.599  17.840  0.00  0.00    +0.000 NA
ATOM     14  N   UNL     1       1.478   9.849  18.117  0.00  0.00    +0.000 NA
ENDROOT
BRANCH  12  15
ATOM     15  C   UNL     1       2.737   6.368  18.439  0.00  0.00    +0.000 A 
ATOM     16  C   UNL     1       3.861   6.293  17.586  0.00  0.00    +0.000 A 
ATOM     17  C   UNL     1       4.424   5.075  17.178  0.00  0.00    +0.000 A 
ATOM     18  C   UNL     1       3.819   3.925  17.666  0.00  0.00    +0.000 A 
ATOM     19  O   UNL     1       4.202   2.649  17.384  0.00  0.00    +0.000 OA
ATOM     20  C   UNL     1       3.357   1.826  18.059  0.00  0.00    +0.000 A 
ATOM     21  C   UNL     1       2.436   2.557  18.774  0.00  0.00    +0.000 A 
ATOM     22  C   UNL     1       2.726   3.924  18.523  0.00  0.00    +0.000 A 
ATOM     23  C   UNL     1       2.182   5.160  18.920  0.00  0.00    +0.000 A 
ENDBRANCH  12  15
TORSDOF 1
ENDMDL
MODEL 9
REMARK VINA RESULT:      -7.2      1.890      2.541
REMARK  Name = 
REMARK  2 active torsions:
REMARK  status: ('A' for Active; 'I' for Inactive)
REMARK    1  A    between atoms: C_1  and  N_2
REMARK    2  A    between atoms: C_12  and  C_13
REMARK                            x       y       z     vdW  Elec       q    Type
REMARK                         _______ _______ _______ _____ _____    ______ ____
ROOT
ATOM      1  C   UNL     1       1.700  15.967  19.679  0.00  0.00    +0.000 C 
ATOM      2  N   UNL     1       1.630  14.545  19.990  0.00  0.00    +0.000 NA
ATOM      3  C   UNL     1       1.993  13.680  18.819  0.00  0.00    +0.000 C 
ATOM      4  C   UNL     1       0.756  12.759  18.637  0.00  0.00    +0.000 C 
ATOM      5  C   UNL     1      -0.360  13.757  18.958  0.00  0.00    +0.000 C 
ATOM      6  C   UNL     1       0.242  14.104  20.320  0.00  0.00    +0.000 C 
ATOM      7  C   UNL     1       0.328  12.682  20.964  0.00  0.00    +0.000 C 
ATOM      8  N   UNL     1       0.647  11.858  19.795  0.00  0.00    +0.000 N 
ATOM      9  C   UNL     1       1.015  10.549  19.800  0.00  0.00    +0.000 A 
ATOM     10  C   UNL     1       0.972   9.790  20.960  0.00  0.00    +0.000 A 
ATOM     11  C   UNL     1       1.307   8.435  20.941  0.00  0.00    +0.000 A 
ATOM     12  C   UNL     1       1.678   7.840  19.748  0.00  0.00    +0.000 A 
ATOM     13  N   UNL     1       1.729   8.588  18.627  0.00  0.00    +0.000 NA
ATOM     14  N   UNL     1       1.394   9.940  18.658  0.00  0.00    +0.000 NA
ENDROOT
BRANCH  12  15
ATOM     15  C   UNL     1       2.057   6.418  19.638  0.00  0.00    +0.000 A 
ATOM     16  C   UNL     1       1.961   5.540  20.741  0.00  0.00    +0.000 A 
ATOM     17  C   UNL     1       2.363   4.198  20.679  0.00  0.00    +0.000 A 
ATOM     18  C   UNL     1       2.862   3.761  19.460  0.00  0.00    +0.000 A 
ATOM     19  O   UNL     1       3.314   2.504  19.195  0.00  0.00    +0.000 OA
ATOM     20  C   UNL     1       3.708   2.494  17.894  0.00  0.00    +0.000 A 
ATOM     21  C   UNL     1       3.514   3.729  17.318  0.00  0.00    +0.000 A 
ATOM     22  C   UNL     1       2.966   4.561  18.330  0.00  0.00    +0.000 A 
ATOM     23  C   UNL     1       2.553   5.904  18.417  0.00  0.00    +0.000 A 
ENDBRANCH  12  15
TORSDOF 1
ENDMDL
