MODEL 1
REMARK VINA RESULT:      -6.9      0.000      0.000
REMARK  Name = 
REMARK  8 active torsions:
REMARK  status: ('A' for Active; 'I' for Inactive)
REMARK    1  A    between atoms: C_1  and  O_2
REMARK    2  A    between atoms: O_2  and  C_3
REMARK    3  A    between atoms: C_6  and  C_7
REMARK    4  A    between atoms: N_9  and  C_10
REMARK    5  A    between atoms: C_10  and  C_11
REMARK    6  A    between atoms: C_11  and  C_12
REMARK    7  A    between atoms: C_12  and  C_13
REMARK    8  A    between atoms: C_13  and  C_14
REMARK                            x       y       z     vdW  Elec       q    Type
REMARK                         _______ _______ _______ _____ _____    ______ ____
ROOT
ATOM      1  C   UNL     1       5.299   4.111  19.034  0.00  0.00    +0.000 C 
ATOM      2  O   UNL     1       5.150   5.007  19.861  0.00  0.00    +0.000 OA
ATOM      3  N   UNL     1       4.970   2.799  19.306  0.00  0.00    +0.000 N 
ATOM      4  H   UNL     1       4.985   2.103  18.576  0.00  0.00    +0.000 HD
ENDROOT
BRANCH   1   8
ATOM      5  C   UNL     1       6.749   4.968  15.063  0.00  0.00    +0.000 A 
ATOM      6  C   UNL     1       5.761   4.010  15.285  0.00  0.00    +0.000 A 
ATOM      7  C   UNL     1       5.308   3.749  16.581  0.00  0.00    +0.000 A 
ATOM      8  C   UNL     1       5.851   4.431  17.680  0.00  0.00    +0.000 A 
ATOM      9  C   UNL     1       6.863   5.373  17.452  0.00  0.00    +0.000 A 
ATOM     10  C   UNL     1       7.311   5.636  16.150  0.00  0.00    +0.000 A 
BRANCH   5  12
ATOM     11  C   UNL     1       6.688   4.117  12.862  0.00  0.00    +0.000 C 
ATOM     12  O   UNL     1       7.110   5.141  13.756  0.00  0.00    +0.000 OA
ENDBRANCH   5  12
ENDBRANCH   1   8
BRANCH   3  13
ATOM     13  C   UNL     1       4.371   2.409  20.568  0.00  0.00    +0.000 C 
BRANCH  13  14
ATOM     14  C   UNL     1       2.900   2.023  20.412  0.00  0.00    +0.000 C 
BRANCH  14  15
ATOM     15  C   UNL     1       1.993   2.827  21.349  0.00  0.00    +0.000 C 
BRANCH  15  16
ATOM     16  C   UNL     1       0.926   3.607  20.580  0.00  0.00    +0.000 C 
BRANCH  16  17
ATOM     17  C   UNL     1       1.529   4.770  19.828  0.00  0.00    +0.000 A 
ATOM     18  C   UNL     1       1.776   5.983  20.487  0.00  0.00    +0.000 A 
ATOM     19  C   UNL     1       2.305   7.071  19.792  0.00  0.00    +0.000 A 
ATOM     20  C   UNL     1       2.591   6.961  18.433  0.00  0.00    +0.000 A 
ATOM     21  C   UNL     1       2.352   5.760  17.769  0.00  0.00    +0.000 A 
ATOM     22  C   UNL     1       1.821   4.669  18.461  0.00  0.00    +0.000 A 
ENDBRANCH  16  17
ENDBRANCH  15  16
ENDBRANCH  14  15
ENDBRANCH  13  14
ENDBRANCH   3  13
TORSDOF 7
ENDMDL
MODEL 2
REMARK VINA RESULT:      -6.5      5.054      8.016
REMARK  Name = 
REMARK  8 active torsions:
REMARK  status: ('A' for Active; 'I' for Inactive)
REMARK    1  A    between atoms: C_1  and  O_2
REMARK    2  A    between atoms: O_2  and  C_3
REMARK    3  A    between atoms: C_6  and  C_7
REMARK    4  A    between atoms: N_9  and  C_10
REMARK    5  A    between atoms: C_10  and  C_11
REMARK    6  A    between atoms: C_11  and  C_12
REMARK    7  A    between atoms: C_12  and  C_13
REMARK    8  A    between atoms: C_13  and  C_14
REMARK                            x       y       z     vdW  Elec       q    Type
REMARK                         _______ _______ _______ _____ _____    ______ ____
ROOT
ATOM      1  C   UNL     1       5.617   6.281  16.948  0.00  0.00    +0.000 C 
ATOM      2  O   UNL     1       5.821   6.703  15.812  0.00  0.00    +0.000 OA
ATOM      3  N   UNL     1       6.522   6.463  17.972  0.00  0.00    +0.000 N 
ATOM      4  H   UNL     1       6.282   6.218  18.921  0.00  0.00    +0.000 HD
ENDROOT
BRANCH   1   8
ATOM      5  C   UNL     1       2.050   4.013  17.810  0.00  0.00    +0.000 A 
ATOM      6  C   UNL     1       3.138   3.437  17.154  0.00  0.00    +0.000 A 
ATOM      7  C   UNL     1       4.282   4.193  16.885  0.00  0.00    +0.000 A 
ATOM      8  C   UNL     1       4.349   5.545  17.252  0.00  0.00    +0.000 A 
ATOM      9  C   UNL     1       3.243   6.124  17.885  0.00  0.00    +0.000 A 
ATOM     10  C   UNL     1       2.098   5.362  18.159  0.00  0.00    +0.000 A 
BRANCH   5  12
ATOM     11  C   UNL     1       1.182   2.180  19.018  0.00  0.00    +0.000 C 
ATOM     12  O   UNL     1       0.988   3.178  18.022  0.00  0.00    +0.000 OA
ENDBRANCH   5  12
ENDBRANCH   1   8
BRANCH   3  13
ATOM     13  C   UNL     1       7.746   7.218  17.783  0.00  0.00    +0.000 C 
BRANCH  13  14
ATOM     14  C   UNL     1       7.496   8.726  17.776  0.00  0.00    +0.000 C 
BRANCH  14  15
ATOM     15  C   UNL     1       8.803   9.525  17.743  0.00  0.00    +0.000 C 
BRANCH  15  16
ATOM     16  C   UNL     1       9.109  10.175  19.093  0.00  0.00    +0.000 C 
BRANCH  16  17
ATOM     17  C   UNL     1      10.248  11.160  18.985  0.00  0.00    +0.000 A 
ATOM     18  C   UNL     1      10.854  11.666  20.143  0.00  0.00    +0.000 A 
ATOM     19  C   UNL     1      11.888  12.598  20.053  0.00  0.00    +0.000 A 
ATOM     20  C   UNL     1      12.326  13.038  18.805  0.00  0.00    +0.000 A 
ATOM     21  C   UNL     1      11.732  12.541  17.647  0.00  0.00    +0.000 A 
ATOM     22  C   UNL     1      10.696  11.608  17.734  0.00  0.00    +0.000 A 
ENDBRANCH  16  17
ENDBRANCH  15  16
ENDBRANCH  14  15
ENDBRANCH  13  14
ENDBRANCH   3  13
TORSDOF 7
ENDMDL
MODEL 3
REMARK VINA RESULT:      -6.5      1.979      3.563
REMARK  Name = 
REMARK  8 active torsions:
REMARK  status: ('A' for Active; 'I' for Inactive)
REMARK    1  A    between atoms: C_1  and  O_2
REMARK    2  A    between atoms: O_2  and  C_3
REMARK    3  A    between atoms: C_6  and  C_7
REMARK    4  A    between atoms: N_9  and  C_10
REMARK    5  A    between atoms: C_10  and  C_11
REMARK    6  A    between atoms: C_11  and  C_12
REMARK    7  A    between atoms: C_12  and  C_13
REMARK    8  A    between atoms: C_13  and  C_14
REMARK                            x       y       z     vdW  Elec       q    Type
REMARK                         _______ _______ _______ _____ _____    ______ ____
ROOT
ATOM      1  C   UNL     1       7.196   5.263  16.030  0.00  0.00    +0.000 C 
ATOM      2  O   UNL     1       7.643   6.407  16.073  0.00  0.00    +0.000 OA
ATOM      3  N   UNL     1       7.064   4.484  17.160  0.00  0.00    +0.000 N 
ATOM      4  H   UNL     1       6.584   3.598  17.121  0.00  0.00    +0.000 HD
ENDROOT
BRANCH   1   8
ATOM      5  C   UNL     1       5.816   3.572  12.310  0.00  0.00    +0.000 A 
ATOM      6  C   UNL     1       5.076   3.446  13.484  0.00  0.00    +0.000 A 
ATOM      7  C   UNL     1       5.545   4.002  14.678  0.00  0.00    +0.000 A 
ATOM      8  C   UNL     1       6.773   4.678  14.719  0.00  0.00    +0.000 A 
ATOM      9  C   UNL     1       7.524   4.776  13.541  0.00  0.00    +0.000 A 
ATOM     10  C   UNL     1       7.049   4.222  12.344  0.00  0.00    +0.000 A 
BRANCH   5  12
ATOM     11  C   UNL     1       3.845   3.117  11.092  0.00  0.00    +0.000 C 
ATOM     12  O   UNL     1       5.258   2.992  11.204  0.00  0.00    +0.000 OA
ENDBRANCH   5  12
ENDBRANCH   1   8
BRANCH   3  13
ATOM     13  C   UNL     1       7.390   4.993  18.479  0.00  0.00    +0.000 C 
BRANCH  13  14
ATOM     14  C   UNL     1       6.141   5.367  19.276  0.00  0.00    +0.000 C 
BRANCH  14  15
ATOM     15  C   UNL     1       4.902   5.485  18.382  0.00  0.00    +0.000 C 
BRANCH  15  16
ATOM     16  C   UNL     1       3.686   5.996  19.155  0.00  0.00    +0.000 C 
BRANCH  16  17
ATOM     17  C   UNL     1       2.644   4.916  19.319  0.00  0.00    +0.000 A 
ATOM     18  C   UNL     1       2.133   4.617  20.590  0.00  0.00    +0.000 A 
ATOM     19  C   UNL     1       1.192   3.601  20.754  0.00  0.00    +0.000 A 
ATOM     20  C   UNL     1       0.753   2.869  19.652  0.00  0.00    +0.000 A 
ATOM     21  C   UNL     1       1.253   3.158  18.385  0.00  0.00    +0.000 A 
ATOM     22  C   UNL     1       2.197   4.174  18.217  0.00  0.00    +0.000 A 
ENDBRANCH  16  17
ENDBRANCH  15  16
ENDBRANCH  14  15
ENDBRANCH  13  14
ENDBRANCH   3  13
TORSDOF 7
ENDMDL
MODEL 4
REMARK VINA RESULT:      -6.5      2.036      3.322
REMARK  Name = 
REMARK  8 active torsions:
REMARK  status: ('A' for Active; 'I' for Inactive)
REMARK    1  A    between atoms: C_1  and  O_2
REMARK    2  A    between atoms: O_2  and  C_3
REMARK    3  A    between atoms: C_6  and  C_7
REMARK    4  A    between atoms: N_9  and  C_10
REMARK    5  A    between atoms: C_10  and  C_11
REMARK    6  A    between atoms: C_11  and  C_12
REMARK    7  A    between atoms: C_12  and  C_13
REMARK    8  A    between atoms: C_13  and  C_14
REMARK                            x       y       z     vdW  Elec       q    Type
REMARK                         _______ _______ _______ _____ _____    ______ ____
ROOT
ATOM      1  C   UNL     1       3.289   7.279  18.280  0.00  0.00    +0.000 C 
ATOM      2  O   UNL     1       2.693   8.162  17.667  0.00  0.00    +0.000 OA
ATOM      3  N   UNL     1       2.989   6.963  19.589  0.00  0.00    +0.000 N 
ATOM      4  H   UNL     1       3.403   6.157  20.031  0.00  0.00    +0.000 HD
ENDROOT
BRANCH   1   8
ATOM      5  C   UNL     1       6.423   5.169  16.200  0.00  0.00    +0.000 A 
ATOM      6  C   UNL     1       5.595   6.076  15.540  0.00  0.00    +0.000 A 
ATOM      7  C   UNL     1       4.586   6.746  16.235  0.00  0.00    +0.000 A 
ATOM      8  C   UNL     1       4.376   6.506  17.601  0.00  0.00    +0.000 A 
ATOM      9  C   UNL     1       5.194   5.574  18.252  0.00  0.00    +0.000 A 
ATOM     10  C   UNL     1       6.210   4.907  17.552  0.00  0.00    +0.000 A 
BRANCH   5  12
ATOM     11  C   UNL     1       7.166   4.668  14.015  0.00  0.00    +0.000 C 
ATOM     12  O   UNL     1       7.377   4.576  15.420  0.00  0.00    +0.000 OA
ENDBRANCH   5  12
ENDBRANCH   1   8
BRANCH   3  13
ATOM     13  C   UNL     1       1.909   7.618  20.303  0.00  0.00    +0.000 C 
BRANCH  13  14
ATOM     14  C   UNL     1       1.085   6.631  21.129  0.00  0.00    +0.000 C 
BRANCH  14  15
ATOM     15  C   UNL     1       1.703   5.228  21.134  0.00  0.00    +0.000 C 
BRANCH  15  16
ATOM     16  C   UNL     1       0.915   4.255  20.256  0.00  0.00    +0.000 C 
BRANCH  16  17
ATOM     17  C   UNL     1       1.818   3.542  19.278  0.00  0.00    +0.000 A 
ATOM     18  C   UNL     1       2.718   2.567  19.732  0.00  0.00    +0.000 A 
ATOM     19  C   UNL     1       3.575   1.925  18.838  0.00  0.00    +0.000 A 
ATOM     20  C   UNL     1       3.546   2.250  17.483  0.00  0.00    +0.000 A 
ATOM     21  C   UNL     1       2.655   3.216  17.021  0.00  0.00    +0.000 A 
ATOM     22  C   UNL     1       1.795   3.862  17.913  0.00  0.00    +0.000 A 
ENDBRANCH  16  17
ENDBRANCH  15  16
ENDBRANCH  14  15
ENDBRANCH  13  14
ENDBRANCH   3  13
TORSDOF 7
ENDMDL
MODEL 5
REMARK VINA RESULT:      -6.4      2.009      2.905
REMARK  Name = 
REMARK  8 active torsions:
REMARK  status: ('A' for Active; 'I' for Inactive)
REMARK    1  A    between atoms: C_1  and  O_2
REMARK    2  A    between atoms: O_2  and  C_3
REMARK    3  A    between atoms: C_6  and  C_7
REMARK    4  A    between atoms: N_9  and  C_10
REMARK    5  A    between atoms: C_10  and  C_11
REMARK    6  A    between atoms: C_11  and  C_12
REMARK    7  A    between atoms: C_12  and  C_13
REMARK    8  A    between atoms: C_13  and  C_14
REMARK                            x       y       z     vdW  Elec       q    Type
REMARK                         _______ _______ _______ _____ _____    ______ ____
ROOT
ATOM      1  C   UNL     1       4.180   3.672  18.447  0.00  0.00    +0.000 C 
ATOM      2  O   UNL     1       3.690   2.971  17.564  0.00  0.00    +0.000 OA
ATOM      3  N   UNL     1       3.827   3.536  19.773  0.00  0.00    +0.000 N 
ATOM      4  H   UNL     1       4.329   4.033  20.493  0.00  0.00    +0.000 HD
ENDROOT
BRANCH   1   8
ATOM      5  C   UNL     1       6.992   6.749  17.340  0.00  0.00    +0.000 A 
ATOM      6  C   UNL     1       5.817   6.545  16.618  0.00  0.00    +0.000 A 
ATOM      7  C   UNL     1       4.922   5.540  16.996  0.00  0.00    +0.000 A 
ATOM      8  C   UNL     1       5.198   4.710  18.093  0.00  0.00    +0.000 A 
ATOM      9  C   UNL     1       6.394   4.904  18.796  0.00  0.00    +0.000 A 
ATOM     10  C   UNL     1       7.287   5.916  18.418  0.00  0.00    +0.000 A 
BRANCH   5  12
ATOM     11  C   UNL     1       8.015   8.828  17.797  0.00  0.00    +0.000 C 
ATOM     12  O   UNL     1       7.790   7.761  16.881  0.00  0.00    +0.000 OA
ENDBRANCH   5  12
ENDBRANCH   1   8
BRANCH   3  13
ATOM     13  C   UNL     1       2.897   2.514  20.214  0.00  0.00    +0.000 C 
BRANCH  13  14
ATOM     14  C   UNL     1       1.718   3.105  20.986  0.00  0.00    +0.000 C 
BRANCH  14  15
ATOM     15  C   UNL     1       1.261   4.446  20.402  0.00  0.00    +0.000 C 
BRANCH  15  16
ATOM     16  C   UNL     1       2.004   5.625  21.031  0.00  0.00    +0.000 C 
BRANCH  16  17
ATOM     17  C   UNL     1       1.838   6.882  20.211  0.00  0.00    +0.000 A 
ATOM     18  C   UNL     1       2.352   6.947  18.909  0.00  0.00    +0.000 A 
ATOM     19  C   UNL     1       2.228   8.115  18.156  0.00  0.00    +0.000 A 
ATOM     20  C   UNL     1       1.593   9.231  18.696  0.00  0.00    +0.000 A 
ATOM     21  C   UNL     1       1.077   9.178  19.988  0.00  0.00    +0.000 A 
ATOM     22  C   UNL     1       1.200   8.010  20.746  0.00  0.00    +0.000 A 
ENDBRANCH  16  17
ENDBRANCH  15  16
ENDBRANCH  14  15
ENDBRANCH  13  14
ENDBRANCH   3  13
TORSDOF 7
ENDMDL
MODEL 6
REMARK VINA RESULT:      -6.4      2.119      3.080
REMARK  Name = 
REMARK  8 active torsions:
REMARK  status: ('A' for Active; 'I' for Inactive)
REMARK    1  A    between atoms: C_1  and  O_2
REMARK    2  A    between atoms: O_2  and  C_3
REMARK    3  A    between atoms: C_6  and  C_7
REMARK    4  A    between atoms: N_9  and  C_10
REMARK    5  A    between atoms: C_10  and  C_11
REMARK    6  A    between atoms: C_11  and  C_12
REMARK    7  A    between atoms: C_12  and  C_13
REMARK    8  A    between atoms: C_13  and  C_14
REMARK                            x       y       z     vdW  Elec       q    Type
REMARK                         _______ _______ _______ _____ _____    ______ ____
ROOT
ATOM      1  C   UNL     1       4.816   3.868  17.388  0.00  0.00    +0.000 C 
ATOM      2  O   UNL     1       4.251   3.901  16.297  0.00  0.00    +0.000 OA
ATOM      3  N   UNL     1       4.536   2.900  18.330  0.00  0.00    +0.000 N 
ATOM      4  H   UNL     1       5.095   2.819  19.165  0.00  0.00    +0.000 HD
ENDROOT
BRANCH   1   8
ATOM      5  C   UNL     1       7.673   6.966  18.305  0.00  0.00    +0.000 A 
ATOM      6  C   UNL     1       6.639   7.178  17.395  0.00  0.00    +0.000 A 
ATOM      7  C   UNL     1       5.726   6.158  17.113  0.00  0.00    +0.000 A 
ATOM      8  C   UNL     1       5.845   4.901  17.725  0.00  0.00    +0.000 A 
ATOM      9  C   UNL     1       6.903   4.687  18.617  0.00  0.00    +0.000 A 
ATOM     10  C   UNL     1       7.814   5.714  18.902  0.00  0.00    +0.000 A 
BRANCH   5  12
ATOM     11  C   UNL     1       8.126   9.236  17.839  0.00  0.00    +0.000 C 
ATOM     12  O   UNL     1       8.503   8.035  18.504  0.00  0.00    +0.000 OA
ENDBRANCH   5  12
ENDBRANCH   1   8
BRANCH   3  13
ATOM     13  C   UNL     1       3.600   1.825  18.063  0.00  0.00    +0.000 C 
BRANCH  13  14
ATOM     14  C   UNL     1       2.368   1.899  18.966  0.00  0.00    +0.000 C 
BRANCH  14  15
ATOM     15  C   UNL     1       1.605   3.216  18.790  0.00  0.00    +0.000 C 
BRANCH  15  16
ATOM     16  C   UNL     1       1.666   4.083  20.048  0.00  0.00    +0.000 C 
BRANCH  16  17
ATOM     17  C   UNL     1       1.827   5.544  19.703  0.00  0.00    +0.000 A 
ATOM     18  C   UNL     1       2.238   5.923  18.417  0.00  0.00    +0.000 A 
ATOM     19  C   UNL     1       2.417   7.269  18.099  0.00  0.00    +0.000 A 
ATOM     20  C   UNL     1       2.190   8.252  19.061  0.00  0.00    +0.000 A 
ATOM     21  C   UNL     1       1.780   7.887  20.341  0.00  0.00    +0.000 A 
ATOM     22  C   UNL     1       1.601   6.540  20.664  0.00  0.00    +0.000 A 
ENDBRANCH  16  17
ENDBRANCH  15  16
ENDBRANCH  14  15
ENDBRANCH  13  14
ENDBRANCH   3  13
TORSDOF 7
ENDMDL
MODEL 7
REMARK VINA RESULT:      -6.4      5.100      8.034
REMARK  Name = 
REMARK  8 active torsions:
REMARK  status: ('A' for Active; 'I' for Inactive)
REMARK    1  A    between atoms: C_1  and  O_2
REMARK    2  A    between atoms: O_2  and  C_3
REMARK    3  A    between atoms: C_6  and  C_7
REMARK    4  A    between atoms: N_9  and  C_10
REMARK    5  A    between atoms: C_10  and  C_11
REMARK    6  A    between atoms: C_11  and  C_12
REMARK    7  A    between atoms: C_12  and  C_13
REMARK    8  A    between atoms: C_13  and  C_14
REMARK                            x       y       z     vdW  Elec       q    Type
REMARK                         _______ _______ _______ _____ _____    ______ ____
ROOT
ATOM      1  C   UNL     1       6.534   5.089  18.273  0.00  0.00    +0.000 C 
ATOM      2  O   UNL     1       7.482   4.307  18.305  0.00  0.00    +0.000 OA
ATOM      3  N   UNL     1       6.705   6.454  18.377  0.00  0.00    +0.000 N 
ATOM      4  H   UNL     1       5.931   7.082  18.226  0.00  0.00    +0.000 HD
ENDROOT
BRANCH   1   8
ATOM      5  C   UNL     1       2.473   3.671  17.954  0.00  0.00    +0.000 A 
ATOM      6  C   UNL     1       2.969   4.194  19.148  0.00  0.00    +0.000 A 
ATOM      7  C   UNL     1       4.289   4.646  19.227  0.00  0.00    +0.000 A 
ATOM      8  C   UNL     1       5.141   4.565  18.115  0.00  0.00    +0.000 A 
ATOM      9  C   UNL     1       4.645   4.013  16.928  0.00  0.00    +0.000 A 
ATOM     10  C   UNL     1       3.318   3.566  16.851  0.00  0.00    +0.000 A 
BRANCH   5  12
ATOM     11  C   UNL     1       0.755   2.647  19.208  0.00  0.00    +0.000 C 
ATOM     12  O   UNL     1       1.169   3.264  17.994  0.00  0.00    +0.000 OA
ENDBRANCH   5  12
ENDBRANCH   1   8
BRANCH   3  13
ATOM     13  C   UNL     1       8.023   7.053  18.469  0.00  0.00    +0.000 C 
BRANCH  13  14
ATOM     14  C   UNL     1       8.069   8.443  17.837  0.00  0.00    +0.000 C 
BRANCH  14  15
ATOM     15  C   UNL     1       8.766   9.464  18.742  0.00  0.00    +0.000 C 
BRANCH  15  16
ATOM     16  C   UNL     1       8.760  10.866  18.132  0.00  0.00    +0.000 C 
BRANCH  16  17
ATOM     17  C   UNL     1       9.993  11.643  18.526  0.00  0.00    +0.000 A 
ATOM     18  C   UNL     1      10.784  12.255  17.542  0.00  0.00    +0.000 A 
ATOM     19  C   UNL     1      11.941  12.950  17.895  0.00  0.00    +0.000 A 
ATOM     20  C   UNL     1      12.323  13.040  19.232  0.00  0.00    +0.000 A 
ATOM     21  C   UNL     1      11.544  12.437  20.218  0.00  0.00    +0.000 A 
ATOM     22  C   UNL     1      10.386  11.740  19.868  0.00  0.00    +0.000 A 
ENDBRANCH  16  17
ENDBRANCH  15  16
ENDBRANCH  14  15
ENDBRANCH  13  14
ENDBRANCH   3  13
TORSDOF 7
ENDMDL
MODEL 8
REMARK VINA RESULT:      -6.4      0.888      1.746
REMARK  Name = 
REMARK  8 active torsions:
REMARK  status: ('A' for Active; 'I' for Inactive)
REMARK    1  A    between atoms: C_1  and  O_2
REMARK    2  A    between atoms: O_2  and  C_3
REMARK    3  A    between atoms: C_6  and  C_7
REMARK    4  A    between atoms: N_9  and  C_10
REMARK    5  A    between atoms: C_10  and  C_11
REMARK    6  A    between atoms: C_11  and  C_12
REMARK    7  A    between atoms: C_12  and  C_13
REMARK    8  A    between atoms: C_13  and  C_14
REMARK                            x       y       z     vdW  Elec       q    Type
REMARK                         _______ _______ _______ _____ _____    ______ ____
ROOT
ATOM      1  C   UNL     1       5.401   4.041  18.538  0.00  0.00    +0.000 C 
ATOM      2  O   UNL     1       5.507   4.976  19.328  0.00  0.00    +0.000 OA
ATOM      3  N   UNL     1       4.963   2.794  18.931  0.00  0.00    +0.000 N 
ATOM      4  H   UNL     1       4.768   2.078  18.248  0.00  0.00    +0.000 HD
ENDROOT
BRANCH   1   8
ATOM      5  C   UNL     1       6.574   4.609  14.426  0.00  0.00    +0.000 A 
ATOM      6  C   UNL     1       7.455   4.865  15.475  0.00  0.00    +0.000 A 
ATOM      7  C   UNL     1       7.051   4.675  16.799  0.00  0.00    +0.000 A 
ATOM      8  C   UNL     1       5.750   4.241  17.096  0.00  0.00    +0.000 A 
ATOM      9  C   UNL     1       4.862   4.012  16.038  0.00  0.00    +0.000 A 
ATOM     10  C   UNL     1       5.272   4.199  14.710  0.00  0.00    +0.000 A 
BRANCH   5  12
ATOM     11  C   UNL     1       8.264   5.612  13.118  0.00  0.00    +0.000 C 
ATOM     12  O   UNL     1       7.078   4.827  13.174  0.00  0.00    +0.000 OA
ENDBRANCH   5  12
ENDBRANCH   1   8
BRANCH   3  13
ATOM     13  C   UNL     1       4.544   2.527  20.294  0.00  0.00    +0.000 C 
BRANCH  13  14
ATOM     14  C   UNL     1       3.024   2.572  20.447  0.00  0.00    +0.000 C 
BRANCH  14  15
ATOM     15  C   UNL     1       2.305   2.034  19.206  0.00  0.00    +0.000 C 
BRANCH  15  16
ATOM     16  C   UNL     1       1.235   3.003  18.701  0.00  0.00    +0.000 C 
BRANCH  16  17
ATOM     17  C   UNL     1       1.610   4.436  18.990  0.00  0.00    +0.000 A 
ATOM     18  C   UNL     1       2.132   5.246  17.972  0.00  0.00    +0.000 A 
ATOM     19  C   UNL     1       2.509   6.563  18.237  0.00  0.00    +0.000 A 
ATOM     20  C   UNL     1       2.372   7.085  19.522  0.00  0.00    +0.000 A 
ATOM     21  C   UNL     1       1.853   6.289  20.541  0.00  0.00    +0.000 A 
ATOM     22  C   UNL     1       1.476   4.970  20.280  0.00  0.00    +0.000 A 
ENDBRANCH  16  17
ENDBRANCH  15  16
ENDBRANCH  14  15
ENDBRANCH  13  14
ENDBRANCH   3  13
TORSDOF 7
ENDMDL
MODEL 9
REMARK VINA RESULT:      -6.3      2.572      5.918
REMARK  Name = 
REMARK  8 active torsions:
REMARK  status: ('A' for Active; 'I' for Inactive)
REMARK    1  A    between atoms: C_1  and  O_2
REMARK    2  A    between atoms: O_2  and  C_3
REMARK    3  A    between atoms: C_6  and  C_7
REMARK    4  A    between atoms: N_9  and  C_10
REMARK    5  A    between atoms: C_10  and  C_11
REMARK    6  A    between atoms: C_11  and  C_12
REMARK    7  A    between atoms: C_12  and  C_13
REMARK    8  A    between atoms: C_13  and  C_14
REMARK                            x       y       z     vdW  Elec       q    Type
REMARK                         _______ _______ _______ _____ _____    ______ ____
ROOT
ATOM      1  C   UNL     1       3.088   5.708  19.311  0.00  0.00    +0.000 C 
ATOM      2  O   UNL     1       4.210   5.576  19.795  0.00  0.00    +0.000 OA
ATOM      3  N   UNL     1       2.351   4.632  18.862  0.00  0.00    +0.000 N 
ATOM      4  H   UNL     1       1.389   4.748  18.583  0.00  0.00    +0.000 HD
ENDROOT
BRANCH   1   8
ATOM      5  C   UNL     1       1.352   9.625  18.812  0.00  0.00    +0.000 A 
ATOM      6  C   UNL     1       2.092   9.023  17.795  0.00  0.00    +0.000 A 
ATOM      7  C   UNL     1       2.646   7.753  17.981  0.00  0.00    +0.000 A 
ATOM      8  C   UNL     1       2.483   7.072  19.197  0.00  0.00    +0.000 A 
ATOM      9  C   UNL     1       1.762   7.695  20.223  0.00  0.00    +0.000 A 
ATOM     10  C   UNL     1       1.203   8.966  20.031  0.00  0.00    +0.000 A 
BRANCH   5  12
ATOM     11  C   UNL     1       1.798  11.930  18.565  0.00  0.00    +0.000 C 
ATOM     12  O   UNL     1       0.856  10.864  18.516  0.00  0.00    +0.000 OA
ENDBRANCH   5  12
ENDBRANCH   1   8
BRANCH   3  13
ATOM     13  C   UNL     1       2.833   3.270  18.991  0.00  0.00    +0.000 C 
BRANCH  13  14
ATOM     14  C   UNL     1       3.688   2.848  17.797  0.00  0.00    +0.000 C 
BRANCH  14  15
ATOM     15  C   UNL     1       3.719   3.921  16.703  0.00  0.00    +0.000 C 
BRANCH  15  16
ATOM     16  C   UNL     1       5.095   4.028  16.047  0.00  0.00    +0.000 C 
BRANCH  16  17
ATOM     17  C   UNL     1       5.977   5.014  16.775  0.00  0.00    +0.000 A 
ATOM     18  C   UNL     1       6.978   4.557  17.643  0.00  0.00    +0.000 A 
ATOM     19  C   UNL     1       7.778   5.462  18.341  0.00  0.00    +0.000 A 
ATOM     20  C   UNL     1       7.585   6.833  18.183  0.00  0.00    +0.000 A 
ATOM     21  C   UNL     1       6.594   7.299  17.322  0.00  0.00    +0.000 A 
ATOM     22  C   UNL     1       5.791   6.395  16.622  0.00  0.00    +0.000 A 
ENDBRANCH  16  17
ENDBRANCH  15  16
ENDBRANCH  14  15
ENDBRANCH  13  14
ENDBRANCH   3  13
TORSDOF 7
ENDMDL
