MODEL 1
REMARK VINA RESULT:      -7.1      0.000      0.000
REMARK  Name = 
REMARK  7 active torsions:
REMARK  status: ('A' for Active; 'I' for Inactive)
REMARK    1  A    between atoms: C_1  and  C_2
REMARK    2  A    between atoms: C_4  and  C_5
REMARK    3  A    between atoms: C_5  and  C_7
REMARK    4  A    between atoms: C_7  and  N_8
REMARK    5  A    between atoms: C_11  and  C_12
REMARK    6  A    between atoms: C_15  and  C_16
REMARK    7  A    between atoms: N_17  and  C_18
REMARK                            x       y       z     vdW  Elec       q    Type
REMARK                         _______ _______ _______ _____ _____    ______ ____
ROOT
ATOM      1  C   UNL     1      -0.199   9.922  22.289  0.00  0.00    +0.000 C 
ATOM      2  C   UNL     1       0.496   9.247  21.156  0.00  0.00    +0.000 A 
ATOM      3  C   UNL     1       1.088   8.006  21.200  0.00  0.00    +0.000 A 
ATOM      4  C   UNL     1       1.799   7.771  19.995  0.00  0.00    +0.000 A 
ATOM      5  C   UNL     1       1.494   8.853  19.167  0.00  0.00    +0.000 A 
ATOM      6  C   UNL     1       1.754   9.031  17.703  0.00  0.00    +0.000 C 
ATOM      7  N   UNL     1       0.811   9.819  19.922  0.00  0.00    +0.000 N 
ENDROOT
BRANCH   7   8
ATOM      8  C   UNL     1       0.540  11.168  19.509  0.00  0.00    +0.000 A 
ATOM      9  C   UNL     1       1.485  12.191  19.677  0.00  0.00    +0.000 A 
ATOM     10  C   UNL     1       1.199  13.491  19.254  0.00  0.00    +0.000 A 
ATOM     11  C   UNL     1      -0.038  13.780  18.692  0.00  0.00    +0.000 A 
ATOM     12  F   UNL     1      -0.311  15.034  18.304  0.00  0.00    +0.000 F 
ATOM     13  C   UNL     1      -0.991  12.788  18.525  0.00  0.00    +0.000 A 
ATOM     14  C   UNL     1      -0.697  11.480  18.916  0.00  0.00    +0.000 A 
ENDBRANCH   7   8
BRANCH   4  15
ATOM     15  C   UNL     1       2.639   6.584  19.762  0.00  0.00    +0.000 C 
ATOM     16  O   UNL     1       3.651   6.692  19.051  0.00  0.00    +0.000 OA
BRANCH  15  17
ATOM     17  C   UNL     1       2.291   5.218  20.348  0.00  0.00    +0.000 C 
BRANCH  17  18
ATOM     18  N   UNL     1       1.281   4.530  19.513  0.00  0.00    +0.000 NA
ATOM     19  C   UNL     1       0.953   3.186  20.019  0.00  0.00    +0.000 C 
ATOM     20  C   UNL     1       2.099   2.187  19.852  0.00  0.00    +0.000 C 
ATOM     21  C   UNL     1       2.515   2.083  18.382  0.00  0.00    +0.000 C 
ATOM     22  C   UNL     1       3.731   1.175  18.224  0.00  0.00    +0.000 C 
ATOM     23  C   UNL     1       2.793   3.472  17.794  0.00  0.00    +0.000 C 
ATOM     24  C   UNL     1       1.667   4.463  18.100  0.00  0.00    +0.000 C 
ENDBRANCH  17  18
ENDBRANCH  15  17
ENDBRANCH   4  15
TORSDOF 4
ENDMDL
MODEL 2
REMARK VINA RESULT:      -7.1      2.025      2.666
REMARK  Name = 
REMARK  7 active torsions:
REMARK  status: ('A' for Active; 'I' for Inactive)
REMARK    1  A    between atoms: C_1  and  C_2
REMARK    2  A    between atoms: C_4  and  C_5
REMARK    3  A    between atoms: C_5  and  C_7
REMARK    4  A    between atoms: C_7  and  N_8
REMARK    5  A    between atoms: C_11  and  C_12
REMARK    6  A    between atoms: C_15  and  C_16
REMARK    7  A    between atoms: N_17  and  C_18
REMARK                            x       y       z     vdW  Elec       q    Type
REMARK                         _______ _______ _______ _____ _____    ______ ____
ROOT
ATOM      1  C   UNL     1      -0.087   9.623  22.224  0.00  0.00    +0.000 C 
ATOM      2  C   UNL     1       0.607   8.990  21.067  0.00  0.00    +0.000 A 
ATOM      3  C   UNL     1       1.230   7.762  21.076  0.00  0.00    +0.000 A 
ATOM      4  C   UNL     1       1.927   7.571  19.856  0.00  0.00    +0.000 A 
ATOM      5  C   UNL     1       1.585   8.661  19.055  0.00  0.00    +0.000 A 
ATOM      6  C   UNL     1       1.818   8.876  17.592  0.00  0.00    +0.000 C 
ATOM      7  N   UNL     1       0.890   9.595  19.841  0.00  0.00    +0.000 N 
ENDROOT
BRANCH   7   8
ATOM      8  C   UNL     1       0.579  10.944  19.461  0.00  0.00    +0.000 A 
ATOM      9  C   UNL     1       1.473  11.998  19.702  0.00  0.00    +0.000 A 
ATOM     10  C   UNL     1       1.150  13.300  19.309  0.00  0.00    +0.000 A 
ATOM     11  C   UNL     1      -0.073  13.557  18.704  0.00  0.00    +0.000 A 
ATOM     12  F   UNL     1      -0.382  14.811  18.346  0.00  0.00    +0.000 F 
ATOM     13  C   UNL     1      -0.976  12.533  18.464  0.00  0.00    +0.000 A 
ATOM     14  C   UNL     1      -0.643  11.226  18.825  0.00  0.00    +0.000 A 
ENDBRANCH   7   8
BRANCH   4  15
ATOM     15  C   UNL     1       2.793   6.409  19.586  0.00  0.00    +0.000 C 
ATOM     16  O   UNL     1       2.867   5.503  20.430  0.00  0.00    +0.000 OA
BRANCH  15  17
ATOM     17  C   UNL     1       3.622   6.297  18.308  0.00  0.00    +0.000 C 
BRANCH  17  18
ATOM     18  N   UNL     1       4.829   5.472  18.536  0.00  0.00    +0.000 NA
ATOM     19  C   UNL     1       6.024   6.027  17.877  0.00  0.00    +0.000 C 
ATOM     20  C   UNL     1       5.968   5.926  16.351  0.00  0.00    +0.000 C 
ATOM     21  C   UNL     1       5.784   4.470  15.914  0.00  0.00    +0.000 C 
ATOM     22  C   UNL     1       5.614   4.375  14.400  0.00  0.00    +0.000 C 
ATOM     23  C   UNL     1       4.592   3.830  16.637  0.00  0.00    +0.000 C 
ATOM     24  C   UNL     1       4.638   4.071  18.147  0.00  0.00    +0.000 C 
ENDBRANCH  17  18
ENDBRANCH  15  17
ENDBRANCH   4  15
TORSDOF 4
ENDMDL
MODEL 3
REMARK VINA RESULT:      -7.0      1.341      2.077
REMARK  Name = 
REMARK  7 active torsions:
REMARK  status: ('A' for Active; 'I' for Inactive)
REMARK    1  A    between atoms: C_1  and  C_2
REMARK    2  A    between atoms: C_4  and  C_5
REMARK    3  A    between atoms: C_5  and  C_7
REMARK    4  A    between atoms: C_7  and  N_8
REMARK    5  A    between atoms: C_11  and  C_12
REMARK    6  A    between atoms: C_15  and  C_16
REMARK    7  A    between atoms: N_17  and  C_18
REMARK                            x       y       z     vdW  Elec       q    Type
REMARK                         _______ _______ _______ _____ _____    ______ ____
ROOT
ATOM      1  C   UNL     1       0.110   8.826  22.516  0.00  0.00    +0.000 C 
ATOM      2  C   UNL     1       0.726   8.657  21.170  0.00  0.00    +0.000 A 
ATOM      3  C   UNL     1       1.490   7.587  20.763  0.00  0.00    +0.000 A 
ATOM      4  C   UNL     1       2.048   7.855  19.487  0.00  0.00    +0.000 A 
ATOM      5  C   UNL     1       1.479   9.061  19.077  0.00  0.00    +0.000 A 
ATOM      6  C   UNL     1       1.501   9.711  17.729  0.00  0.00    +0.000 C 
ATOM      7  N   UNL     1       0.779   9.618  20.159  0.00  0.00    +0.000 N 
ENDROOT
BRANCH   7   8
ATOM      8  C   UNL     1       0.262  10.957  20.223  0.00  0.00    +0.000 A 
ATOM      9  C   UNL     1      -1.066  11.247  19.875  0.00  0.00    +0.000 A 
ATOM     10  C   UNL     1      -1.546  12.557  19.959  0.00  0.00    +0.000 A 
ATOM     11  C   UNL     1      -0.697  13.581  20.359  0.00  0.00    +0.000 A 
ATOM     12  F   UNL     1      -1.160  14.837  20.420  0.00  0.00    +0.000 F 
ATOM     13  C   UNL     1       0.621  13.320  20.697  0.00  0.00    +0.000 A 
ATOM     14  C   UNL     1       1.096  12.007  20.646  0.00  0.00    +0.000 A 
ENDBRANCH   7   8
BRANCH   4  15
ATOM     15  C   UNL     1       3.008   6.962  18.814  0.00  0.00    +0.000 C 
ATOM     16  O   UNL     1       3.388   7.242  17.666  0.00  0.00    +0.000 OA
BRANCH  15  17
ATOM     17  C   UNL     1       3.532   5.689  19.476  0.00  0.00    +0.000 C 
BRANCH  17  18
ATOM     18  N   UNL     1       3.090   4.490  18.730  0.00  0.00    +0.000 NA
ATOM     19  C   UNL     1       1.627   4.324  18.746  0.00  0.00    +0.000 C 
ATOM     20  C   UNL     1       1.081   3.945  20.124  0.00  0.00    +0.000 C 
ATOM     21  C   UNL     1       1.738   2.656  20.628  0.00  0.00    +0.000 C 
ATOM     22  C   UNL     1       1.282   2.335  22.048  0.00  0.00    +0.000 C 
ATOM     23  C   UNL     1       3.266   2.760  20.556  0.00  0.00    +0.000 C 
ATOM     24  C   UNL     1       3.747   3.263  19.193  0.00  0.00    +0.000 C 
ENDBRANCH  17  18
ENDBRANCH  15  17
ENDBRANCH   4  15
TORSDOF 4
ENDMDL
MODEL 4
REMARK VINA RESULT:      -7.0      2.100      2.852
REMARK  Name = 
REMARK  7 active torsions:
REMARK  status: ('A' for Active; 'I' for Inactive)
REMARK    1  A    between atoms: C_1  and  C_2
REMARK    2  A    between atoms: C_4  and  C_5
REMARK    3  A    between atoms: C_5  and  C_7
REMARK    4  A    between atoms: C_7  and  N_8
REMARK    5  A    between atoms: C_11  and  C_12
REMARK    6  A    between atoms: C_15  and  C_16
REMARK    7  A    between atoms: N_17  and  C_18
REMARK                            x       y       z     vdW  Elec       q    Type
REMARK                         _______ _______ _______ _____ _____    ______ ____
ROOT
ATOM      1  C   UNL     1      -0.013   9.538  22.360  0.00  0.00    +0.000 C 
ATOM      2  C   UNL     1       0.642   8.867  21.201  0.00  0.00    +0.000 A 
ATOM      3  C   UNL     1       1.264   7.639  21.229  0.00  0.00    +0.000 A 
ATOM      4  C   UNL     1       1.920   7.408  19.993  0.00  0.00    +0.000 A 
ATOM      5  C   UNL     1       1.551   8.472  19.170  0.00  0.00    +0.000 A 
ATOM      6  C   UNL     1       1.735   8.639  17.693  0.00  0.00    +0.000 C 
ATOM      7  N   UNL     1       0.883   9.431  19.948  0.00  0.00    +0.000 N 
ENDROOT
BRANCH   7   8
ATOM      8  C   UNL     1       0.560  10.768  19.534  0.00  0.00    +0.000 A 
ATOM      9  C   UNL     1      -0.641  11.061  18.870  0.00  0.00    +0.000 A 
ATOM     10  C   UNL     1      -0.935  12.373  18.491  0.00  0.00    +0.000 A 
ATOM     11  C   UNL     1      -0.022  13.388  18.746  0.00  0.00    +0.000 A 
ATOM     12  F   UNL     1      -0.304  14.642  18.363  0.00  0.00    +0.000 F 
ATOM     13  C   UNL     1       1.175  13.122  19.391  0.00  0.00    +0.000 A 
ATOM     14  C   UNL     1       1.458  11.817  19.801  0.00  0.00    +0.000 A 
ENDBRANCH   7   8
BRANCH   4  15
ATOM     15  C   UNL     1       2.776   6.237  19.731  0.00  0.00    +0.000 C 
ATOM     16  O   UNL     1       2.595   5.199  20.387  0.00  0.00    +0.000 OA
BRANCH  15  17
ATOM     17  C   UNL     1       3.896   6.269  18.694  0.00  0.00    +0.000 C 
BRANCH  17  18
ATOM     18  N   UNL     1       4.825   5.134  18.889  0.00  0.00    +0.000 NA
ATOM     19  C   UNL     1       6.229   5.506  18.645  0.00  0.00    +0.000 C 
ATOM     20  C   UNL     1       6.527   5.788  17.171  0.00  0.00    +0.000 C 
ATOM     21  C   UNL     1       6.172   4.575  16.307  0.00  0.00    +0.000 C 
ATOM     22  C   UNL     1       6.359   4.890  14.826  0.00  0.00    +0.000 C 
ATOM     23  C   UNL     1       4.738   4.107  16.587  0.00  0.00    +0.000 C 
ATOM     24  C   UNL     1       4.462   3.961  18.085  0.00  0.00    +0.000 C 
ENDBRANCH  17  18
ENDBRANCH  15  17
ENDBRANCH   4  15
TORSDOF 4
ENDMDL
MODEL 5
REMARK VINA RESULT:      -7.0      4.167      5.926
REMARK  Name = 
REMARK  7 active torsions:
REMARK  status: ('A' for Active; 'I' for Inactive)
REMARK    1  A    between atoms: C_1  and  C_2
REMARK    2  A    between atoms: C_4  and  C_5
REMARK    3  A    between atoms: C_5  and  C_7
REMARK    4  A    between atoms: C_7  and  N_8
REMARK    5  A    between atoms: C_11  and  C_12
REMARK    6  A    between atoms: C_15  and  C_16
REMARK    7  A    between atoms: N_17  and  C_18
REMARK                            x       y       z     vdW  Elec       q    Type
REMARK                         _______ _______ _______ _____ _____    ______ ____
ROOT
ATOM      1  C   UNL     1       1.671   4.246  18.100  0.00  0.00    +0.000 C 
ATOM      2  C   UNL     1       3.009   4.820  17.778  0.00  0.00    +0.000 A 
ATOM      3  C   UNL     1       4.122   4.104  17.397  0.00  0.00    +0.000 A 
ATOM      4  C   UNL     1       5.249   4.962  17.347  0.00  0.00    +0.000 A 
ATOM      5  C   UNL     1       4.750   6.247  17.569  0.00  0.00    +0.000 A 
ATOM      6  C   UNL     1       5.424   7.571  17.391  0.00  0.00    +0.000 C 
ATOM      7  N   UNL     1       3.407   6.144  17.967  0.00  0.00    +0.000 N 
ENDROOT
BRANCH   7   8
ATOM      8  C   UNL     1       2.613   7.206  18.518  0.00  0.00    +0.000 A 
ATOM      9  C   UNL     1       2.142   8.260  17.720  0.00  0.00    +0.000 A 
ATOM     10  C   UNL     1       1.361   9.274  18.281  0.00  0.00    +0.000 A 
ATOM     11  C   UNL     1       1.073   9.255  19.639  0.00  0.00    +0.000 A 
ATOM     12  F   UNL     1       0.337  10.240  20.173  0.00  0.00    +0.000 F 
ATOM     13  C   UNL     1       1.535   8.229  20.449  0.00  0.00    +0.000 A 
ATOM     14  C   UNL     1       2.289   7.197  19.887  0.00  0.00    +0.000 A 
ENDBRANCH   7   8
BRANCH   4  15
ATOM     15  C   UNL     1       6.620   4.492  17.084  0.00  0.00    +0.000 C 
ATOM     16  O   UNL     1       7.435   4.457  18.020  0.00  0.00    +0.000 OA
BRANCH  15  17
ATOM     17  C   UNL     1       7.078   4.068  15.690  0.00  0.00    +0.000 C 
BRANCH  17  18
ATOM     18  N   UNL     1       6.646   5.053  14.674  0.00  0.00    +0.000 NA
ATOM     19  C   UNL     1       5.241   4.867  14.272  0.00  0.00    +0.000 C 
ATOM     20  C   UNL     1       5.014   3.591  13.458  0.00  0.00    +0.000 C 
ATOM     21  C   UNL     1       5.900   3.583  12.209  0.00  0.00    +0.000 C 
ATOM     22  C   UNL     1       5.762   2.264  11.454  0.00  0.00    +0.000 C 
ATOM     23  C   UNL     1       7.364   3.849  12.577  0.00  0.00    +0.000 C 
ATOM     24  C   UNL     1       7.516   5.066  13.493  0.00  0.00    +0.000 C 
ENDBRANCH  17  18
ENDBRANCH  15  17
ENDBRANCH   4  15
TORSDOF 4
ENDMDL
MODEL 6
REMARK VINA RESULT:      -6.9      3.045      4.597
REMARK  Name = 
REMARK  7 active torsions:
REMARK  status: ('A' for Active; 'I' for Inactive)
REMARK    1  A    between atoms: C_1  and  C_2
REMARK    2  A    between atoms: C_4  and  C_5
REMARK    3  A    between atoms: C_5  and  C_7
REMARK    4  A    between atoms: C_7  and  N_8
REMARK    5  A    between atoms: C_11  and  C_12
REMARK    6  A    between atoms: C_15  and  C_16
REMARK    7  A    between atoms: N_17  and  C_18
REMARK                            x       y       z     vdW  Elec       q    Type
REMARK                         _______ _______ _______ _____ _____    ______ ____
ROOT
ATOM      1  C   UNL     1       2.174  10.019  17.934  0.00  0.00    +0.000 C 
ATOM      2  C   UNL     1       2.314   8.611  18.403  0.00  0.00    +0.000 A 
ATOM      3  C   UNL     1       2.827   7.565  17.670  0.00  0.00    +0.000 A 
ATOM      4  C   UNL     1       2.639   6.349  18.375  0.00  0.00    +0.000 A 
ATOM      5  C   UNL     1       2.126   6.715  19.620  0.00  0.00    +0.000 A 
ATOM      6  C   UNL     1       1.961   5.890  20.858  0.00  0.00    +0.000 C 
ATOM      7  N   UNL     1       1.800   8.080  19.588  0.00  0.00    +0.000 N 
ENDROOT
BRANCH   7   8
ATOM      8  C   UNL     1       1.028   8.781  20.576  0.00  0.00    +0.000 A 
ATOM      9  C   UNL     1      -0.101   9.536  20.225  0.00  0.00    +0.000 A 
ATOM     10  C   UNL     1      -0.840  10.197  21.209  0.00  0.00    +0.000 A 
ATOM     11  C   UNL     1      -0.440  10.131  22.537  0.00  0.00    +0.000 A 
ATOM     12  F   UNL     1      -1.144  10.782  23.473  0.00  0.00    +0.000 F 
ATOM     13  C   UNL     1       0.678   9.399  22.907  0.00  0.00    +0.000 A 
ATOM     14  C   UNL     1       1.401   8.710  21.930  0.00  0.00    +0.000 A 
ENDBRANCH   7   8
BRANCH   4  15
ATOM     15  C   UNL     1       2.973   5.025  17.819  0.00  0.00    +0.000 C 
ATOM     16  O   UNL     1       2.355   4.028  18.225  0.00  0.00    +0.000 OA
BRANCH  15  17
ATOM     17  C   UNL     1       4.074   4.838  16.777  0.00  0.00    +0.000 C 
BRANCH  17  18
ATOM     18  N   UNL     1       5.233   4.128  17.360  0.00  0.00    +0.000 NA
ATOM     19  C   UNL     1       5.548   4.587  18.724  0.00  0.00    +0.000 C 
ATOM     20  C   UNL     1       6.113   6.009  18.763  0.00  0.00    +0.000 C 
ATOM     21  C   UNL     1       7.371   6.113  17.895  0.00  0.00    +0.000 C 
ATOM     22  C   UNL     1       7.873   7.553  17.839  0.00  0.00    +0.000 C 
ATOM     23  C   UNL     1       7.106   5.573  16.484  0.00  0.00    +0.000 C 
ATOM     24  C   UNL     1       6.427   4.202  16.510  0.00  0.00    +0.000 C 
ENDBRANCH  17  18
ENDBRANCH  15  17
ENDBRANCH   4  15
TORSDOF 4
ENDMDL
MODEL 7
REMARK VINA RESULT:      -6.9      2.724      3.472
REMARK  Name = 
REMARK  7 active torsions:
REMARK  status: ('A' for Active; 'I' for Inactive)
REMARK    1  A    between atoms: C_1  and  C_2
REMARK    2  A    between atoms: C_4  and  C_5
REMARK    3  A    between atoms: C_5  and  C_7
REMARK    4  A    between atoms: C_7  and  N_8
REMARK    5  A    between atoms: C_11  and  C_12
REMARK    6  A    between atoms: C_15  and  C_16
REMARK    7  A    between atoms: N_17  and  C_18
REMARK                            x       y       z     vdW  Elec       q    Type
REMARK                         _______ _______ _______ _____ _____    ______ ____
ROOT
ATOM      1  C   UNL     1       0.685   9.046  22.278  0.00  0.00    +0.000 C 
ATOM      2  C   UNL     1       1.173   8.379  21.038  0.00  0.00    +0.000 A 
ATOM      3  C   UNL     1       1.765   7.138  20.970  0.00  0.00    +0.000 A 
ATOM      4  C   UNL     1       2.255   6.913  19.659  0.00  0.00    +0.000 A 
ATOM      5  C   UNL     1       1.812   7.999  18.903  0.00  0.00    +0.000 A 
ATOM      6  C   UNL     1       1.814   8.186  17.418  0.00  0.00    +0.000 C 
ATOM      7  N   UNL     1       1.270   8.960  19.772  0.00  0.00    +0.000 N 
ENDROOT
BRANCH   7   8
ATOM      8  C   UNL     1       0.930  10.310  19.421  0.00  0.00    +0.000 A 
ATOM      9  C   UNL     1       1.917  11.291  19.239  0.00  0.00    +0.000 A 
ATOM     10  C   UNL     1       1.558  12.594  18.884  0.00  0.00    +0.000 A 
ATOM     11  C   UNL     1       0.218  12.928  18.741  0.00  0.00    +0.000 A 
ATOM     12  F   UNL     1      -0.118  14.185  18.418  0.00  0.00    +0.000 F 
ATOM     13  C   UNL     1      -0.775  11.979  18.925  0.00  0.00    +0.000 A 
ATOM     14  C   UNL     1      -0.419  10.667  19.247  0.00  0.00    +0.000 A 
ENDBRANCH   7   8
BRANCH   4  15
ATOM     15  C   UNL     1       3.043   5.728  19.276  0.00  0.00    +0.000 C 
ATOM     16  O   UNL     1       2.455   4.734  18.822  0.00  0.00    +0.000 OA
BRANCH  15  17
ATOM     17  C   UNL     1       4.560   5.676  19.444  0.00  0.00    +0.000 C 
BRANCH  17  18
ATOM     18  N   UNL     1       5.208   5.188  18.206  0.00  0.00    +0.000 NA
ATOM     19  C   UNL     1       6.629   4.855  18.408  0.00  0.00    +0.000 C 
ATOM     20  C   UNL     1       7.505   6.086  18.649  0.00  0.00    +0.000 C 
ATOM     21  C   UNL     1       7.381   7.074  17.485  0.00  0.00    +0.000 C 
ATOM     22  C   UNL     1       8.162   8.352  17.772  0.00  0.00    +0.000 C 
ATOM     23  C   UNL     1       5.909   7.389  17.192  0.00  0.00    +0.000 C 
ATOM     24  C   UNL     1       5.058   6.121  17.084  0.00  0.00    +0.000 C 
ENDBRANCH  17  18
ENDBRANCH  15  17
ENDBRANCH   4  15
TORSDOF 4
ENDMDL
MODEL 8
REMARK VINA RESULT:      -6.9      3.605      7.805
REMARK  Name = 
REMARK  7 active torsions:
REMARK  status: ('A' for Active; 'I' for Inactive)
REMARK    1  A    between atoms: C_1  and  C_2
REMARK    2  A    between atoms: C_4  and  C_5
REMARK    3  A    between atoms: C_5  and  C_7
REMARK    4  A    between atoms: C_7  and  N_8
REMARK    5  A    between atoms: C_11  and  C_12
REMARK    6  A    between atoms: C_15  and  C_16
REMARK    7  A    between atoms: N_17  and  C_18
REMARK                            x       y       z     vdW  Elec       q    Type
REMARK                         _______ _______ _______ _____ _____    ______ ____
ROOT
ATOM      1  C   UNL     1       2.095   5.157  21.211  0.00  0.00    +0.000 C 
ATOM      2  C   UNL     1       2.019   6.456  20.483  0.00  0.00    +0.000 A 
ATOM      3  C   UNL     1       1.290   7.556  20.874  0.00  0.00    +0.000 A 
ATOM      4  C   UNL     1       1.317   8.537  19.850  0.00  0.00    +0.000 A 
ATOM      5  C   UNL     1       2.206   8.049  18.891  0.00  0.00    +0.000 A 
ATOM      6  C   UNL     1       2.816   8.752  17.718  0.00  0.00    +0.000 C 
ATOM      7  N   UNL     1       2.528   6.721  19.211  0.00  0.00    +0.000 N 
ENDROOT
BRANCH   7   8
ATOM      8  C   UNL     1       3.213   5.795  18.353  0.00  0.00    +0.000 A 
ATOM      9  C   UNL     1       2.539   4.727  17.740  0.00  0.00    +0.000 A 
ATOM     10  C   UNL     1       3.228   3.849  16.899  0.00  0.00    +0.000 A 
ATOM     11  C   UNL     1       4.591   4.015  16.692  0.00  0.00    +0.000 A 
ATOM     12  F   UNL     1       5.248   3.158  15.897  0.00  0.00    +0.000 F 
ATOM     13  C   UNL     1       5.279   5.056  17.294  0.00  0.00    +0.000 A 
ATOM     14  C   UNL     1       4.589   5.955  18.109  0.00  0.00    +0.000 A 
ENDBRANCH   7   8
BRANCH   4  15
ATOM     15  C   UNL     1       0.544   9.790  19.901  0.00  0.00    +0.000 C 
ATOM     16  O   UNL     1       1.084  10.814  20.348  0.00  0.00    +0.000 OA
BRANCH  15  17
ATOM     17  C   UNL     1      -0.911   9.862  19.442  0.00  0.00    +0.000 C 
BRANCH  17  18
ATOM     18  N   UNL     1      -1.028  10.636  18.187  0.00  0.00    +0.000 NA
ATOM     19  C   UNL     1      -1.640  11.959  18.395  0.00  0.00    +0.000 C 
ATOM     20  C   UNL     1      -3.126  11.884  18.751  0.00  0.00    +0.000 C 
ATOM     21  C   UNL     1      -3.904  11.137  17.663  0.00  0.00    +0.000 C 
ATOM     22  C   UNL     1      -5.365  10.959  18.066  0.00  0.00    +0.000 C 
ATOM     23  C   UNL     1      -3.253   9.781  17.361  0.00  0.00    +0.000 C 
ATOM     24  C   UNL     1      -1.744   9.903  17.136  0.00  0.00    +0.000 C 
ENDBRANCH  17  18
ENDBRANCH  15  17
ENDBRANCH   4  15
TORSDOF 4
ENDMDL
MODEL 9
REMARK VINA RESULT:      -6.8      4.957      7.464
REMARK  Name = 
REMARK  7 active torsions:
REMARK  status: ('A' for Active; 'I' for Inactive)
REMARK    1  A    between atoms: C_1  and  C_2
REMARK    2  A    between atoms: C_4  and  C_5
REMARK    3  A    between atoms: C_5  and  C_7
REMARK    4  A    between atoms: C_7  and  N_8
REMARK    5  A    between atoms: C_11  and  C_12
REMARK    6  A    between atoms: C_15  and  C_16
REMARK    7  A    between atoms: N_17  and  C_18
REMARK                            x       y       z     vdW  Elec       q    Type
REMARK                         _______ _______ _______ _____ _____    ______ ____
ROOT
ATOM      1  C   UNL     1       1.906   7.633  18.050  0.00  0.00    +0.000 C 
ATOM      2  C   UNL     1       3.261   7.019  17.959  0.00  0.00    +0.000 A 
ATOM      3  C   UNL     1       4.293   7.460  17.161  0.00  0.00    +0.000 A 
ATOM      4  C   UNL     1       5.363   6.531  17.205  0.00  0.00    +0.000 A 
ATOM      5  C   UNL     1       4.998   5.589  18.169  0.00  0.00    +0.000 A 
ATOM      6  C   UNL     1       5.827   4.523  18.815  0.00  0.00    +0.000 C 
ATOM      7  N   UNL     1       3.660   5.809  18.529  0.00  0.00    +0.000 N 
ENDROOT
BRANCH   7   8
ATOM      8  C   UNL     1       2.842   4.917  19.302  0.00  0.00    +0.000 A 
ATOM      9  C   UNL     1       2.017   3.961  18.688  0.00  0.00    +0.000 A 
ATOM     10  C   UNL     1       1.242   3.096  19.465  0.00  0.00    +0.000 A 
ATOM     11  C   UNL     1       1.264   3.202  20.850  0.00  0.00    +0.000 A 
ATOM     12  F   UNL     1       0.505   2.380  21.588  0.00  0.00    +0.000 F 
ATOM     13  C   UNL     1       2.063   4.145  21.478  0.00  0.00    +0.000 A 
ATOM     14  C   UNL     1       2.865   4.989  20.706  0.00  0.00    +0.000 A 
ENDBRANCH   7   8
BRANCH   4  15
ATOM     15  C   UNL     1       6.575   6.644  16.376  0.00  0.00    +0.000 C 
ATOM     16  O   UNL     1       7.615   7.088  16.887  0.00  0.00    +0.000 OA
BRANCH  15  17
ATOM     17  C   UNL     1       6.586   6.254  14.900  0.00  0.00    +0.000 C 
BRANCH  17  18
ATOM     18  N   UNL     1       7.323   4.988  14.697  0.00  0.00    +0.000 NA
ATOM     19  C   UNL     1       7.860   4.861  13.331  0.00  0.00    +0.000 C 
ATOM     20  C   UNL     1       6.770   4.658  12.275  0.00  0.00    +0.000 C 
ATOM     21  C   UNL     1       5.928   3.422  12.600  0.00  0.00    +0.000 C 
ATOM     22  C   UNL     1       4.771   3.279  11.616  0.00  0.00    +0.000 C 
ATOM     23  C   UNL     1       5.411   3.478  14.043  0.00  0.00    +0.000 C 
ATOM     24  C   UNL     1       6.524   3.807  15.042  0.00  0.00    +0.000 C 
ENDBRANCH  17  18
ENDBRANCH  15  17
ENDBRANCH   4  15
TORSDOF 4
ENDMDL
