MODEL 1
REMARK VINA RESULT:      -7.9      0.000      0.000
REMARK  Name = 
REMARK  13 active torsions:
REMARK  status: ('A' for Active; 'I' for Inactive)
REMARK    1  A    between atoms: C_1  and  C_2
REMARK    2  A    between atoms: C_2  and  C_3
REMARK    3  A    between atoms: C_2  and  C_4
REMARK    4  A    between atoms: C_4  and  C_5
REMARK    5  A    between atoms: N_7  and  C_8
REMARK    6  A    between atoms: C_8  and  C_9
REMARK    7  A    between atoms: C_9  and  C_10
REMARK    8  A    between atoms: C_10  and  C_11
REMARK    9  A    between atoms: C_11  and  C_12
REMARK   10  A    between atoms: C_15  and  C_16
REMARK   11  A    between atoms: N_24  and  C_25
REMARK   12  A    between atoms: C_25  and  C_26
REMARK   13  A    between atoms: C_26  and  C_27
REMARK                            x       y       z     vdW  Elec       q    Type
REMARK                         _______ _______ _______ _____ _____    ______ ____
ROOT
ATOM      1  C   UNL     1       4.084   6.098  18.161  0.00  0.00    +0.000 C 
ATOM      2  C   UNL     1       5.071   7.221  17.814  0.00  0.00    +0.000 C 
ATOM      3  N   UNL     1       6.167   6.551  17.164  0.00  0.00    +0.000 N 
ATOM      4  C   UNL     1       5.793   5.261  16.752  0.00  0.00    +0.000 C 
ATOM      5  S   UNL     1       6.752   4.199  15.893  0.00  0.00    +0.000 S 
ATOM      6  N   UNL     1       4.466   5.014  17.240  0.00  0.00    +0.000 N 
ENDROOT
BRANCH   1   7
ATOM      7  C   UNL     1       2.658   6.670  18.077  0.00  0.00    +0.000 C 
BRANCH   7   9
ATOM      8  C   UNL     1       1.448   8.934  17.916  0.00  0.00    +0.000 C 
ATOM      9  C   UNL     1       2.358   8.024  18.738  0.00  0.00    +0.000 C 
ATOM     10  C   UNL     1       1.744   7.802  20.128  0.00  0.00    +0.000 C 
ENDBRANCH   7   9
ENDBRANCH   1   7
BRANCH   3  11
ATOM     11  C   UNL     1       7.422   7.260  16.917  0.00  0.00    +0.000 C 
BRANCH  11  12
ATOM     12  C   UNL     1       8.059   7.915  18.145  0.00  0.00    +0.000 C 
BRANCH  12  13
ATOM     13  C   UNL     1       8.327   9.414  18.003  0.00  0.00    +0.000 C 
BRANCH  13  14
ATOM     14  C   UNL     1       9.365   9.859  19.038  0.00  0.00    +0.000 C 
BRANCH  14  15
ATOM     15  C   UNL     1       9.191  11.312  19.473  0.00  0.00    +0.000 C 
ATOM     16  C   UNL     1       9.820  11.579  20.857  0.00  0.00    +0.000 C 
ATOM     17  N   UNL     1      10.440  12.865  20.642  0.00  0.00    +0.000 N 
ATOM     18  C   UNL     1      10.562  13.055  19.289  0.00  0.00    +0.000 C 
ATOM     19  N   UNL     1       9.900  12.225  18.525  0.00  0.00    +0.000 NA
ATOM     20  H   UNL     1      11.229  13.111  21.228  0.00  0.00    +0.000 HD
BRANCH  18  21
ATOM     21  C   UNL     1      11.454  14.104  18.684  0.00  0.00    +0.000 C 
ATOM     22  C   UNL     1      11.076  14.510  17.266  0.00  0.00    +0.000 C 
ATOM     23  C   UNL     1      11.784  15.844  17.077  0.00  0.00    +0.000 C 
ATOM     24  C   UNL     1      11.831  16.490  18.460  0.00  0.00    +0.000 C 
ATOM     25  C   UNL     1      11.392  15.417  19.455  0.00  0.00    +0.000 C 
ENDBRANCH  18  21
ENDBRANCH  14  15
ENDBRANCH  13  14
ENDBRANCH  12  13
ENDBRANCH  11  12
ENDBRANCH   3  11
BRANCH   6  26
ATOM     26  C   UNL     1       3.997   3.639  17.478  0.00  0.00    +0.000 C 
BRANCH  26  27
ATOM     27  C   UNL     1       4.330   3.049  18.859  0.00  0.00    +0.000 C 
BRANCH  27  28
ATOM     28  C   UNL     1       3.120   2.271  19.445  0.00  0.00    +0.000 C 
ATOM     29  C   UNL     1       2.854   2.628  20.919  0.00  0.00    +0.000 C 
ATOM     30  C   UNL     1       2.133   3.960  21.104  0.00  0.00    +0.000 C 
ATOM     31  C   UNL     1       0.831   3.989  20.312  0.00  0.00    +0.000 C 
ATOM     32  C   UNL     1       1.094   3.737  18.832  0.00  0.00    +0.000 C 
ATOM     33  C   UNL     1       1.832   2.418  18.609  0.00  0.00    +0.000 C 
ENDBRANCH  27  28
ENDBRANCH  26  27
ENDBRANCH   6  26
TORSDOF 11
ENDMDL
MODEL 2
REMARK VINA RESULT:      -7.9      5.368     10.090
REMARK  Name = 
REMARK  13 active torsions:
REMARK  status: ('A' for Active; 'I' for Inactive)
REMARK    1  A    between atoms: C_1  and  C_2
REMARK    2  A    between atoms: C_2  and  C_3
REMARK    3  A    between atoms: C_2  and  C_4
REMARK    4  A    between atoms: C_4  and  C_5
REMARK    5  A    between atoms: N_7  and  C_8
REMARK    6  A    between atoms: C_8  and  C_9
REMARK    7  A    between atoms: C_9  and  C_10
REMARK    8  A    between atoms: C_10  and  C_11
REMARK    9  A    between atoms: C_11  and  C_12
REMARK   10  A    between atoms: C_15  and  C_16
REMARK   11  A    between atoms: N_24  and  C_25
REMARK   12  A    between atoms: C_25  and  C_26
REMARK   13  A    between atoms: C_26  and  C_27
REMARK                            x       y       z     vdW  Elec       q    Type
REMARK                         _______ _______ _______ _____ _____    ______ ____
ROOT
ATOM      1  C   UNL     1       3.169   6.353  18.300  0.00  0.00    +0.000 C 
ATOM      2  C   UNL     1       2.978   7.734  17.657  0.00  0.00    +0.000 C 
ATOM      3  N   UNL     1       2.016   8.394  18.500  0.00  0.00    +0.000 N 
ATOM      4  C   UNL     1       1.903   7.741  19.739  0.00  0.00    +0.000 C 
ATOM      5  S   UNL     1       0.955   8.244  21.018  0.00  0.00    +0.000 S 
ATOM      6  N   UNL     1       2.709   6.555  19.684  0.00  0.00    +0.000 N 
ENDROOT
BRANCH   1   7
ATOM      7  C   UNL     1       4.624   5.911  18.062  0.00  0.00    +0.000 C 
BRANCH   7   9
ATOM      8  C   UNL     1       6.883   6.903  17.334  0.00  0.00    +0.000 C 
ATOM      9  C   UNL     1       5.438   6.591  16.951  0.00  0.00    +0.000 C 
ATOM     10  C   UNL     1       5.418   5.723  15.684  0.00  0.00    +0.000 C 
ENDBRANCH   7   9
ENDBRANCH   1   7
BRANCH   3  11
ATOM     11  C   UNL     1       1.387   9.640  18.064  0.00  0.00    +0.000 C 
BRANCH  11  12
ATOM     12  C   UNL     1       1.160  10.680  19.165  0.00  0.00    +0.000 C 
BRANCH  12  13
ATOM     13  C   UNL     1      -0.277  11.194  19.272  0.00  0.00    +0.000 C 
BRANCH  13  14
ATOM     14  C   UNL     1      -1.161  10.495  18.233  0.00  0.00    +0.000 C 
BRANCH  14  15
ATOM     15  C   UNL     1      -2.070  11.459  17.475  0.00  0.00    +0.000 C 
ATOM     16  C   UNL     1      -2.459  10.913  16.085  0.00  0.00    +0.000 C 
ATOM     17  N   UNL     1      -3.856  11.275  16.020  0.00  0.00    +0.000 N 
ATOM     18  C   UNL     1      -4.288  11.526  17.298  0.00  0.00    +0.000 C 
ATOM     19  N   UNL     1      -3.358  11.644  18.212  0.00  0.00    +0.000 NA
ATOM     20  H   UNL     1      -4.456  10.726  15.417  0.00  0.00    +0.000 HD
BRANCH  18  21
ATOM     21  C   UNL     1      -5.742  11.597  17.675  0.00  0.00    +0.000 C 
ATOM     22  C   UNL     1      -6.004  11.614  19.175  0.00  0.00    +0.000 C 
ATOM     23  C   UNL     1      -7.424  12.149  19.282  0.00  0.00    +0.000 C 
ATOM     24  C   UNL     1      -7.604  13.094  18.096  0.00  0.00    +0.000 C 
ATOM     25  C   UNL     1      -6.392  12.886  17.190  0.00  0.00    +0.000 C 
ENDBRANCH  18  21
ENDBRANCH  14  15
ENDBRANCH  13  14
ENDBRANCH  12  13
ENDBRANCH  11  12
ENDBRANCH   3  11
BRANCH   6  26
ATOM     26  C   UNL     1       2.401   5.398  20.540  0.00  0.00    +0.000 C 
BRANCH  26  27
ATOM     27  C   UNL     1       1.265   4.486  20.048  0.00  0.00    +0.000 C 
BRANCH  27  28
ATOM     28  C   UNL     1       1.596   2.990  20.300  0.00  0.00    +0.000 C 
ATOM     29  C   UNL     1       1.219   2.098  19.102  0.00  0.00    +0.000 C 
ATOM     30  C   UNL     1       2.221   2.164  17.953  0.00  0.00    +0.000 C 
ATOM     31  C   UNL     1       3.626   1.829  18.436  0.00  0.00    +0.000 C 
ATOM     32  C   UNL     1       4.051   2.772  19.556  0.00  0.00    +0.000 C 
ATOM     33  C   UNL     1       3.061   2.745  20.718  0.00  0.00    +0.000 C 
ENDBRANCH  27  28
ENDBRANCH  26  27
ENDBRANCH   6  26
TORSDOF 11
ENDMDL
MODEL 3
REMARK VINA RESULT:      -7.9      6.024      9.082
REMARK  Name = 
REMARK  13 active torsions:
REMARK  status: ('A' for Active; 'I' for Inactive)
REMARK    1  A    between atoms: C_1  and  C_2
REMARK    2  A    between atoms: C_2  and  C_3
REMARK    3  A    between atoms: C_2  and  C_4
REMARK    4  A    between atoms: C_4  and  C_5
REMARK    5  A    between atoms: N_7  and  C_8
REMARK    6  A    between atoms: C_8  and  C_9
REMARK    7  A    between atoms: C_9  and  C_10
REMARK    8  A    between atoms: C_10  and  C_11
REMARK    9  A    between atoms: C_11  and  C_12
REMARK   10  A    between atoms: C_15  and  C_16
REMARK   11  A    between atoms: N_24  and  C_25
REMARK   12  A    between atoms: C_25  and  C_26
REMARK   13  A    between atoms: C_26  and  C_27
REMARK                            x       y       z     vdW  Elec       q    Type
REMARK                         _______ _______ _______ _____ _____    ______ ____
ROOT
ATOM      1  C   UNL     1       2.235   5.221  19.973  0.00  0.00    +0.000 C 
ATOM      2  C   UNL     1       1.487   6.187  20.902  0.00  0.00    +0.000 C 
ATOM      3  N   UNL     1       1.707   7.487  20.324  0.00  0.00    +0.000 N 
ATOM      4  C   UNL     1       2.158   7.377  18.998  0.00  0.00    +0.000 C 
ATOM      5  S   UNL     1       2.448   8.652  17.961  0.00  0.00    +0.000 S 
ATOM      6  N   UNL     1       2.360   5.983  18.719  0.00  0.00    +0.000 N 
ENDROOT
BRANCH   1   7
ATOM      7  C   UNL     1       1.469   3.886  19.953  0.00  0.00    +0.000 C 
BRANCH   7   9
ATOM      8  C   UNL     1       2.275   2.118  18.268  0.00  0.00    +0.000 C 
ATOM      9  C   UNL     1       2.249   2.583  19.722  0.00  0.00    +0.000 C 
ATOM     10  C   UNL     1       3.686   2.735  20.240  0.00  0.00    +0.000 C 
ENDBRANCH   7   9
ENDBRANCH   1   7
BRANCH   3  11
ATOM     11  C   UNL     1       1.362   8.695  21.073  0.00  0.00    +0.000 C 
BRANCH  11  12
ATOM     12  C   UNL     1       0.024   9.338  20.700  0.00  0.00    +0.000 C 
BRANCH  12  13
ATOM     13  C   UNL     1      -0.325  10.597  21.496  0.00  0.00    +0.000 C 
BRANCH  13  14
ATOM     14  C   UNL     1       0.363  11.816  20.873  0.00  0.00    +0.000 C 
BRANCH  14  15
ATOM     15  C   UNL     1      -0.568  12.638  19.985  0.00  0.00    +0.000 C 
ATOM     16  C   UNL     1       0.138  13.121  18.700  0.00  0.00    +0.000 C 
ATOM     17  N   UNL     1      -0.896  12.913  17.714  0.00  0.00    +0.000 N 
ATOM     18  C   UNL     1      -1.812  12.037  18.240  0.00  0.00    +0.000 C 
ATOM     19  N   UNL     1      -1.716  11.800  19.523  0.00  0.00    +0.000 NA
ATOM     20  H   UNL     1      -0.608  12.776  16.752  0.00  0.00    +0.000 HD
BRANCH  18  21
ATOM     21  C   UNL     1      -2.836  11.319  17.404  0.00  0.00    +0.000 C 
ATOM     22  C   UNL     1      -2.669  11.511  15.902  0.00  0.00    +0.000 C 
ATOM     23  C   UNL     1      -3.474  10.366  15.306  0.00  0.00    +0.000 C 
ATOM     24  C   UNL     1      -3.381   9.222  16.315  0.00  0.00    +0.000 C 
ATOM     25  C   UNL     1      -2.753   9.808  17.578  0.00  0.00    +0.000 C 
ENDBRANCH  18  21
ENDBRANCH  14  15
ENDBRANCH  13  14
ENDBRANCH  12  13
ENDBRANCH  11  12
ENDBRANCH   3  11
BRANCH   6  26
ATOM     26  C   UNL     1       3.314   5.556  17.683  0.00  0.00    +0.000 C 
BRANCH  26  27
ATOM     27  C   UNL     1       4.802   5.663  18.059  0.00  0.00    +0.000 C 
BRANCH  27  28
ATOM     28  C   UNL     1       5.588   4.401  17.609  0.00  0.00    +0.000 C 
ATOM     29  C   UNL     1       4.972   3.743  16.361  0.00  0.00    +0.000 C 
ATOM     30  C   UNL     1       5.314   4.464  15.060  0.00  0.00    +0.000 C 
ATOM     31  C   UNL     1       6.822   4.601  14.893  0.00  0.00    +0.000 C 
ATOM     32  C   UNL     1       7.431   5.342  16.078  0.00  0.00    +0.000 C 
ATOM     33  C   UNL     1       7.095   4.657  17.401  0.00  0.00    +0.000 C 
ENDBRANCH  27  28
ENDBRANCH  26  27
ENDBRANCH   6  26
TORSDOF 11
ENDMDL
MODEL 4
REMARK VINA RESULT:      -7.7      1.706      2.695
REMARK  Name = 
REMARK  13 active torsions:
REMARK  status: ('A' for Active; 'I' for Inactive)
REMARK    1  A    between atoms: C_1  and  C_2
REMARK    2  A    between atoms: C_2  and  C_3
REMARK    3  A    between atoms: C_2  and  C_4
REMARK    4  A    between atoms: C_4  and  C_5
REMARK    5  A    between atoms: N_7  and  C_8
REMARK    6  A    between atoms: C_8  and  C_9
REMARK    7  A    between atoms: C_9  and  C_10
REMARK    8  A    between atoms: C_10  and  C_11
REMARK    9  A    between atoms: C_11  and  C_12
REMARK   10  A    between atoms: C_15  and  C_16
REMARK   11  A    between atoms: N_24  and  C_25
REMARK   12  A    between atoms: C_25  and  C_26
REMARK   13  A    between atoms: C_26  and  C_27
REMARK                            x       y       z     vdW  Elec       q    Type
REMARK                         _______ _______ _______ _____ _____    ______ ____
ROOT
ATOM      1  C   UNL     1       3.846   5.623  18.037  0.00  0.00    +0.000 C 
ATOM      2  C   UNL     1       4.972   6.649  17.852  0.00  0.00    +0.000 C 
ATOM      3  N   UNL     1       5.955   5.967  17.051  0.00  0.00    +0.000 N 
ATOM      4  C   UNL     1       5.400   4.831  16.436  0.00  0.00    +0.000 C 
ATOM      5  S   UNL     1       6.190   3.823  15.366  0.00  0.00    +0.000 S 
ATOM      6  N   UNL     1       4.060   4.679  16.927  0.00  0.00    +0.000 N 
ENDROOT
BRANCH   1   7
ATOM      7  C   UNL     1       2.511   6.385  18.113  0.00  0.00    +0.000 C 
BRANCH   7   9
ATOM      8  C   UNL     1       1.755   8.831  17.869  0.00  0.00    +0.000 C 
ATOM      9  C   UNL     1       2.492   7.797  18.718  0.00  0.00    +0.000 C 
ATOM     10  C   UNL     1       1.878   7.754  20.124  0.00  0.00    +0.000 C 
ENDBRANCH   7   9
ENDBRANCH   1   7
BRANCH   3  11
ATOM     11  C   UNL     1       7.291   6.535  16.880  0.00  0.00    +0.000 C 
BRANCH  11  12
ATOM     12  C   UNL     1       7.721   7.534  17.957  0.00  0.00    +0.000 C 
BRANCH  12  13
ATOM     13  C   UNL     1       8.505   8.740  17.434  0.00  0.00    +0.000 C 
BRANCH  13  14
ATOM     14  C   UNL     1       8.160   9.985  18.259  0.00  0.00    +0.000 C 
BRANCH  14  15
ATOM     15  C   UNL     1       9.392  10.684  18.828  0.00  0.00    +0.000 C 
ATOM     16  C   UNL     1       9.548  12.117  18.276  0.00  0.00    +0.000 C 
ATOM     17  N   UNL     1       9.944  12.836  19.464  0.00  0.00    +0.000 N 
ATOM     18  C   UNL     1       9.601  12.075  20.553  0.00  0.00    +0.000 C 
ATOM     19  N   UNL     1       9.263  10.835  20.310  0.00  0.00    +0.000 NA
ATOM     20  H   UNL     1       9.748  13.829  19.500  0.00  0.00    +0.000 HD
BRANCH  18  21
ATOM     21  C   UNL     1       9.541  12.624  21.952  0.00  0.00    +0.000 C 
ATOM     22  C   UNL     1       9.287  14.123  22.030  0.00  0.00    +0.000 C 
ATOM     23  C   UNL     1       8.814  14.330  23.461  0.00  0.00    +0.000 C 
ATOM     24  C   UNL     1       8.090  13.043  23.851  0.00  0.00    +0.000 C 
ATOM     25  C   UNL     1       8.384  12.030  22.746  0.00  0.00    +0.000 C 
ENDBRANCH  18  21
ENDBRANCH  14  15
ENDBRANCH  13  14
ENDBRANCH  12  13
ENDBRANCH  11  12
ENDBRANCH   3  11
BRANCH   6  26
ATOM     26  C   UNL     1       3.411   3.358  16.940  0.00  0.00    +0.000 C 
BRANCH  26  27
ATOM     27  C   UNL     1       1.939   3.341  17.386  0.00  0.00    +0.000 C 
BRANCH  27  28
ATOM     28  C   UNL     1       1.711   2.321  18.534  0.00  0.00    +0.000 C 
ATOM     29  C   UNL     1       3.010   1.994  19.293  0.00  0.00    +0.000 C 
ATOM     30  C   UNL     1       3.424   3.074  20.287  0.00  0.00    +0.000 C 
ATOM     31  C   UNL     1       2.300   3.368  21.272  0.00  0.00    +0.000 C 
ATOM     32  C   UNL     1       1.035   3.791  20.536  0.00  0.00    +0.000 C 
ATOM     33  C   UNL     1       0.599   2.740  19.517  0.00  0.00    +0.000 C 
ENDBRANCH  27  28
ENDBRANCH  26  27
ENDBRANCH   6  26
TORSDOF 11
ENDMDL
MODEL 5
REMARK VINA RESULT:      -7.5      5.719      9.864
REMARK  Name = 
REMARK  13 active torsions:
REMARK  status: ('A' for Active; 'I' for Inactive)
REMARK    1  A    between atoms: C_1  and  C_2
REMARK    2  A    between atoms: C_2  and  C_3
REMARK    3  A    between atoms: C_2  and  C_4
REMARK    4  A    between atoms: C_4  and  C_5
REMARK    5  A    between atoms: N_7  and  C_8
REMARK    6  A    between atoms: C_8  and  C_9
REMARK    7  A    between atoms: C_9  and  C_10
REMARK    8  A    between atoms: C_10  and  C_11
REMARK    9  A    between atoms: C_11  and  C_12
REMARK   10  A    between atoms: C_15  and  C_16
REMARK   11  A    between atoms: N_24  and  C_25
REMARK   12  A    between atoms: C_25  and  C_26
REMARK   13  A    between atoms: C_26  and  C_27
REMARK                            x       y       z     vdW  Elec       q    Type
REMARK                         _______ _______ _______ _____ _____    ______ ____
ROOT
ATOM      1  C   UNL     1       1.973   5.360  20.139  0.00  0.00    +0.000 C 
ATOM      2  C   UNL     1       1.273   6.449  20.962  0.00  0.00    +0.000 C 
ATOM      3  N   UNL     1       1.626   7.681  20.306  0.00  0.00    +0.000 N 
ATOM      4  C   UNL     1       2.119   7.437  19.013  0.00  0.00    +0.000 C 
ATOM      5  S   UNL     1       2.559   8.605  17.905  0.00  0.00    +0.000 S 
ATOM      6  N   UNL     1       2.214   6.015  18.842  0.00  0.00    +0.000 N 
ENDROOT
BRANCH   1   7
ATOM      7  C   UNL     1       1.098   4.094  20.175  0.00  0.00    +0.000 C 
BRANCH   7   9
ATOM      8  C   UNL     1       1.782   1.998  18.852  0.00  0.00    +0.000 C 
ATOM      9  C   UNL     1       1.778   2.717  20.198  0.00  0.00    +0.000 C 
ATOM     10  C   UNL     1       3.218   2.855  20.713  0.00  0.00    +0.000 C 
ENDBRANCH   7   9
ENDBRANCH   1   7
BRANCH   3  11
ATOM     11  C   UNL     1       1.355   8.964  20.952  0.00  0.00    +0.000 C 
BRANCH  11  12
ATOM     12  C   UNL     1      -0.108   9.415  20.928  0.00  0.00    +0.000 C 
BRANCH  12  13
ATOM     13  C   UNL     1      -0.577   9.993  19.591  0.00  0.00    +0.000 C 
BRANCH  13  14
ATOM     14  C   UNL     1      -0.086  11.438  19.446  0.00  0.00    +0.000 C 
BRANCH  14  15
ATOM     15  C   UNL     1      -1.225  12.442  19.285  0.00  0.00    +0.000 C 
ATOM     16  C   UNL     1      -2.354  11.894  18.386  0.00  0.00    +0.000 C 
ATOM     17  N   UNL     1      -3.526  12.341  19.102  0.00  0.00    +0.000 N 
ATOM     18  C   UNL     1      -3.148  12.642  20.386  0.00  0.00    +0.000 C 
ATOM     19  N   UNL     1      -1.861  12.720  20.609  0.00  0.00    +0.000 NA
ATOM     20  H   UNL     1      -4.384  11.819  18.971  0.00  0.00    +0.000 HD
BRANCH  18  21
ATOM     21  C   UNL     1      -4.130  12.811  21.513  0.00  0.00    +0.000 C 
ATOM     22  C   UNL     1      -4.222  14.230  22.061  0.00  0.00    +0.000 C 
ATOM     23  C   UNL     1      -5.546  14.237  22.809  0.00  0.00    +0.000 C 
ATOM     24  C   UNL     1      -6.450  13.254  22.065  0.00  0.00    +0.000 C 
ATOM     25  C   UNL     1      -5.557  12.510  21.074  0.00  0.00    +0.000 C 
ENDBRANCH  18  21
ENDBRANCH  14  15
ENDBRANCH  13  14
ENDBRANCH  12  13
ENDBRANCH  11  12
ENDBRANCH   3  11
BRANCH   6  26
ATOM     26  C   UNL     1       3.169   5.436  17.884  0.00  0.00    +0.000 C 
BRANCH  26  27
ATOM     27  C   UNL     1       4.626   5.341  18.367  0.00  0.00    +0.000 C 
BRANCH  27  28
ATOM     28  C   UNL     1       5.563   6.236  17.512  0.00  0.00    +0.000 C 
ATOM     29  C   UNL     1       7.045   5.849  17.668  0.00  0.00    +0.000 C 
ATOM     30  C   UNL     1       7.439   4.610  16.869  0.00  0.00    +0.000 C 
ATOM     31  C   UNL     1       7.092   4.779  15.395  0.00  0.00    +0.000 C 
ATOM     32  C   UNL     1       5.605   5.064  15.220  0.00  0.00    +0.000 C 
ATOM     33  C   UNL     1       5.170   6.289  16.021  0.00  0.00    +0.000 C 
ENDBRANCH  27  28
ENDBRANCH  26  27
ENDBRANCH   6  26
TORSDOF 11
ENDMDL
MODEL 6
REMARK VINA RESULT:      -7.5      1.290      1.734
REMARK  Name = 
REMARK  13 active torsions:
REMARK  status: ('A' for Active; 'I' for Inactive)
REMARK    1  A    between atoms: C_1  and  C_2
REMARK    2  A    between atoms: C_2  and  C_3
REMARK    3  A    between atoms: C_2  and  C_4
REMARK    4  A    between atoms: C_4  and  C_5
REMARK    5  A    between atoms: N_7  and  C_8
REMARK    6  A    between atoms: C_8  and  C_9
REMARK    7  A    between atoms: C_9  and  C_10
REMARK    8  A    between atoms: C_10  and  C_11
REMARK    9  A    between atoms: C_11  and  C_12
REMARK   10  A    between atoms: C_15  and  C_16
REMARK   11  A    between atoms: N_24  and  C_25
REMARK   12  A    between atoms: C_25  and  C_26
REMARK   13  A    between atoms: C_26  and  C_27
REMARK                            x       y       z     vdW  Elec       q    Type
REMARK                         _______ _______ _______ _____ _____    ______ ____
ROOT
ATOM      1  C   UNL     1       4.221   5.310  18.719  0.00  0.00    +0.000 C 
ATOM      2  C   UNL     1       5.373   6.321  18.637  0.00  0.00    +0.000 C 
ATOM      3  N   UNL     1       6.070   5.977  17.426  0.00  0.00    +0.000 N 
ATOM      4  C   UNL     1       5.277   5.157  16.605  0.00  0.00    +0.000 C 
ATOM      5  S   UNL     1       5.694   4.613  15.084  0.00  0.00    +0.000 S 
ATOM      6  N   UNL     1       4.077   4.845  17.329  0.00  0.00    +0.000 N 
ENDROOT
BRANCH   1   7
ATOM      7  C   UNL     1       3.023   6.001  19.395  0.00  0.00    +0.000 C 
BRANCH   7   9
ATOM      8  C   UNL     1       2.147   7.735  17.710  0.00  0.00    +0.000 C 
ATOM      9  C   UNL     1       2.747   7.481  19.090  0.00  0.00    +0.000 C 
ATOM     10  C   UNL     1       1.828   8.073  20.169  0.00  0.00    +0.000 C 
ENDBRANCH   7   9
ENDBRANCH   1   7
BRANCH   3  11
ATOM     11  C   UNL     1       7.382   6.557  17.141  0.00  0.00    +0.000 C 
BRANCH  11  12
ATOM     12  C   UNL     1       7.870   7.602  18.147  0.00  0.00    +0.000 C 
BRANCH  12  13
ATOM     13  C   UNL     1       8.204   8.967  17.541  0.00  0.00    +0.000 C 
BRANCH  13  14
ATOM     14  C   UNL     1       8.774   9.893  18.620  0.00  0.00    +0.000 C 
BRANCH  14  15
ATOM     15  C   UNL     1       9.493  11.110  18.045  0.00  0.00    +0.000 C 
ATOM     16  C   UNL     1       8.505  12.213  17.614  0.00  0.00    +0.000 C 
ATOM     17  N   UNL     1       9.186  13.400  18.077  0.00  0.00    +0.000 N 
ATOM     18  C   UNL     1      10.116  13.016  19.010  0.00  0.00    +0.000 C 
ATOM     19  N   UNL     1      10.367  11.734  19.086  0.00  0.00    +0.000 NA
ATOM     20  H   UNL     1       8.623  14.217  18.279  0.00  0.00    +0.000 HD
BRANCH  18  21
ATOM     21  C   UNL     1      10.777  13.981  19.956  0.00  0.00    +0.000 C 
ATOM     22  C   UNL     1      12.117  14.518  19.473  0.00  0.00    +0.000 C 
ATOM     23  C   UNL     1      12.329  15.761  20.324  0.00  0.00    +0.000 C 
ATOM     24  C   UNL     1      10.934  16.310  20.616  0.00  0.00    +0.000 C 
ATOM     25  C   UNL     1       9.944  15.240  20.158  0.00  0.00    +0.000 C 
ENDBRANCH  18  21
ENDBRANCH  14  15
ENDBRANCH  13  14
ENDBRANCH  12  13
ENDBRANCH  11  12
ENDBRANCH   3  11
BRANCH   6  26
ATOM     26  C   UNL     1       3.318   3.620  17.030  0.00  0.00    +0.000 C 
BRANCH  26  27
ATOM     27  C   UNL     1       1.846   3.621  17.477  0.00  0.00    +0.000 C 
BRANCH  27  28
ATOM     28  C   UNL     1       1.520   2.372  18.340  0.00  0.00    +0.000 C 
ATOM     29  C   UNL     1       2.784   1.731  18.942  0.00  0.00    +0.000 C 
ATOM     30  C   UNL     1       3.325   2.476  20.159  0.00  0.00    +0.000 C 
ATOM     31  C   UNL     1       2.250   2.624  21.229  0.00  0.00    +0.000 C 
ATOM     32  C   UNL     1       1.030   3.348  20.671  0.00  0.00    +0.000 C 
ATOM     33  C   UNL     1       0.471   2.639  19.439  0.00  0.00    +0.000 C 
ENDBRANCH  27  28
ENDBRANCH  26  27
ENDBRANCH   6  26
TORSDOF 11
ENDMDL
MODEL 7
REMARK VINA RESULT:      -7.5      5.037      9.940
REMARK  Name = 
REMARK  13 active torsions:
REMARK  status: ('A' for Active; 'I' for Inactive)
REMARK    1  A    between atoms: C_1  and  C_2
REMARK    2  A    between atoms: C_2  and  C_3
REMARK    3  A    between atoms: C_2  and  C_4
REMARK    4  A    between atoms: C_4  and  C_5
REMARK    5  A    between atoms: N_7  and  C_8
REMARK    6  A    between atoms: C_8  and  C_9
REMARK    7  A    between atoms: C_9  and  C_10
REMARK    8  A    between atoms: C_10  and  C_11
REMARK    9  A    between atoms: C_11  and  C_12
REMARK   10  A    between atoms: C_15  and  C_16
REMARK   11  A    between atoms: N_24  and  C_25
REMARK   12  A    between atoms: C_25  and  C_26
REMARK   13  A    between atoms: C_26  and  C_27
REMARK                            x       y       z     vdW  Elec       q    Type
REMARK                         _______ _______ _______ _____ _____    ______ ____
ROOT
ATOM      1  C   UNL     1       2.284   5.037  19.813  0.00  0.00    +0.000 C 
ATOM      2  C   UNL     1       1.575   6.064  20.706  0.00  0.00    +0.000 C 
ATOM      3  N   UNL     1       1.889   7.337  20.111  0.00  0.00    +0.000 N 
ATOM      4  C   UNL     1       2.365   7.175  18.799  0.00  0.00    +0.000 C 
ATOM      5  S   UNL     1       2.759   8.411  17.749  0.00  0.00    +0.000 S 
ATOM      6  N   UNL     1       2.488   5.767  18.550  0.00  0.00    +0.000 N 
ENDROOT
BRANCH   1   7
ATOM      7  C   UNL     1       1.438   3.752  19.796  0.00  0.00    +0.000 C 
BRANCH   7   9
ATOM      8  C   UNL     1       3.499   2.371  20.475  0.00  0.00    +0.000 C 
ATOM      9  C   UNL     1       1.977   2.494  20.495  0.00  0.00    +0.000 C 
ATOM     10  C   UNL     1       1.476   2.448  21.945  0.00  0.00    +0.000 C 
ENDBRANCH   7   9
ENDBRANCH   1   7
BRANCH   3  11
ATOM     11  C   UNL     1       1.600   8.578  20.830  0.00  0.00    +0.000 C 
BRANCH  11  12
ATOM     12  C   UNL     1       0.186   8.689  21.405  0.00  0.00    +0.000 C 
BRANCH  12  13
ATOM     13  C   UNL     1      -0.715   9.702  20.697  0.00  0.00    +0.000 C 
BRANCH  13  14
ATOM     14  C   UNL     1      -0.417  11.115  21.210  0.00  0.00    +0.000 C 
BRANCH  14  15
ATOM     15  C   UNL     1      -1.072  12.207  20.369  0.00  0.00    +0.000 C 
ATOM     16  C   UNL     1      -1.276  11.763  18.905  0.00  0.00    +0.000 C 
ATOM     17  N   UNL     1      -2.594  12.289  18.632  0.00  0.00    +0.000 N 
ATOM     18  C   UNL     1      -3.207  12.540  19.833  0.00  0.00    +0.000 C 
ATOM     19  N   UNL     1      -2.439  12.514  20.893  0.00  0.00    +0.000 NA
ATOM     20  H   UNL     1      -3.139  11.837  17.908  0.00  0.00    +0.000 HD
BRANCH  18  21
ATOM     21  C   UNL     1      -4.687  12.768  19.969  0.00  0.00    +0.000 C 
ATOM     22  C   UNL     1      -5.549  11.789  19.183  0.00  0.00    +0.000 C 
ATOM     23  C   UNL     1      -6.918  11.919  19.833  0.00  0.00    +0.000 C 
ATOM     24  C   UNL     1      -6.652  12.262  21.298  0.00  0.00    +0.000 C 
ATOM     25  C   UNL     1      -5.162  12.581  21.404  0.00  0.00    +0.000 C 
ENDBRANCH  18  21
ENDBRANCH  14  15
ENDBRANCH  13  14
ENDBRANCH  12  13
ENDBRANCH  11  12
ENDBRANCH   3  11
BRANCH   6  26
ATOM     26  C   UNL     1       3.439   5.262  17.547  0.00  0.00    +0.000 C 
BRANCH  26  27
ATOM     27  C   UNL     1       4.733   4.645  18.104  0.00  0.00    +0.000 C 
BRANCH  27  28
ATOM     28  C   UNL     1       5.921   4.850  17.125  0.00  0.00    +0.000 C 
ATOM     29  C   UNL     1       5.864   6.216  16.415  0.00  0.00    +0.000 C 
ATOM     30  C   UNL     1       6.335   7.376  17.287  0.00  0.00    +0.000 C 
ATOM     31  C   UNL     1       7.738   7.120  17.823  0.00  0.00    +0.000 C 
ATOM     32  C   UNL     1       7.783   5.818  18.615  0.00  0.00    +0.000 C 
ATOM     33  C   UNL     1       7.301   4.635  17.778  0.00  0.00    +0.000 C 
ENDBRANCH  27  28
ENDBRANCH  26  27
ENDBRANCH   6  26
TORSDOF 11
ENDMDL
MODEL 8
REMARK VINA RESULT:      -7.4      5.386      8.047
REMARK  Name = 
REMARK  13 active torsions:
REMARK  status: ('A' for Active; 'I' for Inactive)
REMARK    1  A    between atoms: C_1  and  C_2
REMARK    2  A    between atoms: C_2  and  C_3
REMARK    3  A    between atoms: C_2  and  C_4
REMARK    4  A    between atoms: C_4  and  C_5
REMARK    5  A    between atoms: N_7  and  C_8
REMARK    6  A    between atoms: C_8  and  C_9
REMARK    7  A    between atoms: C_9  and  C_10
REMARK    8  A    between atoms: C_10  and  C_11
REMARK    9  A    between atoms: C_11  and  C_12
REMARK   10  A    between atoms: C_15  and  C_16
REMARK   11  A    between atoms: N_24  and  C_25
REMARK   12  A    between atoms: C_25  and  C_26
REMARK   13  A    between atoms: C_26  and  C_27
REMARK                            x       y       z     vdW  Elec       q    Type
REMARK                         _______ _______ _______ _____ _____    ______ ____
ROOT
ATOM      1  C   UNL     1       2.039   5.808  20.295  0.00  0.00    +0.000 C 
ATOM      2  C   UNL     1       1.365   6.952  21.064  0.00  0.00    +0.000 C 
ATOM      3  N   UNL     1       1.665   8.131  20.294  0.00  0.00    +0.000 N 
ATOM      4  C   UNL     1       2.095   7.789  19.000  0.00  0.00    +0.000 C 
ATOM      5  S   UNL     1       2.458   8.869  17.781  0.00  0.00    +0.000 S 
ATOM      6  N   UNL     1       2.203   6.359  18.939  0.00  0.00    +0.000 N 
ENDROOT
BRANCH   1   7
ATOM      7  C   UNL     1       1.187   4.539  20.479  0.00  0.00    +0.000 C 
BRANCH   7   9
ATOM      8  C   UNL     1       1.782   2.359  21.707  0.00  0.00    +0.000 C 
ATOM      9  C   UNL     1       1.872   3.165  20.414  0.00  0.00    +0.000 C 
ATOM     10  C   UNL     1       1.287   2.346  19.254  0.00  0.00    +0.000 C 
ENDBRANCH   7   9
ENDBRANCH   1   7
BRANCH   3  11
ATOM     11  C   UNL     1       1.407   9.459  20.848  0.00  0.00    +0.000 C 
BRANCH  11  12
ATOM     12  C   UNL     1       0.696  10.435  19.907  0.00  0.00    +0.000 C 
BRANCH  12  13
ATOM     13  C   UNL     1      -0.777  10.113  19.645  0.00  0.00    +0.000 C 
BRANCH  13  14
ATOM     14  C   UNL     1      -1.189  10.639  18.266  0.00  0.00    +0.000 C 
BRANCH  14  15
ATOM     15  C   UNL     1      -1.713  12.072  18.305  0.00  0.00    +0.000 C 
ATOM     16  C   UNL     1      -2.368  12.410  19.661  0.00  0.00    +0.000 C 
ATOM     17  N   UNL     1      -1.874  13.747  19.888  0.00  0.00    +0.000 N 
ATOM     18  C   UNL     1      -0.779  13.937  19.083  0.00  0.00    +0.000 C 
ATOM     19  N   UNL     1      -0.584  13.040  18.150  0.00  0.00    +0.000 NA
ATOM     20  H   UNL     1      -1.819  14.072  20.846  0.00  0.00    +0.000 HD
BRANCH  18  21
ATOM     21  C   UNL     1       0.201  15.061  19.279  0.00  0.00    +0.000 C 
ATOM     22  C   UNL     1       1.596  14.782  18.736  0.00  0.00    +0.000 C 
ATOM     23  C   UNL     1       2.219  16.166  18.628  0.00  0.00    +0.000 C 
ATOM     24  C   UNL     1       1.063  17.120  18.332  0.00  0.00    +0.000 C 
ATOM     25  C   UNL     1      -0.222  16.320  18.535  0.00  0.00    +0.000 C 
ENDBRANCH  18  21
ENDBRANCH  14  15
ENDBRANCH  13  14
ENDBRANCH  12  13
ENDBRANCH  11  12
ENDBRANCH   3  11
BRANCH   6  26
ATOM     26  C   UNL     1       3.117   5.716  17.981  0.00  0.00    +0.000 C 
BRANCH  26  27
ATOM     27  C   UNL     1       4.576   5.569  18.446  0.00  0.00    +0.000 C 
BRANCH  27  28
ATOM     28  C   UNL     1       5.541   6.368  17.529  0.00  0.00    +0.000 C 
ATOM     29  C   UNL     1       7.010   5.942  17.714  0.00  0.00    +0.000 C 
ATOM     30  C   UNL     1       7.360   4.637  17.006  0.00  0.00    +0.000 C 
ATOM     31  C   UNL     1       7.016   4.713  15.523  0.00  0.00    +0.000 C 
ATOM     32  C   UNL     1       5.540   5.036  15.327  0.00  0.00    +0.000 C 
ATOM     33  C   UNL     1       5.148   6.329  16.039  0.00  0.00    +0.000 C 
ENDBRANCH  27  28
ENDBRANCH  26  27
ENDBRANCH   6  26
TORSDOF 11
ENDMDL
MODEL 9
REMARK VINA RESULT:      -7.3      5.396      7.848
REMARK  Name = 
REMARK  13 active torsions:
REMARK  status: ('A' for Active; 'I' for Inactive)
REMARK    1  A    between atoms: C_1  and  C_2
REMARK    2  A    between atoms: C_2  and  C_3
REMARK    3  A    between atoms: C_2  and  C_4
REMARK    4  A    between atoms: C_4  and  C_5
REMARK    5  A    between atoms: N_7  and  C_8
REMARK    6  A    between atoms: C_8  and  C_9
REMARK    7  A    between atoms: C_9  and  C_10
REMARK    8  A    between atoms: C_10  and  C_11
REMARK    9  A    between atoms: C_11  and  C_12
REMARK   10  A    between atoms: C_15  and  C_16
REMARK   11  A    between atoms: N_24  and  C_25
REMARK   12  A    between atoms: C_25  and  C_26
REMARK   13  A    between atoms: C_26  and  C_27
REMARK                            x       y       z     vdW  Elec       q    Type
REMARK                         _______ _______ _______ _____ _____    ______ ____
ROOT
ATOM      1  C   UNL     1       2.015   5.229  20.061  0.00  0.00    +0.000 C 
ATOM      2  C   UNL     1       1.336   6.194  21.042  0.00  0.00    +0.000 C 
ATOM      3  N   UNL     1       1.614   7.503  20.513  0.00  0.00    +0.000 N 
ATOM      4  C   UNL     1       2.035   7.424  19.174  0.00  0.00    +0.000 C 
ATOM      5  S   UNL     1       2.374   8.724  18.185  0.00  0.00    +0.000 S 
ATOM      6  N   UNL     1       2.159   6.034  18.837  0.00  0.00    +0.000 N 
ENDROOT
BRANCH   1   7
ATOM      7  C   UNL     1       1.180   3.938  20.002  0.00  0.00    +0.000 C 
BRANCH   7   9
ATOM      8  C   UNL     1       2.560   2.053  18.927  0.00  0.00    +0.000 C 
ATOM      9  C   UNL     1       1.883   2.585  20.188  0.00  0.00    +0.000 C 
ATOM     10  C   UNL     1       2.913   2.683  21.322  0.00  0.00    +0.000 C 
ENDBRANCH   7   9
ENDBRANCH   1   7
BRANCH   3  11
ATOM     11  C   UNL     1       1.347   8.695  21.316  0.00  0.00    +0.000 C 
BRANCH  11  12
ATOM     12  C   UNL     1      -0.131   9.051  21.489  0.00  0.00    +0.000 C 
BRANCH  12  13
ATOM     13  C   UNL     1      -0.452   9.854  22.752  0.00  0.00    +0.000 C 
BRANCH  13  14
ATOM     14  C   UNL     1      -0.655  11.331  22.394  0.00  0.00    +0.000 C 
BRANCH  14  15
ATOM     15  C   UNL     1      -0.876  11.559  20.901  0.00  0.00    +0.000 C 
ATOM     16  C   UNL     1      -2.136  12.408  20.629  0.00  0.00    +0.000 C 
ATOM     17  N   UNL     1      -1.668  13.279  19.576  0.00  0.00    +0.000 N 
ATOM     18  C   UNL     1      -0.296  13.265  19.594  0.00  0.00    +0.000 C 
ATOM     19  N   UNL     1       0.265  12.332  20.321  0.00  0.00    +0.000 NA
ATOM     20  H   UNL     1      -2.130  14.173  19.464  0.00  0.00    +0.000 HD
BRANCH  18  21
ATOM     21  C   UNL     1       0.546  14.290  18.886  0.00  0.00    +0.000 C 
ATOM     22  C   UNL     1       1.014  15.439  19.769  0.00  0.00    +0.000 C 
ATOM     23  C   UNL     1       2.174  16.039  18.988  0.00  0.00    +0.000 C 
ATOM     24  C   UNL     1       2.803  14.878  18.220  0.00  0.00    +0.000 C 
ATOM     25  C   UNL     1       1.846  13.695  18.362  0.00  0.00    +0.000 C 
ENDBRANCH  18  21
ENDBRANCH  14  15
ENDBRANCH  13  14
ENDBRANCH  12  13
ENDBRANCH  11  12
ENDBRANCH   3  11
BRANCH   6  26
ATOM     26  C   UNL     1       3.071   5.601  17.765  0.00  0.00    +0.000 C 
BRANCH  26  27
ATOM     27  C   UNL     1       4.572   5.754  18.063  0.00  0.00    +0.000 C 
BRANCH  27  28
ATOM     28  C   UNL     1       5.346   4.449  17.733  0.00  0.00    +0.000 C 
ATOM     29  C   UNL     1       4.823   3.765  16.456  0.00  0.00    +0.000 C 
ATOM     30  C   UNL     1       5.309   4.423  15.169  0.00  0.00    +0.000 C 
ATOM     31  C   UNL     1       6.831   4.500  15.138  0.00  0.00    +0.000 C 
ATOM     32  C   UNL     1       7.357   5.264  16.347  0.00  0.00    +0.000 C 
ATOM     33  C   UNL     1       6.875   4.643  17.657  0.00  0.00    +0.000 C 
ENDBRANCH  27  28
ENDBRANCH  26  27
ENDBRANCH   6  26
TORSDOF 11
ENDMDL
