MODEL 1
REMARK VINA RESULT:      -8.4      0.000      0.000
REMARK  Name = 
REMARK  7 active torsions:
REMARK  status: ('A' for Active; 'I' for Inactive)
REMARK    1  A    between atoms: C_1  and  C_2
REMARK    2  A    between atoms: N_6  and  C_7
REMARK    3  A    between atoms: C_17  and  C_19
REMARK    4  A    between atoms: C_19  and  C_20
REMARK    5  A    between atoms: C_20  and  N_21
REMARK    6  A    between atoms: C_20  and  C_22
REMARK    7  A    between atoms: C_22  and  C_23
REMARK                            x       y       z     vdW  Elec       q    Type
REMARK                         _______ _______ _______ _____ _____    ______ ____
ROOT
ATOM      1  C   UNL     1       0.827   8.773  22.545  0.00  0.00    +0.000 C 
ATOM      2  C   UNL     1       0.945   9.267  21.151  0.00  0.00    +0.000 A 
ATOM      3  C   UNL     1       1.471   8.616  20.057  0.00  0.00    +0.000 A 
ATOM      4  C   UNL     1       1.233   9.460  18.969  0.00  0.00    +0.000 A 
ATOM      5  N   UNL     1       0.530  10.544  19.310  0.00  0.00    +0.000 NA
ATOM      6  N   UNL     1       0.470  10.487  20.675  0.00  0.00    +0.000 N 
ATOM      7  C   UNL     1       1.749   9.175  17.605  0.00  0.00    +0.000 C 
ATOM      8  C   UNL     1       2.201   7.696  17.490  0.00  0.00    +0.000 C 
ATOM      9  N   UNL     1       2.877   7.183  18.707  0.00  0.00    +0.000 N 
ATOM     10  C   UNL     1       3.916   6.260  18.740  0.00  0.00    +0.000 C 
ATOM     11  O   UNL     1       4.375   5.853  19.812  0.00  0.00    +0.000 OA
ATOM     12  C   UNL     1       2.130   7.293  19.963  0.00  0.00    +0.000 C 
ENDROOT
BRANCH   6  13
ATOM     13  C   UNL     1       0.010  11.612  21.414  0.00  0.00    +0.000 A 
ATOM     14  C   UNL     1      -1.106  11.481  22.254  0.00  0.00    +0.000 A 
ATOM     15  C   UNL     1      -1.576  12.587  22.967  0.00  0.00    +0.000 A 
ATOM     16  C   UNL     1      -0.955  13.822  22.810  0.00  0.00    +0.000 A 
ATOM     17  F   UNL     1      -1.425  14.888  23.469  0.00  0.00    +0.000 F 
ATOM     18  C   UNL     1       0.135  13.972  21.963  0.00  0.00    +0.000 A 
ATOM     19  C   UNL     1       0.623  12.866  21.266  0.00  0.00    +0.000 A 
ENDBRANCH   6  13
BRANCH  10  20
ATOM     20  C   UNL     1       4.522   5.791  17.429  0.00  0.00    +0.000 C 
BRANCH  20  21
ATOM     21  C   UNL     1       4.844   4.279  17.456  0.00  0.00    +0.000 C 
BRANCH  21  22
ATOM     22  N   UNL     1       5.810   3.946  16.387  0.00  0.00    +0.000 NA
ATOM     23  H   UNL     1       6.387   4.751  16.152  0.00  0.00    +0.000 HD
ATOM     24  H   UNL     1       6.443   3.223  16.724  0.00  0.00    +0.000 HD
ENDBRANCH  21  22
BRANCH  21  25
ATOM     25  C   UNL     1       3.607   3.353  17.367  0.00  0.00    +0.000 C 
BRANCH  25  26
ATOM     26  C   UNL     1       2.745   3.232  18.606  0.00  0.00    +0.000 A 
ATOM     27  C   UNL     1       3.261   2.652  19.774  0.00  0.00    +0.000 A 
ATOM     28  C   UNL     1       2.495   2.605  20.933  0.00  0.00    +0.000 A 
ATOM     29  F   UNL     1       3.007   2.057  22.041  0.00  0.00    +0.000 F 
ATOM     30  C   UNL     1       1.207   3.129  20.960  0.00  0.00    +0.000 A 
ATOM     31  C   UNL     1       0.672   3.691  19.802  0.00  0.00    +0.000 A 
ATOM     32  C   UNL     1       1.439   3.731  18.635  0.00  0.00    +0.000 A 
ATOM     33  F   UNL     1       0.902   4.274  17.532  0.00  0.00    +0.000 F 
ENDBRANCH  25  26
ENDBRANCH  21  25
ENDBRANCH  20  21
ENDBRANCH  10  20
TORSDOF 6
ENDMDL
MODEL 2
REMARK VINA RESULT:      -8.3      1.906      3.083
REMARK  Name = 
REMARK  7 active torsions:
REMARK  status: ('A' for Active; 'I' for Inactive)
REMARK    1  A    between atoms: C_1  and  C_2
REMARK    2  A    between atoms: N_6  and  C_7
REMARK    3  A    between atoms: C_17  and  C_19
REMARK    4  A    between atoms: C_19  and  C_20
REMARK    5  A    between atoms: C_20  and  N_21
REMARK    6  A    between atoms: C_20  and  C_22
REMARK    7  A    between atoms: C_22  and  C_23
REMARK                            x       y       z     vdW  Elec       q    Type
REMARK                         _______ _______ _______ _____ _____    ______ ____
ROOT
ATOM      1  C   UNL     1       0.297  13.314  20.584  0.00  0.00    +0.000 C 
ATOM      2  C   UNL     1       0.016  11.993  21.197  0.00  0.00    +0.000 A 
ATOM      3  C   UNL     1       0.554  10.768  20.869  0.00  0.00    +0.000 A 
ATOM      4  C   UNL     1       0.056   9.873  21.820  0.00  0.00    +0.000 A 
ATOM      5  N   UNL     1      -0.686  10.480  22.751  0.00  0.00    +0.000 NA
ATOM      6  N   UNL     1      -0.817  11.761  22.290  0.00  0.00    +0.000 N 
ATOM      7  C   UNL     1       0.310   8.410  21.755  0.00  0.00    +0.000 C 
ATOM      8  C   UNL     1       1.475   8.101  20.779  0.00  0.00    +0.000 C 
ATOM      9  N   UNL     1       1.477   8.952  19.564  0.00  0.00    +0.000 N 
ATOM     10  C   UNL     1       1.880   8.563  18.292  0.00  0.00    +0.000 C 
ATOM     11  O   UNL     1       1.897   9.365  17.353  0.00  0.00    +0.000 OA
ATOM     12  C   UNL     1       1.492  10.401  19.783  0.00  0.00    +0.000 C 
ENDROOT
BRANCH   6  13
ATOM     13  C   UNL     1      -1.755  12.642  22.896  0.00  0.00    +0.000 A 
ATOM     14  C   UNL     1      -1.307  13.835  23.482  0.00  0.00    +0.000 A 
ATOM     15  C   UNL     1      -2.220  14.695  24.098  0.00  0.00    +0.000 A 
ATOM     16  C   UNL     1      -3.566  14.343  24.157  0.00  0.00    +0.000 A 
ATOM     17  F   UNL     1      -4.435  15.153  24.775  0.00  0.00    +0.000 F 
ATOM     18  C   UNL     1      -4.019  13.154  23.603  0.00  0.00    +0.000 A 
ATOM     19  C   UNL     1      -3.115  12.302  22.967  0.00  0.00    +0.000 A 
ENDBRANCH   6  13
BRANCH  10  20
ATOM     20  C   UNL     1       2.255   7.111  18.053  0.00  0.00    +0.000 C 
BRANCH  20  21
ATOM     21  C   UNL     1       3.780   6.887  18.165  0.00  0.00    +0.000 C 
BRANCH  21  22
ATOM     22  N   UNL     1       4.394   6.887  16.820  0.00  0.00    +0.000 NA
ATOM     23  H   UNL     1       5.375   6.620  16.865  0.00  0.00    +0.000 HD
ATOM     24  H   UNL     1       3.929   6.188  16.242  0.00  0.00    +0.000 HD
ENDBRANCH  21  22
BRANCH  21  25
ATOM     25  C   UNL     1       4.191   5.612  18.941  0.00  0.00    +0.000 C 
BRANCH  25  26
ATOM     26  C   UNL     1       3.169   4.497  19.026  0.00  0.00    +0.000 A 
ATOM     27  C   UNL     1       2.458   4.277  20.216  0.00  0.00    +0.000 A 
ATOM     28  C   UNL     1       1.470   3.301  20.272  0.00  0.00    +0.000 A 
ATOM     29  F   UNL     1       0.795   3.111  21.412  0.00  0.00    +0.000 F 
ATOM     30  C   UNL     1       1.167   2.526  19.159  0.00  0.00    +0.000 A 
ATOM     31  C   UNL     1       1.878   2.718  17.975  0.00  0.00    +0.000 A 
ATOM     32  C   UNL     1       2.876   3.694  17.920  0.00  0.00    +0.000 A 
ATOM     33  F   UNL     1       3.550   3.860  16.772  0.00  0.00    +0.000 F 
ENDBRANCH  25  26
ENDBRANCH  21  25
ENDBRANCH  20  21
ENDBRANCH  10  20
TORSDOF 6
ENDMDL
MODEL 3
REMARK VINA RESULT:      -8.3      2.005      3.309
REMARK  Name = 
REMARK  7 active torsions:
REMARK  status: ('A' for Active; 'I' for Inactive)
REMARK    1  A    between atoms: C_1  and  C_2
REMARK    2  A    between atoms: N_6  and  C_7
REMARK    3  A    between atoms: C_17  and  C_19
REMARK    4  A    between atoms: C_19  and  C_20
REMARK    5  A    between atoms: C_20  and  N_21
REMARK    6  A    between atoms: C_20  and  C_22
REMARK    7  A    between atoms: C_22  and  C_23
REMARK                            x       y       z     vdW  Elec       q    Type
REMARK                         _______ _______ _______ _____ _____    ______ ____
ROOT
ATOM      1  C   UNL     1       0.167  13.450  20.467  0.00  0.00    +0.000 C 
ATOM      2  C   UNL     1      -0.134  12.143  21.101  0.00  0.00    +0.000 A 
ATOM      3  C   UNL     1       0.409  10.910  20.813  0.00  0.00    +0.000 A 
ATOM      4  C   UNL     1      -0.116  10.037  21.770  0.00  0.00    +0.000 A 
ATOM      5  N   UNL     1      -0.879  10.666  22.669  0.00  0.00    +0.000 NA
ATOM      6  N   UNL     1      -0.994  11.937  22.178  0.00  0.00    +0.000 N 
ATOM      7  C   UNL     1       0.135   8.573  21.743  0.00  0.00    +0.000 C 
ATOM      8  C   UNL     1       1.323   8.240  20.804  0.00  0.00    +0.000 C 
ATOM      9  N   UNL     1       1.358   9.064  19.571  0.00  0.00    +0.000 N 
ATOM     10  C   UNL     1       1.792   8.647  18.318  0.00  0.00    +0.000 C 
ATOM     11  O   UNL     1       1.835   9.429  17.363  0.00  0.00    +0.000 OA
ATOM     12  C   UNL     1       1.372  10.517  19.759  0.00  0.00    +0.000 C 
ENDROOT
BRANCH   6  13
ATOM     13  C   UNL     1      -1.945  12.833  22.741  0.00  0.00    +0.000 A 
ATOM     14  C   UNL     1      -1.518  13.821  23.640  0.00  0.00    +0.000 A 
ATOM     15  C   UNL     1      -2.449  14.691  24.213  0.00  0.00    +0.000 A 
ATOM     16  C   UNL     1      -3.801  14.548  23.915  0.00  0.00    +0.000 A 
ATOM     17  F   UNL     1      -4.695  15.362  24.489  0.00  0.00    +0.000 F 
ATOM     18  C   UNL     1      -4.240  13.560  23.045  0.00  0.00    +0.000 A 
ATOM     19  C   UNL     1      -3.312  12.702  22.453  0.00  0.00    +0.000 A 
ENDBRANCH   6  13
BRANCH  10  20
ATOM     20  C   UNL     1       2.168   7.189  18.120  0.00  0.00    +0.000 C 
BRANCH  20  21
ATOM     21  C   UNL     1       3.672   6.944  18.383  0.00  0.00    +0.000 C 
BRANCH  21  22
ATOM     22  N   UNL     1       4.394   6.795  17.101  0.00  0.00    +0.000 NA
ATOM     23  H   UNL     1       5.125   6.090  17.173  0.00  0.00    +0.000 HD
ATOM     24  H   UNL     1       3.743   6.468  16.389  0.00  0.00    +0.000 HD
ENDBRANCH  21  22
BRANCH  21  25
ATOM     25  C   UNL     1       3.979   5.745  19.313  0.00  0.00    +0.000 C 
BRANCH  25  26
ATOM     26  C   UNL     1       3.020   4.574  19.268  0.00  0.00    +0.000 A 
ATOM     27  C   UNL     1       3.045   3.680  18.187  0.00  0.00    +0.000 A 
ATOM     28  C   UNL     1       2.213   2.565  18.179  0.00  0.00    +0.000 A 
ATOM     29  F   UNL     1       2.257   1.717  17.145  0.00  0.00    +0.000 F 
ATOM     30  C   UNL     1       1.345   2.314  19.235  0.00  0.00    +0.000 A 
ATOM     31  C   UNL     1       1.294   3.204  20.307  0.00  0.00    +0.000 A 
ATOM     32  C   UNL     1       2.123   4.329  20.312  0.00  0.00    +0.000 A 
ATOM     33  F   UNL     1       2.055   5.173  21.352  0.00  0.00    +0.000 F 
ENDBRANCH  25  26
ENDBRANCH  21  25
ENDBRANCH  20  21
ENDBRANCH  10  20
TORSDOF 6
ENDMDL
MODEL 4
REMARK VINA RESULT:      -7.9      2.230      3.187
REMARK  Name = 
REMARK  7 active torsions:
REMARK  status: ('A' for Active; 'I' for Inactive)
REMARK    1  A    between atoms: C_1  and  C_2
REMARK    2  A    between atoms: N_6  and  C_7
REMARK    3  A    between atoms: C_17  and  C_19
REMARK    4  A    between atoms: C_19  and  C_20
REMARK    5  A    between atoms: C_20  and  N_21
REMARK    6  A    between atoms: C_20  and  C_22
REMARK    7  A    between atoms: C_22  and  C_23
REMARK                            x       y       z     vdW  Elec       q    Type
REMARK                         _______ _______ _______ _____ _____    ______ ____
ROOT
ATOM      1  C   UNL     1       0.138  13.378  18.964  0.00  0.00    +0.000 C 
ATOM      2  C   UNL     1      -0.241  12.253  19.853  0.00  0.00    +0.000 A 
ATOM      3  C   UNL     1       0.333  11.004  19.940  0.00  0.00    +0.000 A 
ATOM      4  C   UNL     1      -0.310  10.370  21.007  0.00  0.00    +0.000 A 
ATOM      5  N   UNL     1      -1.181  11.174  21.626  0.00  0.00    +0.000 NA
ATOM      6  N   UNL     1      -1.232  12.285  20.832  0.00  0.00    +0.000 N 
ATOM      7  C   UNL     1      -0.059   8.951  21.366  0.00  0.00    +0.000 C 
ATOM      8  C   UNL     1       1.239   8.438  20.690  0.00  0.00    +0.000 C 
ATOM      9  N   UNL     1       1.431   8.943  19.308  0.00  0.00    +0.000 N 
ATOM     10  C   UNL     1       2.020   8.251  18.257  0.00  0.00    +0.000 C 
ATOM     11  O   UNL     1       2.184   8.782  17.154  0.00  0.00    +0.000 OA
ATOM     12  C   UNL     1       1.422  10.399  19.140  0.00  0.00    +0.000 C 
ENDROOT
BRANCH   6  13
ATOM     13  C   UNL     1      -2.245  13.262  21.041  0.00  0.00    +0.000 A 
ATOM     14  C   UNL     1      -1.964  14.399  21.813  0.00  0.00    +0.000 A 
ATOM     15  C   UNL     1      -2.961  15.352  22.039  0.00  0.00    +0.000 A 
ATOM     16  C   UNL     1      -4.238  15.147  21.525  0.00  0.00    +0.000 A 
ATOM     17  F   UNL     1      -5.201  16.045  21.769  0.00  0.00    +0.000 F 
ATOM     18  C   UNL     1      -4.537  14.015  20.781  0.00  0.00    +0.000 A 
ATOM     19  C   UNL     1      -3.539  13.071  20.533  0.00  0.00    +0.000 A 
ENDBRANCH   6  13
BRANCH  10  20
ATOM     20  C   UNL     1       2.417   6.800  18.465  0.00  0.00    +0.000 C 
BRANCH  20  21
ATOM     21  C   UNL     1       3.951   6.615  18.426  0.00  0.00    +0.000 C 
BRANCH  21  22
ATOM     22  N   UNL     1       4.451   6.799  17.047  0.00  0.00    +0.000 NA
ATOM     23  H   UNL     1       5.454   6.971  17.040  0.00  0.00    +0.000 HD
ATOM     24  H   UNL     1       4.299   5.940  16.520  0.00  0.00    +0.000 HD
ENDBRANCH  21  22
BRANCH  21  25
ATOM     25  C   UNL     1       4.454   5.269  19.002  0.00  0.00    +0.000 C 
BRANCH  25  26
ATOM     26  C   UNL     1       3.454   4.133  19.074  0.00  0.00    +0.000 A 
ATOM     27  C   UNL     1       2.787   3.853  20.275  0.00  0.00    +0.000 A 
ATOM     28  C   UNL     1       1.817   2.857  20.323  0.00  0.00    +0.000 A 
ATOM     29  F   UNL     1       1.182   2.609  21.475  0.00  0.00    +0.000 F 
ATOM     30  C   UNL     1       1.491   2.121  19.189  0.00  0.00    +0.000 A 
ATOM     31  C   UNL     1       2.160   2.374  17.992  0.00  0.00    +0.000 A 
ATOM     32  C   UNL     1       3.140   3.370  17.946  0.00  0.00    +0.000 A 
ATOM     33  F   UNL     1       3.773   3.593  16.784  0.00  0.00    +0.000 F 
ENDBRANCH  25  26
ENDBRANCH  21  25
ENDBRANCH  20  21
ENDBRANCH  10  20
TORSDOF 6
ENDMDL
MODEL 5
REMARK VINA RESULT:      -7.9      2.935      4.794
REMARK  Name = 
REMARK  7 active torsions:
REMARK  status: ('A' for Active; 'I' for Inactive)
REMARK    1  A    between atoms: C_1  and  C_2
REMARK    2  A    between atoms: N_6  and  C_7
REMARK    3  A    between atoms: C_17  and  C_19
REMARK    4  A    between atoms: C_19  and  C_20
REMARK    5  A    between atoms: C_20  and  N_21
REMARK    6  A    between atoms: C_20  and  C_22
REMARK    7  A    between atoms: C_22  and  C_23
REMARK                            x       y       z     vdW  Elec       q    Type
REMARK                         _______ _______ _______ _____ _____    ______ ____
ROOT
ATOM      1  C   UNL     1      -0.872  13.440  20.364  0.00  0.00    +0.000 C 
ATOM      2  C   UNL     1      -0.861  12.324  21.341  0.00  0.00    +0.000 A 
ATOM      3  C   UNL     1      -0.102  11.174  21.314  0.00  0.00    +0.000 A 
ATOM      4  C   UNL     1      -0.376  10.517  22.516  0.00  0.00    +0.000 A 
ATOM      5  N   UNL     1      -1.188  11.222  23.309  0.00  0.00    +0.000 NA
ATOM      6  N   UNL     1      -1.588  12.270  22.528  0.00  0.00    +0.000 N 
ATOM      7  C   UNL     1       0.162   9.168  22.833  0.00  0.00    +0.000 C 
ATOM      8  C   UNL     1       1.327   8.806  21.876  0.00  0.00    +0.000 C 
ATOM      9  N   UNL     1       1.113   9.256  20.479  0.00  0.00    +0.000 N 
ATOM     10  C   UNL     1       1.537   8.597  19.331  0.00  0.00    +0.000 C 
ATOM     11  O   UNL     1       1.358   9.084  18.210  0.00  0.00    +0.000 OA
ATOM     12  C   UNL     1       0.848  10.685  20.288  0.00  0.00    +0.000 C 
ENDROOT
BRANCH   6  13
ATOM     13  C   UNL     1      -2.659  13.105  22.953  0.00  0.00    +0.000 A 
ATOM     14  C   UNL     1      -3.946  12.899  22.435  0.00  0.00    +0.000 A 
ATOM     15  C   UNL     1      -4.999  13.728  22.832  0.00  0.00    +0.000 A 
ATOM     16  C   UNL     1      -4.754  14.777  23.713  0.00  0.00    +0.000 A 
ATOM     17  F   UNL     1      -5.756  15.591  24.069  0.00  0.00    +0.000 F 
ATOM     18  C   UNL     1      -3.481  15.008  24.215  0.00  0.00    +0.000 A 
ATOM     19  C   UNL     1      -2.430  14.169  23.839  0.00  0.00    +0.000 A 
ENDBRANCH   6  13
BRANCH  10  20
ATOM     20  C   UNL     1       2.184   7.230  19.467  0.00  0.00    +0.000 C 
BRANCH  20  21
ATOM     21  C   UNL     1       2.743   6.723  18.118  0.00  0.00    +0.000 C 
BRANCH  21  22
ATOM     22  N   UNL     1       2.726   5.245  18.084  0.00  0.00    +0.000 NA
ATOM     23  H   UNL     1       3.544   4.859  18.550  0.00  0.00    +0.000 HD
ATOM     24  H   UNL     1       1.912   4.910  18.598  0.00  0.00    +0.000 HD
ENDBRANCH  21  22
BRANCH  21  25
ATOM     25  C   UNL     1       4.154   7.251  17.764  0.00  0.00    +0.000 C 
BRANCH  25  26
ATOM     26  C   UNL     1       5.145   6.250  17.205  0.00  0.00    +0.000 A 
ATOM     27  C   UNL     1       5.193   5.995  15.827  0.00  0.00    +0.000 A 
ATOM     28  C   UNL     1       6.149   5.130  15.306  0.00  0.00    +0.000 A 
ATOM     29  F   UNL     1       6.187   4.906  13.987  0.00  0.00    +0.000 F 
ATOM     30  C   UNL     1       7.072   4.503  16.134  0.00  0.00    +0.000 A 
ATOM     31  C   UNL     1       7.024   4.730  17.509  0.00  0.00    +0.000 A 
ATOM     32  C   UNL     1       6.059   5.593  18.034  0.00  0.00    +0.000 A 
ATOM     33  F   UNL     1       6.030   5.794  19.360  0.00  0.00    +0.000 F 
ENDBRANCH  25  26
ENDBRANCH  21  25
ENDBRANCH  20  21
ENDBRANCH  10  20
TORSDOF 6
ENDMDL
MODEL 6
REMARK VINA RESULT:      -7.8      1.048      1.130
REMARK  Name = 
REMARK  7 active torsions:
REMARK  status: ('A' for Active; 'I' for Inactive)
REMARK    1  A    between atoms: C_1  and  C_2
REMARK    2  A    between atoms: N_6  and  C_7
REMARK    3  A    between atoms: C_17  and  C_19
REMARK    4  A    between atoms: C_19  and  C_20
REMARK    5  A    between atoms: C_20  and  N_21
REMARK    6  A    between atoms: C_20  and  C_22
REMARK    7  A    between atoms: C_22  and  C_23
REMARK                            x       y       z     vdW  Elec       q    Type
REMARK                         _______ _______ _______ _____ _____    ______ ____
ROOT
ATOM      1  C   UNL     1       0.043   9.537  22.740  0.00  0.00    +0.000 C 
ATOM      2  C   UNL     1       0.422  10.078  21.413  0.00  0.00    +0.000 A 
ATOM      3  C   UNL     1       0.946   9.402  20.333  0.00  0.00    +0.000 A 
ATOM      4  C   UNL     1       1.006  10.338  19.298  0.00  0.00    +0.000 A 
ATOM      5  N   UNL     1       0.482  11.517  19.646  0.00  0.00    +0.000 NA
ATOM      6  N   UNL     1       0.245  11.393  20.987  0.00  0.00    +0.000 N 
ATOM      7  C   UNL     1       1.622  10.037  17.979  0.00  0.00    +0.000 C 
ATOM      8  C   UNL     1       1.799   8.508  17.796  0.00  0.00    +0.000 C 
ATOM      9  N   UNL     1       2.213   7.803  19.033  0.00  0.00    +0.000 N 
ATOM     10  C   UNL     1       3.048   6.694  19.105  0.00  0.00    +0.000 C 
ATOM     11  O   UNL     1       3.289   6.143  20.183  0.00  0.00    +0.000 OA
ATOM     12  C   UNL     1       1.351   7.983  20.205  0.00  0.00    +0.000 C 
ENDROOT
BRANCH   6  13
ATOM     13  C   UNL     1      -0.083  12.542  21.760  0.00  0.00    +0.000 A 
ATOM     14  C   UNL     1      -1.146  12.483  22.673  0.00  0.00    +0.000 A 
ATOM     15  C   UNL     1      -1.487  13.613  23.421  0.00  0.00    +0.000 A 
ATOM     16  C   UNL     1      -0.791  14.802  23.227  0.00  0.00    +0.000 A 
ATOM     17  F   UNL     1      -1.139  15.893  23.920  0.00  0.00    +0.000 F 
ATOM     18  C   UNL     1       0.247  14.882  22.309  0.00  0.00    +0.000 A 
ATOM     19  C   UNL     1       0.607  13.750  21.576  0.00  0.00    +0.000 A 
ENDBRANCH   6  13
BRANCH  10  20
ATOM     20  C   UNL     1       3.711   6.192  17.834  0.00  0.00    +0.000 C 
BRANCH  20  21
ATOM     21  C   UNL     1       4.934   5.298  18.141  0.00  0.00    +0.000 C 
BRANCH  21  22
ATOM     22  N   UNL     1       6.083   5.702  17.303  0.00  0.00    +0.000 NA
ATOM     23  H   UNL     1       6.701   6.333  17.808  0.00  0.00    +0.000 HD
ATOM     24  H   UNL     1       6.634   4.876  17.073  0.00  0.00    +0.000 HD
ENDBRANCH  21  22
BRANCH  21  25
ATOM     25  C   UNL     1       4.675   3.778  17.998  0.00  0.00    +0.000 C 
BRANCH  25  26
ATOM     26  C   UNL     1       3.435   3.224  18.668  0.00  0.00    +0.000 A 
ATOM     27  C   UNL     1       3.438   2.945  20.043  0.00  0.00    +0.000 A 
ATOM     28  C   UNL     1       2.279   2.504  20.672  0.00  0.00    +0.000 A 
ATOM     29  F   UNL     1       2.296   2.253  21.986  0.00  0.00    +0.000 F 
ATOM     30  C   UNL     1       1.100   2.329  19.956  0.00  0.00    +0.000 A 
ATOM     31  C   UNL     1       1.086   2.583  18.585  0.00  0.00    +0.000 A 
ATOM     32  C   UNL     1       2.252   3.019  17.952  0.00  0.00    +0.000 A 
ATOM     33  F   UNL     1       2.216   3.253  16.632  0.00  0.00    +0.000 F 
ENDBRANCH  25  26
ENDBRANCH  21  25
ENDBRANCH  20  21
ENDBRANCH  10  20
TORSDOF 6
ENDMDL
MODEL 7
REMARK VINA RESULT:      -7.8      3.715     10.401
REMARK  Name = 
REMARK  7 active torsions:
REMARK  status: ('A' for Active; 'I' for Inactive)
REMARK    1  A    between atoms: C_1  and  C_2
REMARK    2  A    between atoms: N_6  and  C_7
REMARK    3  A    between atoms: C_17  and  C_19
REMARK    4  A    between atoms: C_19  and  C_20
REMARK    5  A    between atoms: C_20  and  N_21
REMARK    6  A    between atoms: C_20  and  C_22
REMARK    7  A    between atoms: C_22  and  C_23
REMARK                            x       y       z     vdW  Elec       q    Type
REMARK                         _______ _______ _______ _____ _____    ______ ____
ROOT
ATOM      1  C   UNL     1       2.419   7.719  17.495  0.00  0.00    +0.000 C 
ATOM      2  C   UNL     1       2.025   7.935  18.908  0.00  0.00    +0.000 A 
ATOM      3  C   UNL     1       1.497   9.070  19.482  0.00  0.00    +0.000 A 
ATOM      4  C   UNL     1       1.189   8.716  20.798  0.00  0.00    +0.000 A 
ATOM      5  N   UNL     1       1.419   7.423  21.045  0.00  0.00    +0.000 NA
ATOM      6  N   UNL     1       2.056   6.978  19.920  0.00  0.00    +0.000 N 
ATOM      7  C   UNL     1       0.696   9.699  21.798  0.00  0.00    +0.000 C 
ATOM      8  C   UNL     1       0.212  10.995  21.099  0.00  0.00    +0.000 C 
ATOM      9  N   UNL     1       1.057  11.403  19.949  0.00  0.00    +0.000 N 
ATOM     10  C   UNL     1       1.334  12.708  19.559  0.00  0.00    +0.000 C 
ATOM     11  O   UNL     1       2.006  12.944  18.549  0.00  0.00    +0.000 OA
ATOM     12  C   UNL     1       1.244  10.406  18.892  0.00  0.00    +0.000 C 
ENDROOT
BRANCH   6  13
ATOM     13  C   UNL     1       2.682   5.700  19.917  0.00  0.00    +0.000 A 
ATOM     14  C   UNL     1       3.981   5.565  19.404  0.00  0.00    +0.000 A 
ATOM     15  C   UNL     1       4.593   4.310  19.378  0.00  0.00    +0.000 A 
ATOM     16  C   UNL     1       3.896   3.194  19.830  0.00  0.00    +0.000 A 
ATOM     17  F   UNL     1       4.472   1.986  19.775  0.00  0.00    +0.000 F 
ATOM     18  C   UNL     1       2.601   3.308  20.317  0.00  0.00    +0.000 A 
ATOM     19  C   UNL     1       1.992   4.563  20.366  0.00  0.00    +0.000 A 
ENDBRANCH   6  13
BRANCH  10  20
ATOM     20  C   UNL     1       0.840  13.853  20.424  0.00  0.00    +0.000 C 
BRANCH  20  21
ATOM     21  C   UNL     1      -0.447  14.491  19.852  0.00  0.00    +0.000 C 
BRANCH  21  22
ATOM     22  N   UNL     1      -0.636  14.079  18.445  0.00  0.00    +0.000 NA
ATOM     23  H   UNL     1       0.214  13.666  18.067  0.00  0.00    +0.000 HD
ATOM     24  H   UNL     1      -1.353  13.356  18.403  0.00  0.00    +0.000 HD
ENDBRANCH  21  22
BRANCH  21  25
ATOM     25  C   UNL     1      -0.513  16.032  19.972  0.00  0.00    +0.000 C 
BRANCH  25  26
ATOM     26  C   UNL     1       0.036  16.839  18.813  0.00  0.00    +0.000 A 
ATOM     27  C   UNL     1       1.388  16.733  18.454  0.00  0.00    +0.000 A 
ATOM     28  C   UNL     1       1.875  17.418  17.347  0.00  0.00    +0.000 A 
ATOM     29  F   UNL     1       3.166  17.298  17.012  0.00  0.00    +0.000 F 
ATOM     30  C   UNL     1       1.039  18.218  16.576  0.00  0.00    +0.000 A 
ATOM     31  C   UNL     1      -0.303  18.349  16.932  0.00  0.00    +0.000 A 
ATOM     32  C   UNL     1      -0.791  17.667  18.049  0.00  0.00    +0.000 A 
ATOM     33  F   UNL     1      -2.084  17.811  18.374  0.00  0.00    +0.000 F 
ENDBRANCH  25  26
ENDBRANCH  21  25
ENDBRANCH  20  21
ENDBRANCH  10  20
TORSDOF 6
ENDMDL
MODEL 8
REMARK VINA RESULT:      -7.8      2.601      4.103
REMARK  Name = 
REMARK  7 active torsions:
REMARK  status: ('A' for Active; 'I' for Inactive)
REMARK    1  A    between atoms: C_1  and  C_2
REMARK    2  A    between atoms: N_6  and  C_7
REMARK    3  A    between atoms: C_17  and  C_19
REMARK    4  A    between atoms: C_19  and  C_20
REMARK    5  A    between atoms: C_20  and  N_21
REMARK    6  A    between atoms: C_20  and  C_22
REMARK    7  A    between atoms: C_22  and  C_23
REMARK                            x       y       z     vdW  Elec       q    Type
REMARK                         _______ _______ _______ _____ _____    ______ ____
ROOT
ATOM      1  C   UNL     1      -1.686  13.485  20.275  0.00  0.00    +0.000 C 
ATOM      2  C   UNL     1      -1.621  12.454  21.338  0.00  0.00    +0.000 A 
ATOM      3  C   UNL     1      -0.739  11.402  21.453  0.00  0.00    +0.000 A 
ATOM      4  C   UNL     1      -1.022  10.808  22.686  0.00  0.00    +0.000 A 
ATOM      5  N   UNL     1      -1.962  11.472  23.367  0.00  0.00    +0.000 NA
ATOM      6  N   UNL     1      -2.420  12.405  22.479  0.00  0.00    +0.000 N 
ATOM      7  C   UNL     1      -0.362   9.559  23.146  0.00  0.00    +0.000 C 
ATOM      8  C   UNL     1       0.901   9.265  22.296  0.00  0.00    +0.000 C 
ATOM      9  N   UNL     1       0.738   9.582  20.856  0.00  0.00    +0.000 N 
ATOM     10  C   UNL     1       1.313   8.892  19.795  0.00  0.00    +0.000 C 
ATOM     11  O   UNL     1       1.161   9.270  18.629  0.00  0.00    +0.000 OA
ATOM     12  C   UNL     1       0.330  10.951  20.532  0.00  0.00    +0.000 C 
ENDROOT
BRANCH   6  13
ATOM     13  C   UNL     1      -3.605  13.139  22.766  0.00  0.00    +0.000 A 
ATOM     14  C   UNL     1      -4.801  12.807  22.114  0.00  0.00    +0.000 A 
ATOM     15  C   UNL     1      -5.964  13.537  22.376  0.00  0.00    +0.000 A 
ATOM     16  C   UNL     1      -5.918  14.613  23.257  0.00  0.00    +0.000 A 
ATOM     17  F   UNL     1      -7.024  15.331  23.484  0.00  0.00    +0.000 F 
ATOM     18  C   UNL     1      -4.735  14.967  23.891  0.00  0.00    +0.000 A 
ATOM     19  C   UNL     1      -3.576  14.228  23.651  0.00  0.00    +0.000 A 
ENDBRANCH   6  13
BRANCH  10  20
ATOM     20  C   UNL     1       2.097   7.624  20.083  0.00  0.00    +0.000 C 
BRANCH  20  21
ATOM     21  C   UNL     1       2.758   7.056  18.806  0.00  0.00    +0.000 C 
BRANCH  21  22
ATOM     22  N   UNL     1       1.722   6.703  17.812  0.00  0.00    +0.000 NA
ATOM     23  H   UNL     1       0.859   6.418  18.268  0.00  0.00    +0.000 HD
ATOM     24  H   UNL     1       1.499   7.528  17.257  0.00  0.00    +0.000 HD
ENDBRANCH  21  22
BRANCH  21  25
ATOM     25  C   UNL     1       3.700   5.851  19.048  0.00  0.00    +0.000 C 
BRANCH  25  26
ATOM     26  C   UNL     1       3.064   4.478  19.100  0.00  0.00    +0.000 A 
ATOM     27  C   UNL     1       2.373   4.060  20.247  0.00  0.00    +0.000 A 
ATOM     28  C   UNL     1       1.729   2.828  20.268  0.00  0.00    +0.000 A 
ATOM     29  F   UNL     1       1.065   2.450  21.367  0.00  0.00    +0.000 F 
ATOM     30  C   UNL     1       1.756   1.988  19.161  0.00  0.00    +0.000 A 
ATOM     31  C   UNL     1       2.457   2.379  18.021  0.00  0.00    +0.000 A 
ATOM     32  C   UNL     1       3.110   3.614  18.001  0.00  0.00    +0.000 A 
ATOM     33  F   UNL     1       3.780   3.968  16.895  0.00  0.00    +0.000 F 
ENDBRANCH  25  26
ENDBRANCH  21  25
ENDBRANCH  20  21
ENDBRANCH  10  20
TORSDOF 6
ENDMDL
MODEL 9
REMARK VINA RESULT:      -7.7      2.189      3.634
REMARK  Name = 
REMARK  7 active torsions:
REMARK  status: ('A' for Active; 'I' for Inactive)
REMARK    1  A    between atoms: C_1  and  C_2
REMARK    2  A    between atoms: N_6  and  C_7
REMARK    3  A    between atoms: C_17  and  C_19
REMARK    4  A    between atoms: C_19  and  C_20
REMARK    5  A    between atoms: C_20  and  N_21
REMARK    6  A    between atoms: C_20  and  C_22
REMARK    7  A    between atoms: C_22  and  C_23
REMARK                            x       y       z     vdW  Elec       q    Type
REMARK                         _______ _______ _______ _____ _____    ______ ____
ROOT
ATOM      1  C   UNL     1       0.134   9.692  22.988  0.00  0.00    +0.000 C 
ATOM      2  C   UNL     1       0.386  10.154  21.602  0.00  0.00    +0.000 A 
ATOM      3  C   UNL     1       0.805   9.414  20.519  0.00  0.00    +0.000 A 
ATOM      4  C   UNL     1       0.768  10.289  19.430  0.00  0.00    +0.000 A 
ATOM      5  N   UNL     1       0.280  11.489  19.758  0.00  0.00    +0.000 NA
ATOM      6  N   UNL     1       0.171  11.443  21.120  0.00  0.00    +0.000 N 
ATOM      7  C   UNL     1       1.257   9.909  18.079  0.00  0.00    +0.000 C 
ATOM      8  C   UNL     1       1.415   8.371  17.968  0.00  0.00    +0.000 C 
ATOM      9  N   UNL     1       1.943   7.735  19.200  0.00  0.00    +0.000 N 
ATOM     10  C   UNL     1       2.780   6.627  19.256  0.00  0.00    +0.000 C 
ATOM     11  O   UNL     1       3.121   6.137  20.338  0.00  0.00    +0.000 OA
ATOM     12  C   UNL     1       1.196   7.987  20.435  0.00  0.00    +0.000 C 
ENDROOT
BRANCH   6  13
ATOM     13  C   UNL     1      -0.082  12.636  21.852  0.00  0.00    +0.000 A 
ATOM     14  C   UNL     1      -1.117  12.663  22.799  0.00  0.00    +0.000 A 
ATOM     15  C   UNL     1      -1.384  13.837  23.507  0.00  0.00    +0.000 A 
ATOM     16  C   UNL     1      -0.644  14.985  23.242  0.00  0.00    +0.000 A 
ATOM     17  F   UNL     1      -0.922  16.118  23.898  0.00  0.00    +0.000 F 
ATOM     18  C   UNL     1       0.367  14.980  22.291  0.00  0.00    +0.000 A 
ATOM     19  C   UNL     1       0.653  13.804  21.596  0.00  0.00    +0.000 A 
ENDBRANCH   6  13
BRANCH  10  20
ATOM     20  C   UNL     1       3.321   6.049  17.960  0.00  0.00    +0.000 C 
BRANCH  20  21
ATOM     21  C   UNL     1       2.657   4.696  17.615  0.00  0.00    +0.000 C 
BRANCH  21  22
ATOM     22  N   UNL     1       1.800   4.251  18.734  0.00  0.00    +0.000 NA
ATOM     23  H   UNL     1       2.341   3.739  19.428  0.00  0.00    +0.000 HD
ATOM     24  H   UNL     1       1.418   5.069  19.207  0.00  0.00    +0.000 HD
ENDBRANCH  21  22
BRANCH  21  25
ATOM     25  C   UNL     1       3.647   3.574  17.219  0.00  0.00    +0.000 C 
BRANCH  25  26
ATOM     26  C   UNL     1       5.014   4.001  16.728  0.00  0.00    +0.000 A 
ATOM     27  C   UNL     1       5.264   4.132  15.354  0.00  0.00    +0.000 A 
ATOM     28  C   UNL     1       6.497   4.593  14.905  0.00  0.00    +0.000 A 
ATOM     29  F   UNL     1       6.715   4.722  13.591  0.00  0.00    +0.000 F 
ATOM     30  C   UNL     1       7.503   4.932  15.803  0.00  0.00    +0.000 A 
ATOM     31  C   UNL     1       7.277   4.788  17.172  0.00  0.00    +0.000 A 
ATOM     32  C   UNL     1       6.041   4.318  17.622  0.00  0.00    +0.000 A 
ATOM     33  F   UNL     1       5.848   4.185  18.943  0.00  0.00    +0.000 F 
ENDBRANCH  25  26
ENDBRANCH  21  25
ENDBRANCH  20  21
ENDBRANCH  10  20
TORSDOF 6
ENDMDL
