MODEL 1
REMARK VINA RESULT:      -8.4      0.000      0.000
REMARK  Name = 
REMARK  9 active torsions:
REMARK  status: ('A' for Active; 'I' for Inactive)
REMARK    1  A    between atoms: C_1  and  C_2
REMARK    2  A    between atoms: C_2  and  C_3
REMARK    3  A    between atoms: C_4  and  C_5
REMARK    4  A    between atoms: N_7  and  C_8
REMARK    5  A    between atoms: C_11  and  N_12
REMARK    6  A    between atoms: C_15  and  C_16
REMARK    7  A    between atoms: C_21  and  C_22
REMARK    8  A    between atoms: C_31  and  O_32
REMARK    9  A    between atoms: O_32  and  C_33
REMARK                            x       y       z     vdW  Elec       q    Type
REMARK                         _______ _______ _______ _____ _____    ______ ____
ROOT
ATOM      1  C   UNL     1       0.071   9.922  20.595  0.00  0.00    +0.000 C 
ATOM      2  C   UNL     1       0.752  11.025  21.417  0.00  0.00    +0.000 C 
ATOM      3  C   UNL     1       0.950  12.336  20.659  0.00  0.00    +0.000 C 
ATOM      4  C   UNL     1      -0.360  12.857  20.029  0.00  0.00    +0.000 C 
ATOM      5  C   UNL     1      -0.836  11.754  19.055  0.00  0.00    +0.000 C 
ATOM      6  C   UNL     1      -1.105  10.420  19.744  0.00  0.00    +0.000 C 
ENDROOT
BRANCH   4   7
ATOM      7  N   UNL     1      -1.342  13.324  21.063  0.00  0.00    +0.000 NA
ATOM      8  C   UNL     1      -2.245  14.339  20.478  0.00  0.00    +0.000 C 
ATOM      9  C   UNL     1      -3.568  14.626  21.198  0.00  0.00    +0.000 C 
ATOM     10  C   UNL     1      -4.312  13.386  21.710  0.00  0.00    +0.000 C 
ATOM     11  C   UNL     1      -3.311  12.548  22.505  0.00  0.00    +0.000 C 
ATOM     12  C   UNL     1      -2.035  12.208  21.731  0.00  0.00    +0.000 C 
BRANCH  10  13
ATOM     13  C   UNL     1      -5.138  12.617  20.670  0.00  0.00    +0.000 A 
ATOM     14  C   UNL     1      -4.582  12.289  19.418  0.00  0.00    +0.000 A 
ATOM     15  C   UNL     1      -5.301  11.602  18.434  0.00  0.00    +0.000 A 
ATOM     16  C   UNL     1      -6.612  11.231  18.668  0.00  0.00    +0.000 A 
ATOM     17  C   UNL     1      -7.191  11.523  19.898  0.00  0.00    +0.000 A 
ATOM     18  C   UNL     1      -6.475  12.202  20.908  0.00  0.00    +0.000 A 
ATOM     19  C   UNL     1      -7.182  12.362  22.231  0.00  0.00    +0.000 C 
ENDBRANCH  10  13
ENDBRANCH   4   7
BRANCH   1  22
ATOM     20  C   UNL     1       1.504   7.964  20.182  0.00  0.00    +0.000 C 
ATOM     21  O   UNL     1       1.167   7.461  21.248  0.00  0.00    +0.000 OA
ATOM     22  N   UNL     1       1.044   9.206  19.775  0.00  0.00    +0.000 N 
ATOM     23  H   UNL     1       1.089   9.422  18.789  0.00  0.00    +0.000 HD
BRANCH  20  25
ATOM     24  C   UNL     1       2.822   5.987  19.234  0.00  0.00    +0.000 A 
ATOM     25  C   UNL     1       2.380   7.308  19.232  0.00  0.00    +0.000 A 
ATOM     26  N   UNL     1       2.998   7.933  18.175  0.00  0.00    +0.000 N 
ATOM     27  C   UNL     1       3.786   7.062  17.466  0.00  0.00    +0.000 A 
ATOM     28  C   UNL     1       4.591   7.266  16.345  0.00  0.00    +0.000 A 
ATOM     29  C   UNL     1       5.298   6.169  15.837  0.00  0.00    +0.000 A 
ATOM     30  C   UNL     1       5.205   4.911  16.435  0.00  0.00    +0.000 A 
ATOM     31  C   UNL     1       4.407   4.737  17.575  0.00  0.00    +0.000 A 
ATOM     32  C   UNL     1       3.689   5.825  18.104  0.00  0.00    +0.000 A 
ATOM     33  H   UNL     1       2.919   8.920  17.973  0.00  0.00    +0.000 HD
BRANCH  24  35
ATOM     34  C   UNL     1       1.340   4.030  19.739  0.00  0.00    +0.000 C 
ATOM     35  C   UNL     1       2.466   4.928  20.234  0.00  0.00    +0.000 C 
ENDBRANCH  24  35
BRANCH  30  36
ATOM     36  O   UNL     1       5.838   3.770  16.012  0.00  0.00    +0.000 OA
ATOM     37  C   UNL     1       6.243   3.724  14.651  0.00  0.00    +0.000 C 
ENDBRANCH  30  36
ENDBRANCH  20  25
ENDBRANCH   1  22
TORSDOF 6
ENDMDL
MODEL 2
REMARK VINA RESULT:      -8.1      2.049      3.095
REMARK  Name = 
REMARK  9 active torsions:
REMARK  status: ('A' for Active; 'I' for Inactive)
REMARK    1  A    between atoms: C_1  and  C_2
REMARK    2  A    between atoms: C_2  and  C_3
REMARK    3  A    between atoms: C_4  and  C_5
REMARK    4  A    between atoms: N_7  and  C_8
REMARK    5  A    between atoms: C_11  and  N_12
REMARK    6  A    between atoms: C_15  and  C_16
REMARK    7  A    between atoms: C_21  and  C_22
REMARK    8  A    between atoms: C_31  and  O_32
REMARK    9  A    between atoms: O_32  and  C_33
REMARK                            x       y       z     vdW  Elec       q    Type
REMARK                         _______ _______ _______ _____ _____    ______ ____
ROOT
ATOM      1  C   UNL     1       0.721   8.852  20.700  0.00  0.00    +0.000 C 
ATOM      2  C   UNL     1       1.287  10.032  21.501  0.00  0.00    +0.000 C 
ATOM      3  C   UNL     1       1.419  11.325  20.698  0.00  0.00    +0.000 C 
ATOM      4  C   UNL     1       0.101  11.723  19.998  0.00  0.00    +0.000 C 
ATOM      5  C   UNL     1      -0.254  10.552  19.054  0.00  0.00    +0.000 C 
ATOM      6  C   UNL     1      -0.453   9.229  19.786  0.00  0.00    +0.000 C 
ENDROOT
BRANCH   4   7
ATOM      7  N   UNL     1      -0.952  12.155  20.976  0.00  0.00    +0.000 NA
ATOM      8  C   UNL     1      -0.437  13.258  21.817  0.00  0.00    +0.000 C 
ATOM      9  C   UNL     1      -1.453  14.129  22.564  0.00  0.00    +0.000 C 
ATOM     10  C   UNL     1      -2.693  14.525  21.751  0.00  0.00    +0.000 C 
ATOM     11  C   UNL     1      -3.263  13.247  21.137  0.00  0.00    +0.000 C 
ATOM     12  C   UNL     1      -2.245  12.440  20.328  0.00  0.00    +0.000 C 
BRANCH  10  13
ATOM     13  C   UNL     1      -2.517  15.702  20.781  0.00  0.00    +0.000 A 
ATOM     14  C   UNL     1      -1.284  15.914  20.132  0.00  0.00    +0.000 A 
ATOM     15  C   UNL     1      -1.073  16.980  19.252  0.00  0.00    +0.000 A 
ATOM     16  C   UNL     1      -2.091  17.883  19.002  0.00  0.00    +0.000 A 
ATOM     17  C   UNL     1      -3.327  17.698  19.612  0.00  0.00    +0.000 A 
ATOM     18  C   UNL     1      -3.562  16.618  20.491  0.00  0.00    +0.000 A 
ATOM     19  C   UNL     1      -4.974  16.471  21.001  0.00  0.00    +0.000 C 
ENDBRANCH  10  13
ENDBRANCH   4   7
BRANCH   1  22
ATOM     20  C   UNL     1       1.971   6.817  20.106  0.00  0.00    +0.000 C 
ATOM     21  O   UNL     1       1.325   6.155  20.911  0.00  0.00    +0.000 OA
ATOM     22  N   UNL     1       1.775   8.179  19.946  0.00  0.00    +0.000 N 
ATOM     23  H   UNL     1       2.086   8.598  19.081  0.00  0.00    +0.000 HD
BRANCH  20  25
ATOM     24  C   UNL     1       2.791   5.327  18.195  0.00  0.00    +0.000 A 
ATOM     25  C   UNL     1       2.971   6.248  19.225  0.00  0.00    +0.000 A 
ATOM     26  N   UNL     1       4.322   6.481  19.320  0.00  0.00    +0.000 N 
ATOM     27  C   UNL     1       5.021   5.785  18.365  0.00  0.00    +0.000 A 
ATOM     28  C   UNL     1       6.390   5.715  18.107  0.00  0.00    +0.000 A 
ATOM     29  C   UNL     1       6.818   4.900  17.051  0.00  0.00    +0.000 A 
ATOM     30  C   UNL     1       5.905   4.175  16.284  0.00  0.00    +0.000 A 
ATOM     31  C   UNL     1       4.535   4.244  16.579  0.00  0.00    +0.000 A 
ATOM     32  C   UNL     1       4.083   5.055  17.635  0.00  0.00    +0.000 A 
ATOM     33  H   UNL     1       4.752   7.055  20.031  0.00  0.00    +0.000 HD
BRANCH  24  35
ATOM     34  C   UNL     1       1.270   3.341  18.349  0.00  0.00    +0.000 C 
ATOM     35  C   UNL     1       1.492   4.724  17.753  0.00  0.00    +0.000 C 
ENDBRANCH  24  35
BRANCH  30  36
ATOM     36  O   UNL     1       6.211   3.363  15.222  0.00  0.00    +0.000 OA
ATOM     37  C   UNL     1       6.392   3.994  13.962  0.00  0.00    +0.000 C 
ENDBRANCH  30  36
ENDBRANCH  20  25
ENDBRANCH   1  22
TORSDOF 6
ENDMDL
MODEL 3
REMARK VINA RESULT:      -8.1      1.829      2.897
REMARK  Name = 
REMARK  9 active torsions:
REMARK  status: ('A' for Active; 'I' for Inactive)
REMARK    1  A    between atoms: C_1  and  C_2
REMARK    2  A    between atoms: C_2  and  C_3
REMARK    3  A    between atoms: C_4  and  C_5
REMARK    4  A    between atoms: N_7  and  C_8
REMARK    5  A    between atoms: C_11  and  N_12
REMARK    6  A    between atoms: C_15  and  C_16
REMARK    7  A    between atoms: C_21  and  C_22
REMARK    8  A    between atoms: C_31  and  O_32
REMARK    9  A    between atoms: O_32  and  C_33
REMARK                            x       y       z     vdW  Elec       q    Type
REMARK                         _______ _______ _______ _____ _____    ______ ____
ROOT
ATOM      1  C   UNL     1       0.460   9.413  20.408  0.00  0.00    +0.000 C 
ATOM      2  C   UNL     1       1.128  10.582  21.145  0.00  0.00    +0.000 C 
ATOM      3  C   UNL     1       1.171  11.882  20.343  0.00  0.00    +0.000 C 
ATOM      4  C   UNL     1      -0.219  12.296  19.814  0.00  0.00    +0.000 C 
ATOM      5  C   UNL     1      -0.696  11.136  18.908  0.00  0.00    +0.000 C 
ATOM      6  C   UNL     1      -0.814   9.807  19.648  0.00  0.00    +0.000 C 
ENDROOT
BRANCH   4   7
ATOM      7  N   UNL     1      -1.142  12.724  20.916  0.00  0.00    +0.000 NA
ATOM      8  C   UNL     1      -0.568  13.886  21.630  0.00  0.00    +0.000 C 
ATOM      9  C   UNL     1      -1.510  14.744  22.482  0.00  0.00    +0.000 C 
ATOM     10  C   UNL     1      -2.871  15.047  21.843  0.00  0.00    +0.000 C 
ATOM     11  C   UNL     1      -3.458  13.719  21.368  0.00  0.00    +0.000 C 
ATOM     12  C   UNL     1      -2.527  12.922  20.453  0.00  0.00    +0.000 C 
BRANCH  10  13
ATOM     13  C   UNL     1      -2.896  16.186  20.814  0.00  0.00    +0.000 A 
ATOM     14  C   UNL     1      -1.730  16.526  20.099  0.00  0.00    +0.000 A 
ATOM     15  C   UNL     1      -1.701  17.565  19.162  0.00  0.00    +0.000 A 
ATOM     16  C   UNL     1      -2.842  18.309  18.919  0.00  0.00    +0.000 A 
ATOM     17  C   UNL     1      -4.016  17.992  19.593  0.00  0.00    +0.000 A 
ATOM     18  C   UNL     1      -4.066  16.937  20.531  0.00  0.00    +0.000 A 
ATOM     19  C   UNL     1      -5.424  16.630  21.113  0.00  0.00    +0.000 C 
ENDBRANCH  10  13
ENDBRANCH   4   7
BRANCH   1  22
ATOM     20  C   UNL     1       1.860   7.470  19.841  0.00  0.00    +0.000 C 
ATOM     21  O   UNL     1       1.535   6.902  20.878  0.00  0.00    +0.000 OA
ATOM     22  N   UNL     1       1.409   8.742  19.524  0.00  0.00    +0.000 N 
ATOM     23  H   UNL     1       1.440   9.021  18.554  0.00  0.00    +0.000 HD
BRANCH  20  25
ATOM     24  C   UNL     1       2.962   5.516  18.612  0.00  0.00    +0.000 A 
ATOM     25  C   UNL     1       2.711   6.868  18.835  0.00  0.00    +0.000 A 
ATOM     26  N   UNL     1       3.496   7.570  17.951  0.00  0.00    +0.000 N 
ATOM     27  C   UNL     1       4.210   6.728  17.135  0.00  0.00    +0.000 A 
ATOM     28  C   UNL     1       5.126   7.004  16.119  0.00  0.00    +0.000 A 
ATOM     29  C   UNL     1       5.712   5.920  15.453  0.00  0.00    +0.000 A 
ATOM     30  C   UNL     1       5.395   4.605  15.797  0.00  0.00    +0.000 A 
ATOM     31  C   UNL     1       4.489   4.355  16.838  0.00  0.00    +0.000 A 
ATOM     32  C   UNL     1       3.888   5.428  17.521  0.00  0.00    +0.000 A 
ATOM     33  H   UNL     1       3.573   8.577  17.934  0.00  0.00    +0.000 HD
BRANCH  24  35
ATOM     34  C   UNL     1       1.319   3.624  18.568  0.00  0.00    +0.000 C 
ATOM     35  C   UNL     1       2.379   4.363  19.372  0.00  0.00    +0.000 C 
ENDBRANCH  24  35
BRANCH  30  36
ATOM     36  O   UNL     1       5.894   3.474  15.202  0.00  0.00    +0.000 OA
ATOM     37  C   UNL     1       6.208   3.559  13.819  0.00  0.00    +0.000 C 
ENDBRANCH  30  36
ENDBRANCH  20  25
ENDBRANCH   1  22
TORSDOF 6
ENDMDL
MODEL 4
REMARK VINA RESULT:      -7.9      0.950      1.045
REMARK  Name = 
REMARK  9 active torsions:
REMARK  status: ('A' for Active; 'I' for Inactive)
REMARK    1  A    between atoms: C_1  and  C_2
REMARK    2  A    between atoms: C_2  and  C_3
REMARK    3  A    between atoms: C_4  and  C_5
REMARK    4  A    between atoms: N_7  and  C_8
REMARK    5  A    between atoms: C_11  and  N_12
REMARK    6  A    between atoms: C_15  and  C_16
REMARK    7  A    between atoms: C_21  and  C_22
REMARK    8  A    between atoms: C_31  and  O_32
REMARK    9  A    between atoms: O_32  and  C_33
REMARK                            x       y       z     vdW  Elec       q    Type
REMARK                         _______ _______ _______ _____ _____    ______ ____
ROOT
ATOM      1  C   UNL     1       0.210   9.761  20.397  0.00  0.00    +0.000 C 
ATOM      2  C   UNL     1       0.904  10.862  21.210  0.00  0.00    +0.000 C 
ATOM      3  C   UNL     1       1.104  12.170  20.446  0.00  0.00    +0.000 C 
ATOM      4  C   UNL     1      -0.208  12.696  19.823  0.00  0.00    +0.000 C 
ATOM      5  C   UNL     1      -0.697  11.592  18.857  0.00  0.00    +0.000 C 
ATOM      6  C   UNL     1      -0.969  10.263  19.553  0.00  0.00    +0.000 C 
ENDROOT
BRANCH   4   7
ATOM      7  N   UNL     1      -1.178  13.172  20.863  0.00  0.00    +0.000 NA
ATOM      8  C   UNL     1      -1.785  14.453  20.436  0.00  0.00    +0.000 C 
ATOM      9  C   UNL     1      -3.091  14.890  21.110  0.00  0.00    +0.000 C 
ATOM     10  C   UNL     1      -4.125  13.775  21.311  0.00  0.00    +0.000 C 
ATOM     11  C   UNL     1      -3.410  12.605  21.984  0.00  0.00    +0.000 C 
ATOM     12  C   UNL     1      -2.155  12.137  21.245  0.00  0.00    +0.000 C 
BRANCH  10  13
ATOM     13  C   UNL     1      -4.974  13.413  20.084  0.00  0.00    +0.000 A 
ATOM     14  C   UNL     1      -4.679  12.261  19.327  0.00  0.00    +0.000 A 
ATOM     15  C   UNL     1      -5.415  11.899  18.194  0.00  0.00    +0.000 A 
ATOM     16  C   UNL     1      -6.468  12.690  17.772  0.00  0.00    +0.000 A 
ATOM     17  C   UNL     1      -6.801  13.826  18.502  0.00  0.00    +0.000 A 
ATOM     18  C   UNL     1      -6.077  14.198  19.657  0.00  0.00    +0.000 A 
ATOM     19  C   UNL     1      -6.605  15.389  20.416  0.00  0.00    +0.000 C 
ENDBRANCH  10  13
ENDBRANCH   4   7
BRANCH   1  22
ATOM     20  C   UNL     1       1.621   7.788  19.976  0.00  0.00    +0.000 C 
ATOM     21  O   UNL     1       1.282   7.287  21.042  0.00  0.00    +0.000 OA
ATOM     22  N   UNL     1       1.173   9.036  19.572  0.00  0.00    +0.000 N 
ATOM     23  H   UNL     1       1.216   9.252  18.586  0.00  0.00    +0.000 HD
BRANCH  20  25
ATOM     24  C   UNL     1       2.609   5.760  18.769  0.00  0.00    +0.000 A 
ATOM     25  C   UNL     1       2.486   7.125  19.022  0.00  0.00    +0.000 A 
ATOM     26  N   UNL     1       3.417   7.760  18.235  0.00  0.00    +0.000 N 
ATOM     27  C   UNL     1       4.104   6.869  17.450  0.00  0.00    +0.000 A 
ATOM     28  C   UNL     1       5.131   7.070  16.526  0.00  0.00    +0.000 A 
ATOM     29  C   UNL     1       5.652   5.947  15.870  0.00  0.00    +0.000 A 
ATOM     30  C   UNL     1       5.166   4.667  16.136  0.00  0.00    +0.000 A 
ATOM     31  C   UNL     1       4.150   4.489  17.087  0.00  0.00    +0.000 A 
ATOM     32  C   UNL     1       3.611   5.601  17.758  0.00  0.00    +0.000 A 
ATOM     33  H   UNL     1       3.604   8.753  18.263  0.00  0.00    +0.000 HD
BRANCH  24  35
ATOM     34  C   UNL     1       2.585   4.080  20.629  0.00  0.00    +0.000 C 
ATOM     35  C   UNL     1       1.840   4.657  19.434  0.00  0.00    +0.000 C 
ENDBRANCH  24  35
BRANCH  30  36
ATOM     36  O   UNL     1       5.590   3.505  15.542  0.00  0.00    +0.000 OA
ATOM     37  C   UNL     1       6.310   3.630  14.324  0.00  0.00    +0.000 C 
ENDBRANCH  30  36
ENDBRANCH  20  25
ENDBRANCH   1  22
TORSDOF 6
ENDMDL
MODEL 5
REMARK VINA RESULT:      -7.9      2.005      3.450
REMARK  Name = 
REMARK  9 active torsions:
REMARK  status: ('A' for Active; 'I' for Inactive)
REMARK    1  A    between atoms: C_1  and  C_2
REMARK    2  A    between atoms: C_2  and  C_3
REMARK    3  A    between atoms: C_4  and  C_5
REMARK    4  A    between atoms: N_7  and  C_8
REMARK    5  A    between atoms: C_11  and  N_12
REMARK    6  A    between atoms: C_15  and  C_16
REMARK    7  A    between atoms: C_21  and  C_22
REMARK    8  A    between atoms: C_31  and  O_32
REMARK    9  A    between atoms: O_32  and  C_33
REMARK                            x       y       z     vdW  Elec       q    Type
REMARK                         _______ _______ _______ _____ _____    ______ ____
ROOT
ATOM      1  C   UNL     1       0.497   8.642  21.321  0.00  0.00    +0.000 C 
ATOM      2  C   UNL     1       0.871   9.781  22.280  0.00  0.00    +0.000 C 
ATOM      3  C   UNL     1       0.929  11.158  21.621  0.00  0.00    +0.000 C 
ATOM      4  C   UNL     1      -0.364  11.498  20.849  0.00  0.00    +0.000 C 
ATOM      5  C   UNL     1      -0.518  10.404  19.767  0.00  0.00    +0.000 C 
ATOM      6  C   UNL     1      -0.634   8.998  20.347  0.00  0.00    +0.000 C 
ENDROOT
BRANCH   4   7
ATOM      7  N   UNL     1      -1.531  11.720  21.766  0.00  0.00    +0.000 NA
ATOM      8  C   UNL     1      -1.116  12.556  22.915  0.00  0.00    +0.000 C 
ATOM      9  C   UNL     1      -2.211  13.259  23.725  0.00  0.00    +0.000 C 
ATOM     10  C   UNL     1      -3.329  13.899  22.892  0.00  0.00    +0.000 C 
ATOM     11  C   UNL     1      -3.829  12.840  21.910  0.00  0.00    +0.000 C 
ATOM     12  C   UNL     1      -2.725  12.214  21.056  0.00  0.00    +0.000 C 
BRANCH  10  13
ATOM     13  C   UNL     1      -3.013  15.271  22.280  0.00  0.00    +0.000 A 
ATOM     14  C   UNL     1      -2.463  15.366  20.986  0.00  0.00    +0.000 A 
ATOM     15  C   UNL     1      -2.146  16.592  20.393  0.00  0.00    +0.000 A 
ATOM     16  C   UNL     1      -2.359  17.771  21.086  0.00  0.00    +0.000 A 
ATOM     17  C   UNL     1      -2.916  17.719  22.359  0.00  0.00    +0.000 A 
ATOM     18  C   UNL     1      -3.256  16.490  22.966  0.00  0.00    +0.000 A 
ATOM     19  C   UNL     1      -3.949  16.578  24.302  0.00  0.00    +0.000 C 
ENDBRANCH  10  13
ENDBRANCH   4   7
BRANCH   1  22
ATOM     20  C   UNL     1       1.804   6.805  20.333  0.00  0.00    +0.000 C 
ATOM     21  O   UNL     1       0.990   5.979  20.732  0.00  0.00    +0.000 OA
ATOM     22  N   UNL     1       1.673   8.158  20.603  0.00  0.00    +0.000 N 
ATOM     23  H   UNL     1       2.167   8.804  20.004  0.00  0.00    +0.000 HD
BRANCH  20  25
ATOM     24  C   UNL     1       3.241   6.862  18.218  0.00  0.00    +0.000 A 
ATOM     25  C   UNL     1       2.954   6.464  19.522  0.00  0.00    +0.000 A 
ATOM     26  N   UNL     1       3.951   5.598  19.902  0.00  0.00    +0.000 N 
ATOM     27  C   UNL     1       4.895   5.453  18.916  0.00  0.00    +0.000 A 
ATOM     28  C   UNL     1       6.052   4.675  18.868  0.00  0.00    +0.000 A 
ATOM     29  C   UNL     1       6.829   4.726  17.704  0.00  0.00    +0.000 A 
ATOM     30  C   UNL     1       6.457   5.526  16.623  0.00  0.00    +0.000 A 
ATOM     31  C   UNL     1       5.276   6.280  16.686  0.00  0.00    +0.000 A 
ATOM     32  C   UNL     1       4.479   6.244  17.845  0.00  0.00    +0.000 A 
ATOM     33  H   UNL     1       3.965   5.095  20.778  0.00  0.00    +0.000 HD
BRANCH  24  35
ATOM     34  C   UNL     1       2.536   9.224  17.767  0.00  0.00    +0.000 C 
ATOM     35  C   UNL     1       2.408   7.764  17.356  0.00  0.00    +0.000 C 
ENDBRANCH  24  35
BRANCH  30  36
ATOM     36  O   UNL     1       7.149   5.664  15.446  0.00  0.00    +0.000 OA
ATOM     37  C   UNL     1       6.871   4.720  14.422  0.00  0.00    +0.000 C 
ENDBRANCH  30  36
ENDBRANCH  20  25
ENDBRANCH   1  22
TORSDOF 6
ENDMDL
MODEL 6
REMARK VINA RESULT:      -7.8      1.937      3.241
REMARK  Name = 
REMARK  9 active torsions:
REMARK  status: ('A' for Active; 'I' for Inactive)
REMARK    1  A    between atoms: C_1  and  C_2
REMARK    2  A    between atoms: C_2  and  C_3
REMARK    3  A    between atoms: C_4  and  C_5
REMARK    4  A    between atoms: N_7  and  C_8
REMARK    5  A    between atoms: C_11  and  N_12
REMARK    6  A    between atoms: C_15  and  C_16
REMARK    7  A    between atoms: C_21  and  C_22
REMARK    8  A    between atoms: C_31  and  O_32
REMARK    9  A    between atoms: O_32  and  C_33
REMARK                            x       y       z     vdW  Elec       q    Type
REMARK                         _______ _______ _______ _____ _____    ______ ____
ROOT
ATOM      1  C   UNL     1       0.542   9.139  20.805  0.00  0.00    +0.000 C 
ATOM      2  C   UNL     1       1.193  10.325  21.529  0.00  0.00    +0.000 C 
ATOM      3  C   UNL     1       1.142  11.637  20.748  0.00  0.00    +0.000 C 
ATOM      4  C   UNL     1      -0.288  11.997  20.291  0.00  0.00    +0.000 C 
ATOM      5  C   UNL     1      -0.756  10.831  19.390  0.00  0.00    +0.000 C 
ATOM      6  C   UNL     1      -0.783   9.487  20.112  0.00  0.00    +0.000 C 
ENDROOT
BRANCH   4   7
ATOM      7  N   UNL     1      -1.175  12.369  21.443  0.00  0.00    +0.000 NA
ATOM      8  C   UNL     1      -0.462  13.297  22.348  0.00  0.00    +0.000 C 
ATOM      9  C   UNL     1      -1.297  14.132  23.325  0.00  0.00    +0.000 C 
ATOM     10  C   UNL     1      -2.578  14.737  22.736  0.00  0.00    +0.000 C 
ATOM     11  C   UNL     1      -3.336  13.608  22.037  0.00  0.00    +0.000 C 
ATOM     12  C   UNL     1      -2.501  12.845  21.008  0.00  0.00    +0.000 C 
BRANCH  10  13
ATOM     13  C   UNL     1      -2.402  16.021  21.914  0.00  0.00    +0.000 A 
ATOM     14  C   UNL     1      -2.040  15.954  20.554  0.00  0.00    +0.000 A 
ATOM     15  C   UNL     1      -1.855  17.098  19.769  0.00  0.00    +0.000 A 
ATOM     16  C   UNL     1      -2.014  18.353  20.328  0.00  0.00    +0.000 A 
ATOM     17  C   UNL     1      -2.387  18.460  21.663  0.00  0.00    +0.000 A 
ATOM     18  C   UNL     1      -2.593  17.315  22.466  0.00  0.00    +0.000 A 
ATOM     19  C   UNL     1      -3.097  17.567  23.865  0.00  0.00    +0.000 C 
ENDBRANCH  10  13
ENDBRANCH   4   7
BRANCH   1  22
ATOM     20  C   UNL     1       1.838   7.195  20.032  0.00  0.00    +0.000 C 
ATOM     21  O   UNL     1       1.446   6.525  20.981  0.00  0.00    +0.000 OA
ATOM     22  N   UNL     1       1.476   8.522  19.868  0.00  0.00    +0.000 N 
ATOM     23  H   UNL     1       1.555   8.917  18.941  0.00  0.00    +0.000 HD
BRANCH  20  25
ATOM     24  C   UNL     1       2.988   5.338  18.700  0.00  0.00    +0.000 A 
ATOM     25  C   UNL     1       2.682   6.669  18.979  0.00  0.00    +0.000 A 
ATOM     26  N   UNL     1       3.404   7.437  18.097  0.00  0.00    +0.000 N 
ATOM     27  C   UNL     1       4.129   6.658  17.230  0.00  0.00    +0.000 A 
ATOM     28  C   UNL     1       4.998   7.011  16.196  0.00  0.00    +0.000 A 
ATOM     29  C   UNL     1       5.611   5.980  15.474  0.00  0.00    +0.000 A 
ATOM     30  C   UNL     1       5.367   4.641  15.780  0.00  0.00    +0.000 A 
ATOM     31  C   UNL     1       4.508   4.312  16.839  0.00  0.00    +0.000 A 
ATOM     32  C   UNL     1       3.881   5.331  17.579  0.00  0.00    +0.000 A 
ATOM     33  H   UNL     1       3.434   8.446  18.114  0.00  0.00    +0.000 HD
BRANCH  24  35
ATOM     34  C   UNL     1       1.223   3.562  18.804  0.00  0.00    +0.000 C 
ATOM     35  C   UNL     1       2.484   4.133  19.437  0.00  0.00    +0.000 C 
ENDBRANCH  24  35
BRANCH  30  36
ATOM     36  O   UNL     1       5.898   3.556  15.130  0.00  0.00    +0.000 OA
ATOM     37  C   UNL     1       6.270   3.738  13.771  0.00  0.00    +0.000 C 
ENDBRANCH  30  36
ENDBRANCH  20  25
ENDBRANCH   1  22
TORSDOF 6
ENDMDL
MODEL 7
REMARK VINA RESULT:      -7.8      0.919      1.032
REMARK  Name = 
REMARK  9 active torsions:
REMARK  status: ('A' for Active; 'I' for Inactive)
REMARK    1  A    between atoms: C_1  and  C_2
REMARK    2  A    between atoms: C_2  and  C_3
REMARK    3  A    between atoms: C_4  and  C_5
REMARK    4  A    between atoms: N_7  and  C_8
REMARK    5  A    between atoms: C_11  and  N_12
REMARK    6  A    between atoms: C_15  and  C_16
REMARK    7  A    between atoms: C_21  and  C_22
REMARK    8  A    between atoms: C_31  and  O_32
REMARK    9  A    between atoms: O_32  and  C_33
REMARK                            x       y       z     vdW  Elec       q    Type
REMARK                         _______ _______ _______ _____ _____    ______ ____
ROOT
ATOM      1  C   UNL     1       0.457   9.584  19.991  0.00  0.00    +0.000 C 
ATOM      2  C   UNL     1       1.105  10.486  21.050  0.00  0.00    +0.000 C 
ATOM      3  C   UNL     1       1.521  11.861  20.529  0.00  0.00    +0.000 C 
ATOM      4  C   UNL     1       0.364  12.598  19.819  0.00  0.00    +0.000 C 
ATOM      5  C   UNL     1      -0.059  11.695  18.638  0.00  0.00    +0.000 C 
ATOM      6  C   UNL     1      -0.537  10.315  19.078  0.00  0.00    +0.000 C 
ENDROOT
BRANCH   4   7
ATOM      7  N   UNL     1      -0.712  13.019  20.776  0.00  0.00    +0.000 NA
ATOM      8  C   UNL     1      -1.523  14.102  20.176  0.00  0.00    +0.000 C 
ATOM      9  C   UNL     1      -2.909  14.378  20.771  0.00  0.00    +0.000 C 
ATOM     10  C   UNL     1      -3.733  13.128  21.106  0.00  0.00    +0.000 C 
ATOM     11  C   UNL     1      -2.844  12.204  21.938  0.00  0.00    +0.000 C 
ATOM     12  C   UNL     1      -1.501  11.881  21.281  0.00  0.00    +0.000 C 
BRANCH  10  13
ATOM     13  C   UNL     1      -4.460  12.463  19.929  0.00  0.00    +0.000 A 
ATOM     14  C   UNL     1      -3.751  12.100  18.767  0.00  0.00    +0.000 A 
ATOM     15  C   UNL     1      -4.372  11.505  17.664  0.00  0.00    +0.000 A 
ATOM     16  C   UNL     1      -5.735  11.264  17.685  0.00  0.00    +0.000 A 
ATOM     17  C   UNL     1      -6.466  11.593  18.821  0.00  0.00    +0.000 A 
ATOM     18  C   UNL     1      -5.851  12.181  19.949  0.00  0.00    +0.000 A 
ATOM     19  C   UNL     1      -6.734  12.391  21.153  0.00  0.00    +0.000 C 
ENDBRANCH  10  13
ENDBRANCH   4   7
BRANCH   1  22
ATOM     20  C   UNL     1       1.960   7.667  19.641  0.00  0.00    +0.000 C 
ATOM     21  O   UNL     1       1.611   7.167  20.704  0.00  0.00    +0.000 OA
ATOM     22  N   UNL     1       1.473   8.889  19.205  0.00  0.00    +0.000 N 
ATOM     23  H   UNL     1       1.538   9.093  18.218  0.00  0.00    +0.000 HD
BRANCH  20  25
ATOM     24  C   UNL     1       2.775   5.772  18.127  0.00  0.00    +0.000 A 
ATOM     25  C   UNL     1       2.881   7.027  18.723  0.00  0.00    +0.000 A 
ATOM     26  N   UNL     1       4.093   7.550  18.338  0.00  0.00    +0.000 N 
ATOM     27  C   UNL     1       4.755   6.706  17.481  0.00  0.00    +0.000 A 
ATOM     28  C   UNL     1       6.000   6.827  16.864  0.00  0.00    +0.000 A 
ATOM     29  C   UNL     1       6.424   5.782  16.033  0.00  0.00    +0.000 A 
ATOM     30  C   UNL     1       5.629   4.653  15.831  0.00  0.00    +0.000 A 
ATOM     31  C   UNL     1       4.391   4.545  16.482  0.00  0.00    +0.000 A 
ATOM     32  C   UNL     1       3.945   5.582  17.322  0.00  0.00    +0.000 A 
ATOM     33  H   UNL     1       4.470   8.423  18.678  0.00  0.00    +0.000 HD
BRANCH  24  35
ATOM     34  C   UNL     1       1.888   3.844  19.459  0.00  0.00    +0.000 C 
ATOM     35  C   UNL     1       1.649   4.796  18.296  0.00  0.00    +0.000 C 
ENDBRANCH  24  35
BRANCH  30  36
ATOM     36  O   UNL     1       5.937   3.584  15.028  0.00  0.00    +0.000 OA
ATOM     37  C   UNL     1       5.884   3.797  13.625  0.00  0.00    +0.000 C 
ENDBRANCH  30  36
ENDBRANCH  20  25
ENDBRANCH   1  22
TORSDOF 6
ENDMDL
MODEL 8
REMARK VINA RESULT:      -7.6      1.551      2.549
REMARK  Name = 
REMARK  9 active torsions:
REMARK  status: ('A' for Active; 'I' for Inactive)
REMARK    1  A    between atoms: C_1  and  C_2
REMARK    2  A    between atoms: C_2  and  C_3
REMARK    3  A    between atoms: C_4  and  C_5
REMARK    4  A    between atoms: N_7  and  C_8
REMARK    5  A    between atoms: C_11  and  N_12
REMARK    6  A    between atoms: C_15  and  C_16
REMARK    7  A    between atoms: C_21  and  C_22
REMARK    8  A    between atoms: C_31  and  O_32
REMARK    9  A    between atoms: O_32  and  C_33
REMARK                            x       y       z     vdW  Elec       q    Type
REMARK                         _______ _______ _______ _____ _____    ______ ____
ROOT
ATOM      1  C   UNL     1      -1.176  11.249  21.504  0.00  0.00    +0.000 C 
ATOM      2  C   UNL     1      -0.581  12.209  22.544  0.00  0.00    +0.000 C 
ATOM      3  C   UNL     1      -0.098  13.536  21.963  0.00  0.00    +0.000 C 
ATOM      4  C   UNL     1      -1.186  14.245  21.126  0.00  0.00    +0.000 C 
ATOM      5  C   UNL     1      -1.548  13.272  19.981  0.00  0.00    +0.000 C 
ATOM      6  C   UNL     1      -2.088  11.934  20.478  0.00  0.00    +0.000 C 
ENDROOT
BRANCH   4   7
ATOM      7  N   UNL     1      -2.315  14.751  21.975  0.00  0.00    +0.000 NA
ATOM      8  C   UNL     1      -3.322  15.424  21.124  0.00  0.00    +0.000 C 
ATOM      9  C   UNL     1      -4.730  15.624  21.696  0.00  0.00    +0.000 C 
ATOM     10  C   UNL     1      -5.298  14.421  22.460  0.00  0.00    +0.000 C 
ATOM     11  C   UNL     1      -4.243  13.984  23.475  0.00  0.00    +0.000 C 
ATOM     12  C   UNL     1      -2.868  13.712  22.862  0.00  0.00    +0.000 C 
BRANCH  10  13
ATOM     13  C   UNL     1      -5.894  13.296  21.601  0.00  0.00    +0.000 A 
ATOM     14  C   UNL     1      -5.382  13.033  20.315  0.00  0.00    +0.000 A 
ATOM     15  C   UNL     1      -5.902  12.029  19.492  0.00  0.00    +0.000 A 
ATOM     16  C   UNL     1      -6.967  11.260  19.926  0.00  0.00    +0.000 A 
ATOM     17  C   UNL     1      -7.488  11.478  21.197  0.00  0.00    +0.000 A 
ATOM     18  C   UNL     1      -6.965  12.478  22.047  0.00  0.00    +0.000 A 
ATOM     19  C   UNL     1      -7.550  12.541  23.436  0.00  0.00    +0.000 C 
ENDBRANCH  10  13
ENDBRANCH   4   7
BRANCH   1  22
ATOM     20  C   UNL     1       0.059   9.148  21.162  0.00  0.00    +0.000 C 
ATOM     21  O   UNL     1      -0.595   8.592  22.038  0.00  0.00    +0.000 OA
ATOM     22  N   UNL     1      -0.125  10.483  20.840  0.00  0.00    +0.000 N 
ATOM     23  H   UNL     1       0.193  10.793  19.933  0.00  0.00    +0.000 HD
BRANCH  20  25
ATOM     24  C   UNL     1       1.522   8.808  19.091  0.00  0.00    +0.000 A 
ATOM     25  C   UNL     1       1.057   8.469  20.360  0.00  0.00    +0.000 A 
ATOM     26  N   UNL     1       1.675   7.292  20.709  0.00  0.00    +0.000 N 
ATOM     27  C   UNL     1       2.554   6.879  19.740  0.00  0.00    +0.000 A 
ATOM     28  C   UNL     1       3.372   5.751  19.672  0.00  0.00    +0.000 A 
ATOM     29  C   UNL     1       4.171   5.588  18.533  0.00  0.00    +0.000 A 
ATOM     30  C   UNL     1       4.147   6.520  17.496  0.00  0.00    +0.000 A 
ATOM     31  C   UNL     1       3.298   7.633  17.577  0.00  0.00    +0.000 A 
ATOM     32  C   UNL     1       2.486   7.818  18.711  0.00  0.00    +0.000 A 
ATOM     33  H   UNL     1       1.475   6.773  21.552  0.00  0.00    +0.000 HD
BRANCH  24  35
ATOM     34  C   UNL     1      -0.280   9.776  17.643  0.00  0.00    +0.000 C 
ATOM     35  C   UNL     1       1.092   9.985  18.267  0.00  0.00    +0.000 C 
ENDBRANCH  24  35
BRANCH  30  36
ATOM     36  O   UNL     1       4.897   6.468  16.348  0.00  0.00    +0.000 OA
ATOM     37  C   UNL     1       5.296   5.181  15.898  0.00  0.00    +0.000 C 
ENDBRANCH  30  36
ENDBRANCH  20  25
ENDBRANCH   1  22
TORSDOF 6
ENDMDL
MODEL 9
REMARK VINA RESULT:      -7.6      2.856      5.597
REMARK  Name = 
REMARK  9 active torsions:
REMARK  status: ('A' for Active; 'I' for Inactive)
REMARK    1  A    between atoms: C_1  and  C_2
REMARK    2  A    between atoms: C_2  and  C_3
REMARK    3  A    between atoms: C_4  and  C_5
REMARK    4  A    between atoms: N_7  and  C_8
REMARK    5  A    between atoms: C_11  and  N_12
REMARK    6  A    between atoms: C_15  and  C_16
REMARK    7  A    between atoms: C_21  and  C_22
REMARK    8  A    between atoms: C_31  and  O_32
REMARK    9  A    between atoms: O_32  and  C_33
REMARK                            x       y       z     vdW  Elec       q    Type
REMARK                         _______ _______ _______ _____ _____    ______ ____
ROOT
ATOM      1  C   UNL     1       1.077  10.728  19.272  0.00  0.00    +0.000 C 
ATOM      2  C   UNL     1      -0.279  10.889  18.573  0.00  0.00    +0.000 C 
ATOM      3  C   UNL     1      -1.475  10.893  19.524  0.00  0.00    +0.000 C 
ATOM      4  C   UNL     1      -1.321  11.929  20.660  0.00  0.00    +0.000 C 
ATOM      5  C   UNL     1      -0.040  11.534  21.429  0.00  0.00    +0.000 C 
ATOM      6  C   UNL     1       1.213  11.553  20.559  0.00  0.00    +0.000 C 
ENDROOT
BRANCH   4   7
ATOM      7  N   UNL     1      -1.409  13.339  20.157  0.00  0.00    +0.000 NA
ATOM      8  C   UNL     1      -1.116  14.285  21.258  0.00  0.00    +0.000 C 
ATOM      9  C   UNL     1      -0.725  15.720  20.888  0.00  0.00    +0.000 C 
ATOM     10  C   UNL     1       0.255  15.846  19.714  0.00  0.00    +0.000 C 
ATOM     11  C   UNL     1      -0.303  15.010  18.562  0.00  0.00    +0.000 C 
ATOM     12  C   UNL     1      -0.607  13.559  18.940  0.00  0.00    +0.000 C 
BRANCH  10  13
ATOM     13  C   UNL     1       1.736  15.612  20.043  0.00  0.00    +0.000 A 
ATOM     14  C   UNL     1       2.106  14.892  21.196  0.00  0.00    +0.000 A 
ATOM     15  C   UNL     1       3.442  14.666  21.543  0.00  0.00    +0.000 A 
ATOM     16  C   UNL     1       4.457  15.169  20.750  0.00  0.00    +0.000 A 
ATOM     17  C   UNL     1       4.132  15.871  19.594  0.00  0.00    +0.000 A 
ATOM     18  C   UNL     1       2.788  16.095  19.221  0.00  0.00    +0.000 A 
ATOM     19  C   UNL     1       2.572  16.777  17.893  0.00  0.00    +0.000 C 
ENDBRANCH  10  13
ENDBRANCH   4   7
BRANCH   1  22
ATOM     20  C   UNL     1       2.112   8.600  18.596  0.00  0.00    +0.000 C 
ATOM     21  O   UNL     1       2.482   9.089  17.534  0.00  0.00    +0.000 OA
ATOM     22  N   UNL     1       1.374   9.320  19.521  0.00  0.00    +0.000 N 
ATOM     23  H   UNL     1       1.374   8.993  20.477  0.00  0.00    +0.000 HD
BRANCH  20  25
ATOM     24  C   UNL     1       3.243   6.317  18.358  0.00  0.00    +0.000 A 
ATOM     25  C   UNL     1       2.432   7.248  19.006  0.00  0.00    +0.000 A 
ATOM     26  N   UNL     1       1.904   6.618  20.107  0.00  0.00    +0.000 N 
ATOM     27  C   UNL     1       2.374   5.334  20.225  0.00  0.00    +0.000 A 
ATOM     28  C   UNL     1       2.098   4.345  21.171  0.00  0.00    +0.000 A 
ATOM     29  C   UNL     1       2.734   3.105  21.027  0.00  0.00    +0.000 A 
ATOM     30  C   UNL     1       3.611   2.862  19.970  0.00  0.00    +0.000 A 
ATOM     31  C   UNL     1       3.854   3.865  19.019  0.00  0.00    +0.000 A 
ATOM     32  C   UNL     1       3.227   5.118  19.143  0.00  0.00    +0.000 A 
ATOM     33  H   UNL     1       1.222   7.031  20.726  0.00  0.00    +0.000 HD
BRANCH  24  35
ATOM     34  C   UNL     1       5.485   6.699  17.306  0.00  0.00    +0.000 C 
ATOM     35  C   UNL     1       3.990   6.525  17.075  0.00  0.00    +0.000 C 
ENDBRANCH  24  35
BRANCH  30  36
ATOM     36  O   UNL     1       4.297   1.696  19.744  0.00  0.00    +0.000 OA
ATOM     37  C   UNL     1       4.049   1.032  18.513  0.00  0.00    +0.000 C 
ENDBRANCH  30  36
ENDBRANCH  20  25
ENDBRANCH   1  22
TORSDOF 6
ENDMDL
