MODEL 1
REMARK VINA RESULT:      -8.1      0.000      0.000
REMARK  Name = 
REMARK  7 active torsions:
REMARK  status: ('A' for Active; 'I' for Inactive)
REMARK    1  A    between atoms: C_1  and  C_2
REMARK    2  A    between atoms: C_2  and  C_3
REMARK    3  A    between atoms: N_6  and  C_7
REMARK    4  A    between atoms: C_7  and  C_8
REMARK    5  A    between atoms: C_8  and  O_9
REMARK    6  A    between atoms: C_8  and  C_10
REMARK    7  A    between atoms: C_10  and  N_11
REMARK                            x       y       z     vdW  Elec       q    Type
REMARK                         _______ _______ _______ _____ _____    ______ ____
ROOT
ATOM      1  N   UNL     1       3.734   6.303  18.117  0.00  0.00    +0.000 N 
ATOM      2  C   UNL     1       2.947   7.403  18.416  0.00  0.00    +0.000 A 
ATOM      3  C   UNL     1       2.838   8.658  17.796  0.00  0.00    +0.000 A 
ATOM      4  C   UNL     1       1.932   9.583  18.330  0.00  0.00    +0.000 A 
ATOM      5  C   UNL     1       1.172   9.259  19.443  0.00  0.00    +0.000 A 
ATOM      6  F   UNL     1       0.310  10.161  19.936  0.00  0.00    +0.000 F 
ATOM      7  C   UNL     1       1.279   8.016  20.058  0.00  0.00    +0.000 A 
ATOM      8  C   UNL     1       2.184   7.069  19.538  0.00  0.00    +0.000 A 
ATOM      9  C   UNL     1       2.524   5.739  19.916  0.00  0.00    +0.000 A 
ATOM     10  C   UNL     1       2.072   4.893  20.950  0.00  0.00    +0.000 A 
ATOM     11  C   UNL     1       2.603   3.612  21.058  0.00  0.00    +0.000 A 
ATOM     12  F   UNL     1       2.170   2.805  22.035  0.00  0.00    +0.000 F 
ATOM     13  C   UNL     1       3.571   3.153  20.178  0.00  0.00    +0.000 A 
ATOM     14  C   UNL     1       4.046   3.984  19.153  0.00  0.00    +0.000 A 
ATOM     15  C   UNL     1       3.502   5.278  19.025  0.00  0.00    +0.000 A 
ENDROOT
BRANCH   1  16
ATOM     16  C   UNL     1       4.704   6.259  17.019  0.00  0.00    +0.000 C 
BRANCH  16  17
ATOM     17  C   UNL     1       6.160   6.490  17.482  0.00  0.00    +0.000 C 
BRANCH  17  18
ATOM     18  O   UNL     1       6.763   7.596  16.791  0.00  0.00    +0.000 OA
ATOM     19  H   UNL     1       7.467   7.981  17.335  0.00  0.00    +0.000 HD
ENDBRANCH  17  18
BRANCH  17  20
ATOM     20  C   UNL     1       7.039   5.237  17.236  0.00  0.00    +0.000 C 
BRANCH  20  24
ATOM     21  C   UNL     1       6.065   4.139  13.793  0.00  0.00    +0.000 C 
ATOM     22  C   UNL     1       5.540   2.985  14.647  0.00  0.00    +0.000 C 
ATOM     23  C   UNL     1       5.503   3.590  16.040  0.00  0.00    +0.000 C 
ATOM     24  N   UNL     1       6.644   4.476  16.049  0.00  0.00    +0.000 N 
ATOM     25  C   UNL     1       7.020   4.839  14.759  0.00  0.00    +0.000 C 
ATOM     26  O   UNL     1       7.891   5.640  14.465  0.00  0.00    +0.000 OA
BRANCH  21  28
ATOM     27  C   UNL     1       5.887   2.721  11.689  0.00  0.00    +0.000 C 
ATOM     28  C   UNL     1       6.719   3.727  12.477  0.00  0.00    +0.000 C 
ENDBRANCH  21  28
ENDBRANCH  20  24
ENDBRANCH  17  20
ENDBRANCH  16  17
ENDBRANCH   1  16
TORSDOF 6
ENDMDL
MODEL 2
REMARK VINA RESULT:      -8.0      0.977      1.331
REMARK  Name = 
REMARK  7 active torsions:
REMARK  status: ('A' for Active; 'I' for Inactive)
REMARK    1  A    between atoms: C_1  and  C_2
REMARK    2  A    between atoms: C_2  and  C_3
REMARK    3  A    between atoms: N_6  and  C_7
REMARK    4  A    between atoms: C_7  and  C_8
REMARK    5  A    between atoms: C_8  and  O_9
REMARK    6  A    between atoms: C_8  and  C_10
REMARK    7  A    between atoms: C_10  and  N_11
REMARK                            x       y       z     vdW  Elec       q    Type
REMARK                         _______ _______ _______ _____ _____    ______ ____
ROOT
ATOM      1  N   UNL     1       3.758   5.815  18.027  0.00  0.00    +0.000 N 
ATOM      2  C   UNL     1       3.025   6.927  18.406  0.00  0.00    +0.000 A 
ATOM      3  C   UNL     1       2.891   8.194  17.815  0.00  0.00    +0.000 A 
ATOM      4  C   UNL     1       2.054   9.129  18.437  0.00  0.00    +0.000 A 
ATOM      5  C   UNL     1       1.384   8.804  19.606  0.00  0.00    +0.000 A 
ATOM      6  F   UNL     1       0.587   9.716  20.182  0.00  0.00    +0.000 F 
ATOM      7  C   UNL     1       1.515   7.550  20.193  0.00  0.00    +0.000 A 
ATOM      8  C   UNL     1       2.352   6.592  19.585  0.00  0.00    +0.000 A 
ATOM      9  C   UNL     1       2.693   5.249  19.914  0.00  0.00    +0.000 A 
ATOM     10  C   UNL     1       2.311   4.398  20.972  0.00  0.00    +0.000 A 
ATOM     11  C   UNL     1       2.821   3.104  21.017  0.00  0.00    +0.000 A 
ATOM     12  F   UNL     1       2.454   2.291  22.016  0.00  0.00    +0.000 F 
ATOM     13  C   UNL     1       3.700   2.639  20.051  0.00  0.00    +0.000 A 
ATOM     14  C   UNL     1       4.106   3.474  19.002  0.00  0.00    +0.000 A 
ATOM     15  C   UNL     1       3.581   4.781  18.938  0.00  0.00    +0.000 A 
ENDROOT
BRANCH   1  16
ATOM     16  C   UNL     1       4.631   5.768  16.850  0.00  0.00    +0.000 C 
BRANCH  16  17
ATOM     17  C   UNL     1       6.112   6.065  17.176  0.00  0.00    +0.000 C 
BRANCH  17  18
ATOM     18  O   UNL     1       6.514   7.351  16.678  0.00  0.00    +0.000 OA
ATOM     19  H   UNL     1       7.401   7.567  17.002  0.00  0.00    +0.000 HD
ENDBRANCH  17  18
BRANCH  17  20
ATOM     20  C   UNL     1       7.052   4.998  16.560  0.00  0.00    +0.000 C 
BRANCH  20  24
ATOM     21  C   UNL     1       6.562   3.673  13.094  0.00  0.00    +0.000 C 
ATOM     22  C   UNL     1       7.175   5.047  12.817  0.00  0.00    +0.000 C 
ATOM     23  C   UNL     1       7.795   5.411  14.155  0.00  0.00    +0.000 C 
ATOM     24  N   UNL     1       6.880   4.837  15.115  0.00  0.00    +0.000 N 
ATOM     25  C   UNL     1       6.130   3.807  14.553  0.00  0.00    +0.000 C 
ATOM     26  O   UNL     1       5.343   3.089  15.146  0.00  0.00    +0.000 OA
BRANCH  21  28
ATOM     27  C   UNL     1       5.695   1.951  11.435  0.00  0.00    +0.000 C 
ATOM     28  C   UNL     1       5.430   3.268  12.154  0.00  0.00    +0.000 C 
ENDBRANCH  21  28
ENDBRANCH  20  24
ENDBRANCH  17  20
ENDBRANCH  16  17
ENDBRANCH   1  16
TORSDOF 6
ENDMDL
MODEL 3
REMARK VINA RESULT:      -8.0      0.248      3.755
REMARK  Name = 
REMARK  7 active torsions:
REMARK  status: ('A' for Active; 'I' for Inactive)
REMARK    1  A    between atoms: C_1  and  C_2
REMARK    2  A    between atoms: C_2  and  C_3
REMARK    3  A    between atoms: N_6  and  C_7
REMARK    4  A    between atoms: C_7  and  C_8
REMARK    5  A    between atoms: C_8  and  O_9
REMARK    6  A    between atoms: C_8  and  C_10
REMARK    7  A    between atoms: C_10  and  N_11
REMARK                            x       y       z     vdW  Elec       q    Type
REMARK                         _______ _______ _______ _____ _____    ______ ____
ROOT
ATOM      1  N   UNL     1       3.777   6.082  18.169  0.00  0.00    +0.000 N 
ATOM      2  C   UNL     1       3.521   5.047  19.052  0.00  0.00    +0.000 A 
ATOM      3  C   UNL     1       4.061   3.754  19.144  0.00  0.00    +0.000 A 
ATOM      4  C   UNL     1       3.602   2.918  20.170  0.00  0.00    +0.000 A 
ATOM      5  C   UNL     1       2.639   3.362  21.062  0.00  0.00    +0.000 A 
ATOM      6  F   UNL     1       2.216   2.544  22.036  0.00  0.00    +0.000 F 
ATOM      7  C   UNL     1       2.103   4.643  20.972  0.00  0.00    +0.000 A 
ATOM      8  C   UNL     1       2.550   5.503  19.948  0.00  0.00    +0.000 A 
ATOM      9  C   UNL     1       2.220   6.841  19.589  0.00  0.00    +0.000 A 
ATOM     10  C   UNL     1       1.325   7.785  20.134  0.00  0.00    +0.000 A 
ATOM     11  C   UNL     1       1.230   9.044  19.551  0.00  0.00    +0.000 A 
ATOM     12  F   UNL     1       0.386   9.944  20.072  0.00  0.00    +0.000 F 
ATOM     13  C   UNL     1       1.989   9.387  18.442  0.00  0.00    +0.000 A 
ATOM     14  C   UNL     1       2.871   8.458  17.874  0.00  0.00    +0.000 A 
ATOM     15  C   UNL     1       2.987   7.185  18.469  0.00  0.00    +0.000 A 
ENDROOT
BRANCH   1  16
ATOM     16  C   UNL     1       4.721   5.995  17.050  0.00  0.00    +0.000 C 
BRANCH  16  17
ATOM     17  C   UNL     1       6.175   6.330  17.449  0.00  0.00    +0.000 C 
BRANCH  17  18
ATOM     18  O   UNL     1       6.624   7.547  16.833  0.00  0.00    +0.000 OA
ATOM     19  H   UNL     1       5.991   7.827  16.155  0.00  0.00    +0.000 HD
ENDBRANCH  17  18
BRANCH  17  20
ATOM     20  C   UNL     1       7.150   5.197  17.038  0.00  0.00    +0.000 C 
BRANCH  20  24
ATOM     21  C   UNL     1       6.156   4.232  13.562  0.00  0.00    +0.000 C 
ATOM     22  C   UNL     1       5.584   3.074  14.381  0.00  0.00    +0.000 C 
ATOM     23  C   UNL     1       5.562   3.641  15.790  0.00  0.00    +0.000 C 
ATOM     24  N   UNL     1       6.735   4.484  15.829  0.00  0.00    +0.000 N 
ATOM     25  C   UNL     1       7.130   4.869  14.551  0.00  0.00    +0.000 C 
ATOM     26  O   UNL     1       8.031   5.645  14.283  0.00  0.00    +0.000 OA
BRANCH  21  28
ATOM     27  C   UNL     1       6.235   2.537  11.666  0.00  0.00    +0.000 C 
ATOM     28  C   UNL     1       6.801   3.832  12.237  0.00  0.00    +0.000 C 
ENDBRANCH  21  28
ENDBRANCH  20  24
ENDBRANCH  17  20
ENDBRANCH  16  17
ENDBRANCH   1  16
TORSDOF 6
ENDMDL
MODEL 4
REMARK VINA RESULT:      -7.9      3.368      7.778
REMARK  Name = 
REMARK  7 active torsions:
REMARK  status: ('A' for Active; 'I' for Inactive)
REMARK    1  A    between atoms: C_1  and  C_2
REMARK    2  A    between atoms: C_2  and  C_3
REMARK    3  A    between atoms: N_6  and  C_7
REMARK    4  A    between atoms: C_7  and  C_8
REMARK    5  A    between atoms: C_8  and  O_9
REMARK    6  A    between atoms: C_8  and  C_10
REMARK    7  A    between atoms: C_10  and  N_11
REMARK                            x       y       z     vdW  Elec       q    Type
REMARK                         _______ _______ _______ _____ _____    ______ ____
ROOT
ATOM      1  N   UNL     1       3.302   6.553  18.331  0.00  0.00    +0.000 N 
ATOM      2  C   UNL     1       2.710   5.551  19.081  0.00  0.00    +0.000 A 
ATOM      3  C   UNL     1       1.859   5.611  20.197  0.00  0.00    +0.000 A 
ATOM      4  C   UNL     1       1.404   4.406  20.747  0.00  0.00    +0.000 A 
ATOM      5  C   UNL     1       1.792   3.193  20.199  0.00  0.00    +0.000 A 
ATOM      6  F   UNL     1       1.342   2.052  20.743  0.00  0.00    +0.000 F 
ATOM      7  C   UNL     1       2.634   3.132  19.094  0.00  0.00    +0.000 A 
ATOM      8  C   UNL     1       3.105   4.332  18.523  0.00  0.00    +0.000 A 
ATOM      9  C   UNL     1       3.952   4.615  17.414  0.00  0.00    +0.000 A 
ATOM     10  C   UNL     1       4.624   3.789  16.489  0.00  0.00    +0.000 A 
ATOM     11  C   UNL     1       5.389   4.378  15.488  0.00  0.00    +0.000 A 
ATOM     12  F   UNL     1       6.022   3.596  14.603  0.00  0.00    +0.000 F 
ATOM     13  C   UNL     1       5.513   5.755  15.386  0.00  0.00    +0.000 A 
ATOM     14  C   UNL     1       4.868   6.593  16.306  0.00  0.00    +0.000 A 
ATOM     15  C   UNL     1       4.075   6.006  17.314  0.00  0.00    +0.000 A 
ENDROOT
BRANCH   1  16
ATOM     16  C   UNL     1       3.161   7.985  18.611  0.00  0.00    +0.000 C 
BRANCH  16  17
ATOM     17  C   UNL     1       1.819   8.573  18.122  0.00  0.00    +0.000 C 
BRANCH  17  18
ATOM     18  O   UNL     1       2.019   9.569  17.107  0.00  0.00    +0.000 OA
ATOM     19  H   UNL     1       1.959   9.162  16.229  0.00  0.00    +0.000 HD
ENDBRANCH  17  18
BRANCH  17  20
ATOM     20  C   UNL     1       1.031   9.228  19.285  0.00  0.00    +0.000 C 
BRANCH  20  24
ATOM     21  C   UNL     1      -0.659  12.560  19.054  0.00  0.00    +0.000 C 
ATOM     22  C   UNL     1      -1.480  11.726  18.069  0.00  0.00    +0.000 C 
ATOM     23  C   UNL     1      -1.132  10.302  18.466  0.00  0.00    +0.000 C 
ATOM     24  N   UNL     1       0.251  10.397  18.872  0.00  0.00    +0.000 N 
ATOM     25  C   UNL     1       0.589  11.697  19.235  0.00  0.00    +0.000 C 
ATOM     26  O   UNL     1       1.658  12.057  19.698  0.00  0.00    +0.000 OA
BRANCH  21  28
ATOM     27  C   UNL     1      -0.472  15.005  19.730  0.00  0.00    +0.000 C 
ATOM     28  C   UNL     1      -0.358  13.986  18.602  0.00  0.00    +0.000 C 
ENDBRANCH  21  28
ENDBRANCH  20  24
ENDBRANCH  17  20
ENDBRANCH  16  17
ENDBRANCH   1  16
TORSDOF 6
ENDMDL
MODEL 5
REMARK VINA RESULT:      -7.9      2.102      5.128
REMARK  Name = 
REMARK  7 active torsions:
REMARK  status: ('A' for Active; 'I' for Inactive)
REMARK    1  A    between atoms: C_1  and  C_2
REMARK    2  A    between atoms: C_2  and  C_3
REMARK    3  A    between atoms: N_6  and  C_7
REMARK    4  A    between atoms: C_7  and  C_8
REMARK    5  A    between atoms: C_8  and  O_9
REMARK    6  A    between atoms: C_8  and  C_10
REMARK    7  A    between atoms: C_10  and  N_11
REMARK                            x       y       z     vdW  Elec       q    Type
REMARK                         _______ _______ _______ _____ _____    ______ ____
ROOT
ATOM      1  N   UNL     1       3.062   4.802  17.910  0.00  0.00    +0.000 N 
ATOM      2  C   UNL     1       2.645   3.973  18.938  0.00  0.00    +0.000 A 
ATOM      3  C   UNL     1       2.746   2.582  19.104  0.00  0.00    +0.000 A 
ATOM      4  C   UNL     1       2.229   2.017  20.277  0.00  0.00    +0.000 A 
ATOM      5  C   UNL     1       1.633   2.818  21.239  0.00  0.00    +0.000 A 
ATOM      6  F   UNL     1       1.146   2.254  22.354  0.00  0.00    +0.000 F 
ATOM      7  C   UNL     1       1.532   4.196  21.076  0.00  0.00    +0.000 A 
ATOM      8  C   UNL     1       2.045   4.787  19.903  0.00  0.00    +0.000 A 
ATOM      9  C   UNL     1       2.108   6.132  19.440  0.00  0.00    +0.000 A 
ATOM     10  C   UNL     1       1.676   7.355  19.992  0.00  0.00    +0.000 A 
ATOM     11  C   UNL     1       1.892   8.532  19.283  0.00  0.00    +0.000 A 
ATOM     12  F   UNL     1       1.489   9.696  19.810  0.00  0.00    +0.000 F 
ATOM     13  C   UNL     1       2.513   8.527  18.044  0.00  0.00    +0.000 A 
ATOM     14  C   UNL     1       2.935   7.320  17.469  0.00  0.00    +0.000 A 
ATOM     15  C   UNL     1       2.736   6.124  18.188  0.00  0.00    +0.000 A 
ENDROOT
BRANCH   1  16
ATOM     16  C   UNL     1       3.715   4.330  16.685  0.00  0.00    +0.000 C 
BRANCH  16  17
ATOM     17  C   UNL     1       5.255   4.442  16.732  0.00  0.00    +0.000 C 
BRANCH  17  18
ATOM     18  O   UNL     1       5.886   3.293  16.146  0.00  0.00    +0.000 OA
ATOM     19  H   UNL     1       6.030   3.443  15.199  0.00  0.00    +0.000 HD
ENDBRANCH  17  18
BRANCH  17  20
ATOM     20  C   UNL     1       5.769   4.579  18.188  0.00  0.00    +0.000 C 
BRANCH  20  24
ATOM     21  C   UNL     1       8.028   7.530  17.748  0.00  0.00    +0.000 C 
ATOM     22  C   UNL     1       8.391   7.070  19.160  0.00  0.00    +0.000 C 
ATOM     23  C   UNL     1       7.852   5.650  19.197  0.00  0.00    +0.000 C 
ATOM     24  N   UNL     1       6.659   5.724  18.385  0.00  0.00    +0.000 N 
ATOM     25  C   UNL     1       6.705   6.805  17.508  0.00  0.00    +0.000 C 
ATOM     26  O   UNL     1       5.881   7.066  16.649  0.00  0.00    +0.000 OA
BRANCH  21  28
ATOM     27  C   UNL     1       8.783   9.816  18.569  0.00  0.00    +0.000 C 
ATOM     28  C   UNL     1       7.941   9.042  17.562  0.00  0.00    +0.000 C 
ENDBRANCH  21  28
ENDBRANCH  20  24
ENDBRANCH  17  20
ENDBRANCH  16  17
ENDBRANCH   1  16
TORSDOF 6
ENDMDL
MODEL 6
REMARK VINA RESULT:      -7.9      3.318      7.496
REMARK  Name = 
REMARK  7 active torsions:
REMARK  status: ('A' for Active; 'I' for Inactive)
REMARK    1  A    between atoms: C_1  and  C_2
REMARK    2  A    between atoms: C_2  and  C_3
REMARK    3  A    between atoms: N_6  and  C_7
REMARK    4  A    between atoms: C_7  and  C_8
REMARK    5  A    between atoms: C_8  and  O_9
REMARK    6  A    between atoms: C_8  and  C_10
REMARK    7  A    between atoms: C_10  and  N_11
REMARK                            x       y       z     vdW  Elec       q    Type
REMARK                         _______ _______ _______ _____ _____    ______ ____
ROOT
ATOM      1  N   UNL     1       3.358   6.571  18.311  0.00  0.00    +0.000 N 
ATOM      2  C   UNL     1       4.098   6.002  17.288  0.00  0.00    +0.000 A 
ATOM      3  C   UNL     1       4.892   6.584  16.287  0.00  0.00    +0.000 A 
ATOM      4  C   UNL     1       5.538   5.736  15.379  0.00  0.00    +0.000 A 
ATOM      5  C   UNL     1       5.389   4.361  15.473  0.00  0.00    +0.000 A 
ATOM      6  F   UNL     1       6.018   3.569  14.593  0.00  0.00    +0.000 F 
ATOM      7  C   UNL     1       4.602   3.783  16.465  0.00  0.00    +0.000 A 
ATOM      8  C   UNL     1       3.941   4.617  17.389  0.00  0.00    +0.000 A 
ATOM      9  C   UNL     1       3.089   4.355  18.499  0.00  0.00    +0.000 A 
ATOM     10  C   UNL     1       2.601   3.161  19.069  0.00  0.00    +0.000 A 
ATOM     11  C   UNL     1       1.772   3.232  20.184  0.00  0.00    +0.000 A 
ATOM     12  F   UNL     1       1.313   2.099  20.732  0.00  0.00    +0.000 F 
ATOM     13  C   UNL     1       1.408   4.449  20.739  0.00  0.00    +0.000 A 
ATOM     14  C   UNL     1       1.868   5.648  20.177  0.00  0.00    +0.000 A 
ATOM     15  C   UNL     1       2.723   5.586  19.058  0.00  0.00    +0.000 A 
ENDROOT
BRANCH   1  16
ATOM     16  C   UNL     1       3.234   8.014  18.534  0.00  0.00    +0.000 C 
BRANCH  16  17
ATOM     17  C   UNL     1       1.864   8.583  18.104  0.00  0.00    +0.000 C 
BRANCH  17  18
ATOM     18  O   UNL     1       2.008   9.614  17.114  0.00  0.00    +0.000 OA
ATOM     19  H   UNL     1       1.401   9.451  16.376  0.00  0.00    +0.000 HD
ENDBRANCH  17  18
BRANCH  17  20
ATOM     20  C   UNL     1       1.096   9.182  19.310  0.00  0.00    +0.000 C 
BRANCH  20  24
ATOM     21  C   UNL     1      -0.531  12.546  19.089  0.00  0.00    +0.000 C 
ATOM     22  C   UNL     1      -1.577  11.650  18.423  0.00  0.00    +0.000 C 
ATOM     23  C   UNL     1      -1.176  10.263  18.893  0.00  0.00    +0.000 C 
ATOM     24  N   UNL     1       0.265  10.335  18.955  0.00  0.00    +0.000 N 
ATOM     25  C   UNL     1       0.706  11.649  19.077  0.00  0.00    +0.000 C 
ATOM     26  O   UNL     1       1.861  12.006  19.236  0.00  0.00    +0.000 OA
BRANCH  21  28
ATOM     27  C   UNL     1      -0.108  15.032  19.416  0.00  0.00    +0.000 C 
ATOM     28  C   UNL     1      -0.315  13.899  18.418  0.00  0.00    +0.000 C 
ENDBRANCH  21  28
ENDBRANCH  20  24
ENDBRANCH  17  20
ENDBRANCH  16  17
ENDBRANCH   1  16
TORSDOF 6
ENDMDL
MODEL 7
REMARK VINA RESULT:      -7.8      2.028      4.352
REMARK  Name = 
REMARK  7 active torsions:
REMARK  status: ('A' for Active; 'I' for Inactive)
REMARK    1  A    between atoms: C_1  and  C_2
REMARK    2  A    between atoms: C_2  and  C_3
REMARK    3  A    between atoms: N_6  and  C_7
REMARK    4  A    between atoms: C_7  and  C_8
REMARK    5  A    between atoms: C_8  and  O_9
REMARK    6  A    between atoms: C_8  and  C_10
REMARK    7  A    between atoms: C_10  and  N_11
REMARK                            x       y       z     vdW  Elec       q    Type
REMARK                         _______ _______ _______ _____ _____    ______ ____
ROOT
ATOM      1  N   UNL     1       4.660   5.093  18.316  0.00  0.00    +0.000 N 
ATOM      2  C   UNL     1       3.787   4.023  18.424  0.00  0.00    +0.000 A 
ATOM      3  C   UNL     1       4.020   2.657  18.655  0.00  0.00    +0.000 A 
ATOM      4  C   UNL     1       2.914   1.800  18.723  0.00  0.00    +0.000 A 
ATOM      5  C   UNL     1       1.630   2.295  18.561  0.00  0.00    +0.000 A 
ATOM      6  F   UNL     1       0.587   1.455  18.631  0.00  0.00    +0.000 F 
ATOM      7  C   UNL     1       1.397   3.647  18.332  0.00  0.00    +0.000 A 
ATOM      8  C   UNL     1       2.495   4.530  18.259  0.00  0.00    +0.000 A 
ATOM      9  C   UNL     1       2.601   5.934  18.049  0.00  0.00    +0.000 A 
ATOM     10  C   UNL     1       1.641   6.945  17.837  0.00  0.00    +0.000 A 
ATOM     11  C   UNL     1       2.066   8.258  17.669  0.00  0.00    +0.000 A 
ATOM     12  F   UNL     1       1.156   9.221  17.475  0.00  0.00    +0.000 F 
ATOM     13  C   UNL     1       3.412   8.592  17.695  0.00  0.00    +0.000 A 
ATOM     14  C   UNL     1       4.383   7.600  17.886  0.00  0.00    +0.000 A 
ATOM     15  C   UNL     1       3.961   6.269  18.076  0.00  0.00    +0.000 A 
ENDROOT
BRANCH   1  16
ATOM     16  C   UNL     1       6.119   4.976  18.400  0.00  0.00    +0.000 C 
BRANCH  16  17
ATOM     17  C   UNL     1       6.771   4.512  17.079  0.00  0.00    +0.000 C 
BRANCH  17  18
ATOM     18  O   UNL     1       8.131   4.095  17.280  0.00  0.00    +0.000 OA
ATOM     19  H   UNL     1       8.732   4.837  17.115  0.00  0.00    +0.000 HD
ENDBRANCH  17  18
BRANCH  17  20
ATOM     20  C   UNL     1       6.771   5.644  16.019  0.00  0.00    +0.000 C 
BRANCH  20  24
ATOM     21  C   UNL     1       6.306   3.593  12.924  0.00  0.00    +0.000 C 
ATOM     22  C   UNL     1       7.263   4.681  12.435  0.00  0.00    +0.000 C 
ATOM     23  C   UNL     1       7.821   5.242  13.731  0.00  0.00    +0.000 C 
ATOM     24  N   UNL     1       6.704   5.150  14.643  0.00  0.00    +0.000 N 
ATOM     25  C   UNL     1       5.782   4.194  14.226  0.00  0.00    +0.000 C 
ATOM     26  O   UNL     1       4.788   3.843  14.839  0.00  0.00    +0.000 OA
BRANCH  21  28
ATOM     27  C   UNL     1       5.432   1.845  11.295  0.00  0.00    +0.000 C 
ATOM     28  C   UNL     1       5.205   3.208  11.939  0.00  0.00    +0.000 C 
ENDBRANCH  21  28
ENDBRANCH  20  24
ENDBRANCH  17  20
ENDBRANCH  16  17
ENDBRANCH   1  16
TORSDOF 6
ENDMDL
MODEL 8
REMARK VINA RESULT:      -7.8      2.114      3.590
REMARK  Name = 
REMARK  7 active torsions:
REMARK  status: ('A' for Active; 'I' for Inactive)
REMARK    1  A    between atoms: C_1  and  C_2
REMARK    2  A    between atoms: C_2  and  C_3
REMARK    3  A    between atoms: N_6  and  C_7
REMARK    4  A    between atoms: C_7  and  C_8
REMARK    5  A    between atoms: C_8  and  O_9
REMARK    6  A    between atoms: C_8  and  C_10
REMARK    7  A    between atoms: C_10  and  N_11
REMARK                            x       y       z     vdW  Elec       q    Type
REMARK                         _______ _______ _______ _____ _____    ______ ____
ROOT
ATOM      1  N   UNL     1       3.022   4.781  17.897  0.00  0.00    +0.000 N 
ATOM      2  C   UNL     1       2.724   6.101  18.190  0.00  0.00    +0.000 A 
ATOM      3  C   UNL     1       2.930   7.282  17.457  0.00  0.00    +0.000 A 
ATOM      4  C   UNL     1       2.507   8.492  18.021  0.00  0.00    +0.000 A 
ATOM      5  C   UNL     1       1.907   8.514  19.270  0.00  0.00    +0.000 A 
ATOM      6  F   UNL     1       1.510   9.685  19.788  0.00  0.00    +0.000 F 
ATOM      7  C   UNL     1       1.702   7.346  19.997  0.00  0.00    +0.000 A 
ATOM      8  C   UNL     1       2.120   6.115  19.450  0.00  0.00    +0.000 A 
ATOM      9  C   UNL     1       2.056   4.772  19.918  0.00  0.00    +0.000 A 
ATOM     10  C   UNL     1       1.549   4.194  21.100  0.00  0.00    +0.000 A 
ATOM     11  C   UNL     1       1.627   2.815  21.267  0.00  0.00    +0.000 A 
ATOM     12  F   UNL     1       1.140   2.263  22.386  0.00  0.00    +0.000 F 
ATOM     13  C   UNL     1       2.198   2.000  20.301  0.00  0.00    +0.000 A 
ATOM     14  C   UNL     1       2.724   2.557  19.127  0.00  0.00    +0.000 A 
ATOM     15  C   UNL     1       2.633   3.951  18.941  0.00  0.00    +0.000 A 
ENDROOT
BRANCH   1  16
ATOM     16  C   UNL     1       3.695   4.342  16.671  0.00  0.00    +0.000 C 
BRANCH  16  17
ATOM     17  C   UNL     1       5.233   4.466  16.740  0.00  0.00    +0.000 C 
BRANCH  17  18
ATOM     18  O   UNL     1       5.881   3.318  16.171  0.00  0.00    +0.000 OA
ATOM     19  H   UNL     1       6.021   3.455  15.222  0.00  0.00    +0.000 HD
ENDBRANCH  17  18
BRANCH  17  20
ATOM     20  C   UNL     1       5.723   4.616  18.203  0.00  0.00    +0.000 C 
BRANCH  20  24
ATOM     21  C   UNL     1       8.032   7.527  17.758  0.00  0.00    +0.000 C 
ATOM     22  C   UNL     1       8.392   7.058  19.168  0.00  0.00    +0.000 C 
ATOM     23  C   UNL     1       7.829   5.649  19.205  0.00  0.00    +0.000 C 
ATOM     24  N   UNL     1       6.634   5.745  18.398  0.00  0.00    +0.000 N 
ATOM     25  C   UNL     1       6.696   6.826  17.523  0.00  0.00    +0.000 C 
ATOM     26  O   UNL     1       5.872   7.103  16.667  0.00  0.00    +0.000 OA
BRANCH  21  28
ATOM     27  C   UNL     1       8.804   9.800  18.601  0.00  0.00    +0.000 C 
ATOM     28  C   UNL     1       7.971   9.041  17.574  0.00  0.00    +0.000 C 
ENDBRANCH  21  28
ENDBRANCH  20  24
ENDBRANCH  17  20
ENDBRANCH  16  17
ENDBRANCH   1  16
TORSDOF 6
ENDMDL
MODEL 9
REMARK VINA RESULT:      -7.8      1.000      3.962
REMARK  Name = 
REMARK  7 active torsions:
REMARK  status: ('A' for Active; 'I' for Inactive)
REMARK    1  A    between atoms: C_1  and  C_2
REMARK    2  A    between atoms: C_2  and  C_3
REMARK    3  A    between atoms: N_6  and  C_7
REMARK    4  A    between atoms: C_7  and  C_8
REMARK    5  A    between atoms: C_8  and  O_9
REMARK    6  A    between atoms: C_8  and  C_10
REMARK    7  A    between atoms: C_10  and  N_11
REMARK                            x       y       z     vdW  Elec       q    Type
REMARK                         _______ _______ _______ _____ _____    ______ ____
ROOT
ATOM      1  N   UNL     1       3.565   5.908  18.254  0.00  0.00    +0.000 N 
ATOM      2  C   UNL     1       3.375   4.846  19.122  0.00  0.00    +0.000 A 
ATOM      3  C   UNL     1       3.901   3.544  19.120  0.00  0.00    +0.000 A 
ATOM      4  C   UNL     1       3.525   2.678  20.156  0.00  0.00    +0.000 A 
ATOM      5  C   UNL     1       2.654   3.104  21.147  0.00  0.00    +0.000 A 
ATOM      6  F   UNL     1       2.309   2.257  22.127  0.00  0.00    +0.000 F 
ATOM      7  C   UNL     1       2.132   4.393  21.149  0.00  0.00    +0.000 A 
ATOM      8  C   UNL     1       2.496   5.283  20.117  0.00  0.00    +0.000 A 
ATOM      9  C   UNL     1       2.156   6.636  19.835  0.00  0.00    +0.000 A 
ATOM     10  C   UNL     1       1.330   7.572  20.492  0.00  0.00    +0.000 A 
ATOM     11  C   UNL     1       1.202   8.852  19.962  0.00  0.00    +0.000 A 
ATOM     12  F   UNL     1       0.423   9.744  20.588  0.00  0.00    +0.000 F 
ATOM     13  C   UNL     1       1.861   9.223  18.800  0.00  0.00    +0.000 A 
ATOM     14  C   UNL     1       2.673   8.303  18.122  0.00  0.00    +0.000 A 
ATOM     15  C   UNL     1       2.823   7.009  18.662  0.00  0.00    +0.000 A 
ENDROOT
BRANCH   1  16
ATOM     16  C   UNL     1       4.401   5.848  17.050  0.00  0.00    +0.000 C 
BRANCH  16  17
ATOM     17  C   UNL     1       5.897   6.110  17.332  0.00  0.00    +0.000 C 
BRANCH  17  18
ATOM     18  O   UNL     1       6.342   7.332  16.722  0.00  0.00    +0.000 OA
ATOM     19  H   UNL     1       6.099   8.087  17.279  0.00  0.00    +0.000 HD
ENDBRANCH  17  18
BRANCH  17  20
ATOM     20  C   UNL     1       6.784   4.958  16.797  0.00  0.00    +0.000 C 
BRANCH  20  24
ATOM     21  C   UNL     1       6.467   3.686  13.291  0.00  0.00    +0.000 C 
ATOM     22  C   UNL     1       7.269   4.972  13.084  0.00  0.00    +0.000 C 
ATOM     23  C   UNL     1       7.798   5.264  14.477  0.00  0.00    +0.000 C 
ATOM     24  N   UNL     1       6.732   4.812  15.341  0.00  0.00    +0.000 N 
ATOM     25  C   UNL     1       5.918   3.880  14.703  0.00  0.00    +0.000 C 
ATOM     26  O   UNL     1       4.996   3.267  15.213  0.00  0.00    +0.000 OA
BRANCH  21  28
ATOM     27  C   UNL     1       5.614   2.124  11.474  0.00  0.00    +0.000 C 
ATOM     28  C   UNL     1       5.389   3.420  12.245  0.00  0.00    +0.000 C 
ENDBRANCH  21  28
ENDBRANCH  20  24
ENDBRANCH  17  20
ENDBRANCH  16  17
ENDBRANCH   1  16
TORSDOF 6
ENDMDL
