MODEL 1
REMARK VINA RESULT:      -7.5      0.000      0.000
REMARK  Name = 
REMARK  2 active torsions:
REMARK  status: ('A' for Active; 'I' for Inactive)
REMARK    1  A    between atoms: C_8  and  C_9
REMARK    2  A    between atoms: C_11  and  C_12
REMARK                            x       y       z     vdW  Elec       q    Type
REMARK                         _______ _______ _______ _____ _____    ______ ____
ROOT
ATOM      1  C   UNL     1       2.859   5.289  18.116  0.00  0.00    +0.000 A 
ATOM      2  N   UNL     1       2.035   6.097  18.801  0.00  0.00    +0.000 NA
ATOM      3  C   UNL     1       2.524   7.320  18.514  0.00  0.00    +0.000 A 
ATOM      4  N   UNL     1       3.597   7.247  17.703  0.00  0.00    +0.000 NA
ATOM      5  O   UNL     1       3.777   5.981  17.481  0.00  0.00    +0.000 OA
ENDROOT
BRANCH   1  13
ATOM      6  N   UNL     1       5.093   2.116  20.273  0.00  0.00    +0.000 NA
ATOM      7  C   UNL     1       4.683   2.971  19.407  0.00  0.00    +0.000 C 
ATOM      8  N   UNL     1       5.642   3.724  18.669  0.00  0.00    +0.000 N 
ATOM      9  N   UNL     1       3.273   3.141  19.186  0.00  0.00    +0.000 N 
ATOM     10  C   UNL     1       2.259   2.366  19.865  0.00  0.00    +0.000 C 
ATOM     11  C   UNL     1       1.295   2.031  18.740  0.00  0.00    +0.000 C 
ATOM     12  C   UNL     1       1.237   3.371  18.016  0.00  0.00    +0.000 C 
ATOM     13  C   UNL     1       2.713   3.801  18.020  0.00  0.00    +0.000 C 
ATOM     14  H   UNL     1       6.094   1.959  20.451  0.00  0.00    +0.000 HD
ATOM     15  H   UNL     1       6.648   3.600  18.849  0.00  0.00    +0.000 HD
ATOM     16  H   UNL     1       5.365   4.423  17.970  0.00  0.00    +0.000 HD
ENDBRANCH   1  13
BRANCH   3  17
ATOM     17  C   UNL     1       1.913   8.582  18.972  0.00  0.00    +0.000 A 
ATOM     18  C   UNL     1       1.368   8.681  20.264  0.00  0.00    +0.000 A 
ATOM     19  C   UNL     1       0.763   9.868  20.688  0.00  0.00    +0.000 A 
ATOM     20  C   UNL     1       0.694  10.965  19.824  0.00  0.00    +0.000 A 
ATOM     21  I   UNL     1      -0.241  12.747  20.458  0.00  0.00    +0.000 I 
ATOM     22  C   UNL     1       1.236  10.877  18.539  0.00  0.00    +0.000 A 
ATOM     23  C   UNL     1       1.846   9.695  18.115  0.00  0.00    +0.000 A 
ENDBRANCH   3  17
TORSDOF 2
ENDMDL
MODEL 2
REMARK VINA RESULT:      -7.5      0.057      1.085
REMARK  Name = 
REMARK  2 active torsions:
REMARK  status: ('A' for Active; 'I' for Inactive)
REMARK    1  A    between atoms: C_8  and  C_9
REMARK    2  A    between atoms: C_11  and  C_12
REMARK                            x       y       z     vdW  Elec       q    Type
REMARK                         _______ _______ _______ _____ _____    ______ ____
ROOT
ATOM      1  C   UNL     1       2.873   5.302  18.135  0.00  0.00    +0.000 A 
ATOM      2  N   UNL     1       2.024   6.102  18.800  0.00  0.00    +0.000 NA
ATOM      3  C   UNL     1       2.519   7.329  18.541  0.00  0.00    +0.000 A 
ATOM      4  N   UNL     1       3.617   7.265  17.764  0.00  0.00    +0.000 NA
ATOM      5  O   UNL     1       3.809   6.002  17.535  0.00  0.00    +0.000 OA
ENDROOT
BRANCH   1  13
ATOM      6  N   UNL     1       5.095   2.114  20.280  0.00  0.00    +0.000 NA
ATOM      7  C   UNL     1       4.691   2.977  19.420  0.00  0.00    +0.000 C 
ATOM      8  N   UNL     1       5.655   3.743  18.702  0.00  0.00    +0.000 N 
ATOM      9  N   UNL     1       3.283   3.144  19.184  0.00  0.00    +0.000 N 
ATOM     10  C   UNL     1       2.264   2.357  19.843  0.00  0.00    +0.000 C 
ATOM     11  C   UNL     1       1.315   2.032  18.704  0.00  0.00    +0.000 C 
ATOM     12  C   UNL     1       1.260   3.379  17.995  0.00  0.00    +0.000 C 
ATOM     13  C   UNL     1       2.734   3.815  18.020  0.00  0.00    +0.000 C 
ATOM     14  H   UNL     1       6.095   1.959  20.468  0.00  0.00    +0.000 HD
ATOM     15  H   UNL     1       6.660   3.620  18.891  0.00  0.00    +0.000 HD
ATOM     16  H   UNL     1       5.383   4.448  18.007  0.00  0.00    +0.000 HD
ENDBRANCH   1  13
BRANCH   3  17
ATOM     17  C   UNL     1       1.890   8.585  18.990  0.00  0.00    +0.000 A 
ATOM     18  C   UNL     1       1.843   9.702  18.139  0.00  0.00    +0.000 A 
ATOM     19  C   UNL     1       1.274  10.902  18.574  0.00  0.00    +0.000 A 
ATOM     20  C   UNL     1       0.750  10.998  19.868  0.00  0.00    +0.000 A 
ATOM     21  I   UNL     1      -0.087  12.817  20.531  0.00  0.00    +0.000 I 
ATOM     22  C   UNL     1       0.789   9.891  20.720  0.00  0.00    +0.000 A 
ATOM     23  C   UNL     1       1.352   8.690  20.286  0.00  0.00    +0.000 A 
ENDBRANCH   3  17
TORSDOF 2
ENDMDL
MODEL 3
REMARK VINA RESULT:      -7.5      2.624      3.573
REMARK  Name = 
REMARK  2 active torsions:
REMARK  status: ('A' for Active; 'I' for Inactive)
REMARK    1  A    between atoms: C_8  and  C_9
REMARK    2  A    between atoms: C_11  and  C_12
REMARK                            x       y       z     vdW  Elec       q    Type
REMARK                         _______ _______ _______ _____ _____    ______ ____
ROOT
ATOM      1  C   UNL     1       4.496   6.093  16.991  0.00  0.00    +0.000 A 
ATOM      2  N   UNL     1       4.001   7.278  17.383  0.00  0.00    +0.000 NA
ATOM      3  C   UNL     1       3.002   6.916  18.211  0.00  0.00    +0.000 A 
ATOM      4  N   UNL     1       2.898   5.576  18.305  0.00  0.00    +0.000 NA
ATOM      5  O   UNL     1       3.831   5.101  17.538  0.00  0.00    +0.000 OA
ENDROOT
BRANCH   1  13
ATOM      6  N   UNL     1       8.345   4.072  17.890  0.00  0.00    +0.000 NA
ATOM      7  C   UNL     1       7.410   4.935  17.723  0.00  0.00    +0.000 C 
ATOM      8  N   UNL     1       7.267   5.993  18.667  0.00  0.00    +0.000 N 
ATOM      9  N   UNL     1       6.539   4.831  16.585  0.00  0.00    +0.000 N 
ATOM     10  C   UNL     1       6.672   3.812  15.567  0.00  0.00    +0.000 C 
ATOM     11  C   UNL     1       6.472   4.602  14.286  0.00  0.00    +0.000 C 
ATOM     12  C   UNL     1       5.302   5.492  14.688  0.00  0.00    +0.000 C 
ATOM     13  C   UNL     1       5.696   5.915  16.112  0.00  0.00    +0.000 C 
ATOM     14  H   UNL     1       8.995   4.120  18.687  0.00  0.00    +0.000 HD
ATOM     15  H   UNL     1       7.892   6.046  19.484  0.00  0.00    +0.000 HD
ATOM     16  H   UNL     1       6.533   6.705  18.580  0.00  0.00    +0.000 HD
ENDBRANCH   1  13
BRANCH   3  17
ATOM     17  C   UNL     1       2.177   7.869  18.977  0.00  0.00    +0.000 A 
ATOM     18  C   UNL     1       1.721   9.056  18.378  0.00  0.00    +0.000 A 
ATOM     19  C   UNL     1       0.964   9.974  19.111  0.00  0.00    +0.000 A 
ATOM     20  C   UNL     1       0.658   9.715  20.451  0.00  0.00    +0.000 A 
ATOM     21  I   UNL     1      -0.465  11.113  21.562  0.00  0.00    +0.000 I 
ATOM     22  C   UNL     1       1.104   8.536  21.054  0.00  0.00    +0.000 A 
ATOM     23  C   UNL     1       1.855   7.615  20.322  0.00  0.00    +0.000 A 
ENDBRANCH   3  17
TORSDOF 2
ENDMDL
MODEL 4
REMARK VINA RESULT:      -7.4      2.629      3.402
REMARK  Name = 
REMARK  2 active torsions:
REMARK  status: ('A' for Active; 'I' for Inactive)
REMARK    1  A    between atoms: C_8  and  C_9
REMARK    2  A    between atoms: C_11  and  C_12
REMARK                            x       y       z     vdW  Elec       q    Type
REMARK                         _______ _______ _______ _____ _____    ______ ____
ROOT
ATOM      1  C   UNL     1       4.446   6.071  16.927  0.00  0.00    +0.000 A 
ATOM      2  N   UNL     1       4.007   7.262  17.366  0.00  0.00    +0.000 NA
ATOM      3  C   UNL     1       2.984   6.915  18.171  0.00  0.00    +0.000 A 
ATOM      4  N   UNL     1       2.812   5.580  18.206  0.00  0.00    +0.000 NA
ATOM      5  O   UNL     1       3.727   5.092  17.426  0.00  0.00    +0.000 OA
ENDROOT
BRANCH   1  13
ATOM      6  N   UNL     1       8.298   4.074  17.864  0.00  0.00    +0.000 NA
ATOM      7  C   UNL     1       7.362   4.933  17.678  0.00  0.00    +0.000 C 
ATOM      8  N   UNL     1       7.222   6.015  18.595  0.00  0.00    +0.000 N 
ATOM      9  N   UNL     1       6.487   4.800  16.545  0.00  0.00    +0.000 N 
ATOM     10  C   UNL     1       6.617   3.756  15.554  0.00  0.00    +0.000 C 
ATOM     11  C   UNL     1       6.412   4.512  14.253  0.00  0.00    +0.000 C 
ATOM     12  C   UNL     1       5.244   5.412  14.636  0.00  0.00    +0.000 C 
ATOM     13  C   UNL     1       5.642   5.871  16.048  0.00  0.00    +0.000 C 
ATOM     14  H   UNL     1       8.950   4.143  18.657  0.00  0.00    +0.000 HD
ATOM     15  H   UNL     1       7.849   6.089  19.408  0.00  0.00    +0.000 HD
ATOM     16  H   UNL     1       6.488   6.724  18.493  0.00  0.00    +0.000 HD
ENDBRANCH   1  13
BRANCH   3  17
ATOM     17  C   UNL     1       2.201   7.875  18.972  0.00  0.00    +0.000 A 
ATOM     18  C   UNL     1       1.906   7.605  20.319  0.00  0.00    +0.000 A 
ATOM     19  C   UNL     1       1.139   8.500  21.070  0.00  0.00    +0.000 A 
ATOM     20  C   UNL     1       0.656   9.672  20.480  0.00  0.00    +0.000 A 
ATOM     21  I   UNL     1      -0.521  11.010  21.608  0.00  0.00    +0.000 I 
ATOM     22  C   UNL     1       0.947   9.952  19.142  0.00  0.00    +0.000 A 
ATOM     23  C   UNL     1       1.718   9.062  18.392  0.00  0.00    +0.000 A 
ENDBRANCH   3  17
TORSDOF 2
ENDMDL
MODEL 5
REMARK VINA RESULT:      -7.4      1.829      2.675
REMARK  Name = 
REMARK  2 active torsions:
REMARK  status: ('A' for Active; 'I' for Inactive)
REMARK    1  A    between atoms: C_8  and  C_9
REMARK    2  A    between atoms: C_11  and  C_12
REMARK                            x       y       z     vdW  Elec       q    Type
REMARK                         _______ _______ _______ _____ _____    ______ ____
ROOT
ATOM      1  C   UNL     1       2.817   6.082  19.111  0.00  0.00    +0.000 A 
ATOM      2  N   UNL     1       2.159   6.634  20.144  0.00  0.00    +0.000 NA
ATOM      3  C   UNL     1       1.883   7.870  19.684  0.00  0.00    +0.000 A 
ATOM      4  N   UNL     1       2.361   8.054  18.438  0.00  0.00    +0.000 NA
ATOM      5  O   UNL     1       2.933   6.933  18.117  0.00  0.00    +0.000 OA
ENDROOT
BRANCH   1  13
ATOM      6  N   UNL     1       0.429   2.354  18.791  0.00  0.00    +0.000 NA
ATOM      7  C   UNL     1       1.106   3.357  19.219  0.00  0.00    +0.000 C 
ATOM      8  N   UNL     1       0.692   4.013  20.415  0.00  0.00    +0.000 N 
ATOM      9  N   UNL     1       2.272   3.789  18.499  0.00  0.00    +0.000 N 
ATOM     10  C   UNL     1       2.769   3.128  17.312  0.00  0.00    +0.000 C 
ATOM     11  C   UNL     1       4.266   3.091  17.561  0.00  0.00    +0.000 C 
ATOM     12  C   UNL     1       4.490   4.494  18.114  0.00  0.00    +0.000 C 
ATOM     13  C   UNL     1       3.289   4.661  19.058  0.00  0.00    +0.000 C 
ATOM     14  H   UNL     1      -0.405   2.009  19.286  0.00  0.00    +0.000 HD
ATOM     15  H   UNL     1      -0.153   3.699  20.912  0.00  0.00    +0.000 HD
ATOM     16  H   UNL     1       1.196   4.822  20.795  0.00  0.00    +0.000 HD
ENDBRANCH   1  13
BRANCH   3  17
ATOM     17  C   UNL     1       1.092   8.870  20.426  0.00  0.00    +0.000 A 
ATOM     18  C   UNL     1       0.875   8.723  21.807  0.00  0.00    +0.000 A 
ATOM     19  C   UNL     1       0.101   9.654  22.505  0.00  0.00    +0.000 A 
ATOM     20  C   UNL     1      -0.467  10.739  21.829  0.00  0.00    +0.000 A 
ATOM     21  I   UNL     1      -1.654  12.129  22.880  0.00  0.00    +0.000 I 
ATOM     22  C   UNL     1      -0.253  10.895  20.457  0.00  0.00    +0.000 A 
ATOM     23  C   UNL     1       0.524   9.970  19.758  0.00  0.00    +0.000 A 
ENDBRANCH   3  17
TORSDOF 2
ENDMDL
MODEL 6
REMARK VINA RESULT:      -7.4      1.512      2.209
REMARK  Name = 
REMARK  2 active torsions:
REMARK  status: ('A' for Active; 'I' for Inactive)
REMARK    1  A    between atoms: C_8  and  C_9
REMARK    2  A    between atoms: C_11  and  C_12
REMARK                            x       y       z     vdW  Elec       q    Type
REMARK                         _______ _______ _______ _____ _____    ______ ____
ROOT
ATOM      1  C   UNL     1       3.107   6.209  18.078  0.00  0.00    +0.000 A 
ATOM      2  N   UNL     1       2.326   6.542  19.118  0.00  0.00    +0.000 NA
ATOM      3  C   UNL     1       2.200   7.875  18.971  0.00  0.00    +0.000 A 
ATOM      4  N   UNL     1       2.880   8.322  17.898  0.00  0.00    +0.000 NA
ATOM      5  O   UNL     1       3.430   7.270  17.373  0.00  0.00    +0.000 OA
ENDROOT
BRANCH   1  13
ATOM      6  N   UNL     1       7.102   4.286  18.277  0.00  0.00    +0.000 NA
ATOM      7  C   UNL     1       6.039   4.894  17.893  0.00  0.00    +0.000 C 
ATOM      8  N   UNL     1       6.159   6.006  17.009  0.00  0.00    +0.000 N 
ATOM      9  N   UNL     1       4.754   4.435  18.343  0.00  0.00    +0.000 N 
ATOM     10  C   UNL     1       4.570   3.281  19.193  0.00  0.00    +0.000 C 
ATOM     11  C   UNL     1       3.386   2.583  18.547  0.00  0.00    +0.000 C 
ATOM     12  C   UNL     1       2.490   3.779  18.247  0.00  0.00    +0.000 C 
ATOM     13  C   UNL     1       3.499   4.810  17.715  0.00  0.00    +0.000 C 
ATOM     14  H   UNL     1       8.039   4.578  17.967  0.00  0.00    +0.000 HD
ATOM     15  H   UNL     1       7.088   6.329  16.706  0.00  0.00    +0.000 HD
ATOM     16  H   UNL     1       5.340   6.528  16.677  0.00  0.00    +0.000 HD
ENDBRANCH   1  13
BRANCH   3  17
ATOM     17  C   UNL     1       1.359   8.726  19.835  0.00  0.00    +0.000 A 
ATOM     18  C   UNL     1       0.718   9.861  19.309  0.00  0.00    +0.000 A 
ATOM     19  C   UNL     1      -0.054  10.684  20.133  0.00  0.00    +0.000 A 
ATOM     20  C   UNL     1      -0.190  10.382  21.492  0.00  0.00    +0.000 A 
ATOM     21  I   UNL     1      -1.337  11.639  22.739  0.00  0.00    +0.000 I 
ATOM     22  C   UNL     1       0.440   9.253  22.023  0.00  0.00    +0.000 A 
ATOM     23  C   UNL     1       1.208   8.427  21.201  0.00  0.00    +0.000 A 
ENDBRANCH   3  17
TORSDOF 2
ENDMDL
MODEL 7
REMARK VINA RESULT:      -7.3      1.829      2.879
REMARK  Name = 
REMARK  2 active torsions:
REMARK  status: ('A' for Active; 'I' for Inactive)
REMARK    1  A    between atoms: C_8  and  C_9
REMARK    2  A    between atoms: C_11  and  C_12
REMARK                            x       y       z     vdW  Elec       q    Type
REMARK                         _______ _______ _______ _____ _____    ______ ____
ROOT
ATOM      1  C   UNL     1       2.804   6.145  19.082  0.00  0.00    +0.000 A 
ATOM      2  N   UNL     1       2.100   6.667  20.099  0.00  0.00    +0.000 NA
ATOM      3  C   UNL     1       1.839   7.915  19.660  0.00  0.00    +0.000 A 
ATOM      4  N   UNL     1       2.371   8.133  18.442  0.00  0.00    +0.000 NA
ATOM      5  O   UNL     1       2.961   7.023  18.117  0.00  0.00    +0.000 OA
ENDROOT
BRANCH   1  13
ATOM      6  N   UNL     1       0.433   2.402  18.820  0.00  0.00    +0.000 NA
ATOM      7  C   UNL     1       1.115   3.409  19.231  0.00  0.00    +0.000 C 
ATOM      8  N   UNL     1       0.730   4.059  20.439  0.00  0.00    +0.000 N 
ATOM      9  N   UNL     1       2.257   3.850  18.479  0.00  0.00    +0.000 N 
ATOM     10  C   UNL     1       2.726   3.195  17.278  0.00  0.00    +0.000 C 
ATOM     11  C   UNL     1       4.229   3.168  17.486  0.00  0.00    +0.000 C 
ATOM     12  C   UNL     1       4.460   4.570  18.036  0.00  0.00    +0.000 C 
ATOM     13  C   UNL     1       3.284   4.728  19.013  0.00  0.00    +0.000 C 
ATOM     14  H   UNL     1      -0.385   2.051  19.336  0.00  0.00    +0.000 HD
ATOM     15  H   UNL     1      -0.099   3.738  20.959  0.00  0.00    +0.000 HD
ATOM     16  H   UNL     1       1.239   4.871  20.807  0.00  0.00    +0.000 HD
ENDBRANCH   1  13
BRANCH   3  17
ATOM     17  C   UNL     1       1.012   8.892  20.393  0.00  0.00    +0.000 A 
ATOM     18  C   UNL     1       0.651  10.110  19.792  0.00  0.00    +0.000 A 
ATOM     19  C   UNL     1      -0.109  11.049  20.495  0.00  0.00    +0.000 A 
ATOM     20  C   UNL     1      -0.510  10.782  21.808  0.00  0.00    +0.000 A 
ATOM     21  I   UNL     1      -1.636  12.210  22.876  0.00  0.00    +0.000 I 
ATOM     22  C   UNL     1      -0.159   9.571  22.412  0.00  0.00    +0.000 A 
ATOM     23  C   UNL     1       0.594   8.630  21.710  0.00  0.00    +0.000 A 
ENDBRANCH   3  17
TORSDOF 2
ENDMDL
MODEL 8
REMARK VINA RESULT:      -7.3      1.093      1.256
REMARK  Name = 
REMARK  2 active torsions:
REMARK  status: ('A' for Active; 'I' for Inactive)
REMARK    1  A    between atoms: C_8  and  C_9
REMARK    2  A    between atoms: C_11  and  C_12
REMARK                            x       y       z     vdW  Elec       q    Type
REMARK                         _______ _______ _______ _____ _____    ______ ____
ROOT
ATOM      1  C   UNL     1       2.340   5.115  19.031  0.00  0.00    +0.000 A 
ATOM      2  N   UNL     1       1.779   6.221  19.544  0.00  0.00    +0.000 NA
ATOM      3  C   UNL     1       2.299   7.195  18.772  0.00  0.00    +0.000 A 
ATOM      4  N   UNL     1       3.140   6.696  17.845  0.00  0.00    +0.000 NA
ATOM      5  O   UNL     1       3.144   5.412  18.035  0.00  0.00    +0.000 OA
ENDROOT
BRANCH   1  13
ATOM      6  N   UNL     1       5.151   1.874  20.172  0.00  0.00    +0.000 NA
ATOM      7  C   UNL     1       4.352   2.653  19.538  0.00  0.00    +0.000 C 
ATOM      8  N   UNL     1       4.656   3.010  18.192  0.00  0.00    +0.000 N 
ATOM      9  N   UNL     1       3.162   3.134  20.185  0.00  0.00    +0.000 N 
ATOM     10  C   UNL     1       2.776   2.761  21.527  0.00  0.00    +0.000 C 
ATOM     11  C   UNL     1       1.287   2.503  21.379  0.00  0.00    +0.000 C 
ATOM     12  C   UNL     1       0.888   3.678  20.495  0.00  0.00    +0.000 C 
ATOM     13  C   UNL     1       2.037   3.716  19.475  0.00  0.00    +0.000 C 
ATOM     14  H   UNL     1       6.006   1.501  19.739  0.00  0.00    +0.000 HD
ATOM     15  H   UNL     1       5.519   2.666  17.747  0.00  0.00    +0.000 HD
ATOM     16  H   UNL     1       4.052   3.633  17.644  0.00  0.00    +0.000 HD
ENDBRANCH   1  13
BRANCH   3  17
ATOM     17  C   UNL     1       1.934   8.620  18.881  0.00  0.00    +0.000 A 
ATOM     18  C   UNL     1       1.172   9.077  19.970  0.00  0.00    +0.000 A 
ATOM     19  C   UNL     1       0.801  10.422  20.060  0.00  0.00    +0.000 A 
ATOM     20  C   UNL     1       1.184  11.321  19.060  0.00  0.00    +0.000 A 
ATOM     21  I   UNL     1       0.603  13.345  19.185  0.00  0.00    +0.000 I 
ATOM     22  C   UNL     1       1.946  10.876  17.975  0.00  0.00    +0.000 A 
ATOM     23  C   UNL     1       2.322   9.535  17.886  0.00  0.00    +0.000 A 
ENDBRANCH   3  17
TORSDOF 2
ENDMDL
MODEL 9
REMARK VINA RESULT:      -7.3      1.495      1.953
REMARK  Name = 
REMARK  2 active torsions:
REMARK  status: ('A' for Active; 'I' for Inactive)
REMARK    1  A    between atoms: C_8  and  C_9
REMARK    2  A    between atoms: C_11  and  C_12
REMARK                            x       y       z     vdW  Elec       q    Type
REMARK                         _______ _______ _______ _____ _____    ______ ____
ROOT
ATOM      1  C   UNL     1       3.090   6.208  18.144  0.00  0.00    +0.000 A 
ATOM      2  N   UNL     1       2.347   6.568  19.203  0.00  0.00    +0.000 NA
ATOM      3  C   UNL     1       2.214   7.897  19.024  0.00  0.00    +0.000 A 
ATOM      4  N   UNL     1       2.855   8.315  17.916  0.00  0.00    +0.000 NA
ATOM      5  O   UNL     1       3.386   7.249  17.400  0.00  0.00    +0.000 OA
ENDROOT
BRANCH   1  13
ATOM      6  N   UNL     1       7.084   4.278  18.289  0.00  0.00    +0.000 NA
ATOM      7  C   UNL     1       6.013   4.880  17.917  0.00  0.00    +0.000 C 
ATOM      8  N   UNL     1       6.113   5.970  17.005  0.00  0.00    +0.000 N 
ATOM      9  N   UNL     1       4.739   4.436  18.410  0.00  0.00    +0.000 N 
ATOM     10  C   UNL     1       4.574   3.302  19.292  0.00  0.00    +0.000 C 
ATOM     11  C   UNL     1       3.372   2.593  18.692  0.00  0.00    +0.000 C 
ATOM     12  C   UNL     1       2.472   3.784  18.386  0.00  0.00    +0.000 C 
ATOM     13  C   UNL     1       3.469   4.798  17.805  0.00  0.00    +0.000 C 
ATOM     14  H   UNL     1       8.014   4.560  17.949  0.00  0.00    +0.000 HD
ATOM     15  H   UNL     1       7.035   6.284  16.670  0.00  0.00    +0.000 HD
ATOM     16  H   UNL     1       5.288   6.486  16.681  0.00  0.00    +0.000 HD
ENDBRANCH   1  13
BRANCH   3  17
ATOM     17  C   UNL     1       1.404   8.771  19.895  0.00  0.00    +0.000 A 
ATOM     18  C   UNL     1       1.133   8.398  21.222  0.00  0.00    +0.000 A 
ATOM     19  C   UNL     1       0.342   9.211  22.039  0.00  0.00    +0.000 A 
ATOM     20  C   UNL     1      -0.189  10.402  21.535  0.00  0.00    +0.000 A 
ATOM     21  I   UNL     1      -1.402  11.616  22.761  0.00  0.00    +0.000 I 
ATOM     22  C   UNL     1       0.079  10.784  20.217  0.00  0.00    +0.000 A 
ATOM     23  C   UNL     1       0.873   9.976  19.401  0.00  0.00    +0.000 A 
ENDBRANCH   3  17
TORSDOF 2
ENDMDL
