MODEL 1
REMARK VINA RESULT:      -7.7      0.000      0.000
REMARK  Name = 
REMARK  7 active torsions:
REMARK  status: ('A' for Active; 'I' for Inactive)
REMARK    1  A    between atoms: C_1  and  O_2
REMARK    2  A    between atoms: O_2  and  C_3
REMARK    3  A    between atoms: C_6  and  C_7
REMARK    4  A    between atoms: N_12  and  C_13
REMARK    5  A    between atoms: N_19  and  C_20
REMARK    6  A    between atoms: N_19  and  C_21
REMARK    7  A    between atoms: N_24  and  C_25
REMARK                            x       y       z     vdW  Elec       q    Type
REMARK                         _______ _______ _______ _____ _____    ______ ____
ROOT
ATOM      1  C   UNL     1       2.130   7.975  18.573  0.00  0.00    +0.000 A 
ATOM      2  C   UNL     1       1.652   9.129  17.956  0.00  0.00    +0.000 A 
ATOM      3  C   UNL     1       0.974   9.968  18.880  0.00  0.00    +0.000 A 
ATOM      4  N   UNL     1       0.322  11.166  18.606  0.00  0.00    +0.000 NA
ATOM      5  C   UNL     1      -0.272  11.693  19.644  0.00  0.00    +0.000 A 
ATOM      6  N   UNL     1      -0.291  11.216  20.947  0.00  0.00    +0.000 N 
ATOM      7  C   UNL     1       0.522  10.147  21.285  0.00  0.00    +0.000 A 
ATOM      8  O   UNL     1       0.809   9.859  22.456  0.00  0.00    +0.000 OA
ATOM      9  C   UNL     1       1.039   9.471  20.153  0.00  0.00    +0.000 A 
ATOM     10  S   UNL     1       1.776   7.976  20.260  0.00  0.00    +0.000 S 
ENDROOT
BRANCH   6  11
ATOM     11  C   UNL     1      -0.953  11.925  22.050  0.00  0.00    +0.000 C 
ATOM     12  C   UNL     1      -0.470  13.357  22.224  0.00  0.00    +0.000 C 
ATOM     13  C   UNL     1      -1.610  14.014  22.976  0.00  0.00    +0.000 C 
ATOM     14  N   UNL     1      -2.816  13.379  22.466  0.00  0.00    +0.000 N 
ATOM     15  C   UNL     1      -4.138  13.758  22.362  0.00  0.00    +0.000 C 
ATOM     16  O   UNL     1      -4.955  12.933  21.921  0.00  0.00    +0.000 OA
ATOM     17  N   UNL     1      -4.559  15.033  22.694  0.00  0.00    +0.000 N 
ATOM     18  C   UNL     1      -3.741  16.111  23.212  0.00  0.00    +0.000 C 
ATOM     19  C   UNL     1      -2.470  12.080  21.906  0.00  0.00    +0.000 C 
BRANCH  17  20
ATOM     20  C   UNL     1      -6.005  15.323  22.543  0.00  0.00    +0.000 C 
ATOM     21  C   UNL     1      -6.566  16.008  23.792  0.00  0.00    +0.000 C 
ATOM     22  C   UNL     1      -7.691  16.868  23.247  0.00  0.00    +0.000 C 
ATOM     23  N   UNL     1      -7.224  17.357  21.940  0.00  0.00    +0.000 NA
ATOM     24  C   UNL     1      -6.445  18.588  22.072  0.00  0.00    +0.000 C 
ATOM     25  C   UNL     1      -6.417  16.255  21.378  0.00  0.00    +0.000 C 
ENDBRANCH  17  20
ENDBRANCH   6  11
BRANCH   1  29
ATOM     26  C   UNL     1       4.206   4.531  17.139  0.00  0.00    +0.000 A 
ATOM     27  C   UNL     1       4.753   5.799  16.954  0.00  0.00    +0.000 A 
ATOM     28  C   UNL     1       4.069   6.922  17.406  0.00  0.00    +0.000 A 
ATOM     29  C   UNL     1       2.816   6.797  18.031  0.00  0.00    +0.000 A 
ATOM     30  C   UNL     1       2.274   5.524  18.199  0.00  0.00    +0.000 A 
ATOM     31  C   UNL     1       2.969   4.399  17.761  0.00  0.00    +0.000 A 
BRANCH  26  33
ATOM     32  C   UNL     1       5.770   3.817  15.540  0.00  0.00    +0.000 C 
ATOM     33  O   UNL     1       4.961   3.497  16.661  0.00  0.00    +0.000 OA
ENDBRANCH  26  33
ENDBRANCH   1  29
TORSDOF 4
ENDMDL
MODEL 2
REMARK VINA RESULT:      -7.5      1.934      2.648
REMARK  Name = 
REMARK  7 active torsions:
REMARK  status: ('A' for Active; 'I' for Inactive)
REMARK    1  A    between atoms: C_1  and  O_2
REMARK    2  A    between atoms: O_2  and  C_3
REMARK    3  A    between atoms: C_6  and  C_7
REMARK    4  A    between atoms: N_12  and  C_13
REMARK    5  A    between atoms: N_19  and  C_20
REMARK    6  A    between atoms: N_19  and  C_21
REMARK    7  A    between atoms: N_24  and  C_25
REMARK                            x       y       z     vdW  Elec       q    Type
REMARK                         _______ _______ _______ _____ _____    ______ ____
ROOT
ATOM      1  C   UNL     1       2.993   6.641  18.477  0.00  0.00    +0.000 A 
ATOM      2  C   UNL     1       2.370   6.392  19.697  0.00  0.00    +0.000 A 
ATOM      3  C   UNL     1       1.726   7.555  20.197  0.00  0.00    +0.000 A 
ATOM      4  N   UNL     1       1.057   7.691  21.409  0.00  0.00    +0.000 NA
ATOM      5  C   UNL     1       0.615   8.900  21.636  0.00  0.00    +0.000 A 
ATOM      6  N   UNL     1       0.713  10.011  20.810  0.00  0.00    +0.000 N 
ATOM      7  C   UNL     1       1.182   9.850  19.518  0.00  0.00    +0.000 A 
ATOM      8  O   UNL     1       1.013  10.694  18.626  0.00  0.00    +0.000 OA
ATOM      9  C   UNL     1       1.810   8.597  19.313  0.00  0.00    +0.000 A 
ATOM     10  S   UNL     1       2.736   8.267  17.963  0.00  0.00    +0.000 S 
ENDROOT
BRANCH   6  11
ATOM     11  C   UNL     1       0.130  11.316  21.150  0.00  0.00    +0.000 C 
ATOM     12  C   UNL     1      -0.521  12.014  19.966  0.00  0.00    +0.000 C 
ATOM     13  C   UNL     1      -1.479  12.985  20.624  0.00  0.00    +0.000 C 
ATOM     14  N   UNL     1      -1.954  12.298  21.816  0.00  0.00    +0.000 N 
ATOM     15  C   UNL     1      -3.096  12.378  22.586  0.00  0.00    +0.000 C 
ATOM     16  O   UNL     1      -3.170  11.673  23.606  0.00  0.00    +0.000 OA
ATOM     17  N   UNL     1      -4.163  13.182  22.228  0.00  0.00    +0.000 N 
ATOM     18  C   UNL     1      -4.245  14.054  21.075  0.00  0.00    +0.000 C 
ATOM     19  C   UNL     1      -0.989  11.276  22.194  0.00  0.00    +0.000 C 
BRANCH  17  20
ATOM     20  C   UNL     1      -5.335  13.185  23.136  0.00  0.00    +0.000 C 
ATOM     21  C   UNL     1      -5.602  14.587  23.690  0.00  0.00    +0.000 C 
ATOM     22  C   UNL     1      -7.104  14.600  23.909  0.00  0.00    +0.000 C 
ATOM     23  N   UNL     1      -7.675  13.815  22.803  0.00  0.00    +0.000 NA
ATOM     24  C   UNL     1      -7.915  14.644  21.622  0.00  0.00    +0.000 C 
ATOM     25  C   UNL     1      -6.692  12.747  22.534  0.00  0.00    +0.000 C 
ENDBRANCH  17  20
ENDBRANCH   6  11
BRANCH   1  29
ATOM     26  C   UNL     1       5.303   4.149  15.891  0.00  0.00    +0.000 A 
ATOM     27  C   UNL     1       4.573   3.582  16.933  0.00  0.00    +0.000 A 
ATOM     28  C   UNL     1       3.835   4.394  17.786  0.00  0.00    +0.000 A 
ATOM     29  C   UNL     1       3.831   5.791  17.623  0.00  0.00    +0.000 A 
ATOM     30  C   UNL     1       4.575   6.347  16.584  0.00  0.00    +0.000 A 
ATOM     31  C   UNL     1       5.300   5.530  15.720  0.00  0.00    +0.000 A 
BRANCH  26  33
ATOM     32  C   UNL     1       6.428   3.776  13.864  0.00  0.00    +0.000 C 
ATOM     33  O   UNL     1       5.990   3.261  15.112  0.00  0.00    +0.000 OA
ENDBRANCH  26  33
ENDBRANCH   1  29
TORSDOF 4
ENDMDL
MODEL 3
REMARK VINA RESULT:      -7.3      1.878      2.544
REMARK  Name = 
REMARK  7 active torsions:
REMARK  status: ('A' for Active; 'I' for Inactive)
REMARK    1  A    between atoms: C_1  and  O_2
REMARK    2  A    between atoms: O_2  and  C_3
REMARK    3  A    between atoms: C_6  and  C_7
REMARK    4  A    between atoms: N_12  and  C_13
REMARK    5  A    between atoms: N_19  and  C_20
REMARK    6  A    between atoms: N_19  and  C_21
REMARK    7  A    between atoms: N_24  and  C_25
REMARK                            x       y       z     vdW  Elec       q    Type
REMARK                         _______ _______ _______ _____ _____    ______ ____
ROOT
ATOM      1  C   UNL     1       2.924   6.906  18.345  0.00  0.00    +0.000 A 
ATOM      2  C   UNL     1       2.275   6.727  19.565  0.00  0.00    +0.000 A 
ATOM      3  C   UNL     1       1.674   7.933  20.013  0.00  0.00    +0.000 A 
ATOM      4  N   UNL     1       0.996   8.141  21.211  0.00  0.00    +0.000 NA
ATOM      5  C   UNL     1       0.602   9.374  21.388  0.00  0.00    +0.000 A 
ATOM      6  N   UNL     1       0.757  10.449  20.524  0.00  0.00    +0.000 N 
ATOM      7  C   UNL     1       1.236  10.223  19.246  0.00  0.00    +0.000 A 
ATOM      8  O   UNL     1       1.113  11.040  18.322  0.00  0.00    +0.000 OA
ATOM      9  C   UNL     1       1.812   8.938  19.094  0.00  0.00    +0.000 A 
ATOM     10  S   UNL     1       2.742   8.521  17.771  0.00  0.00    +0.000 S 
ENDROOT
BRANCH   6  11
ATOM     11  C   UNL     1       0.225  11.788  20.810  0.00  0.00    +0.000 C 
ATOM     12  C   UNL     1      -0.633  12.350  19.686  0.00  0.00    +0.000 C 
ATOM     13  C   UNL     1      -1.474  13.397  20.387  0.00  0.00    +0.000 C 
ATOM     14  N   UNL     1      -1.724  12.855  21.714  0.00  0.00    +0.000 N 
ATOM     15  C   UNL     1      -2.715  13.030  22.658  0.00  0.00    +0.000 C 
ATOM     16  O   UNL     1      -2.599  12.448  23.749  0.00  0.00    +0.000 OA
ATOM     17  N   UNL     1      -3.838  13.795  22.403  0.00  0.00    +0.000 N 
ATOM     18  C   UNL     1      -4.133  14.529  21.190  0.00  0.00    +0.000 C 
ATOM     19  C   UNL     1      -0.694  11.877  22.031  0.00  0.00    +0.000 C 
BRANCH  17  20
ATOM     20  C   UNL     1      -4.834  13.911  23.496  0.00  0.00    +0.000 C 
ATOM     21  C   UNL     1      -5.609  15.227  23.401  0.00  0.00    +0.000 C 
ATOM     22  C   UNL     1      -6.961  14.883  23.999  0.00  0.00    +0.000 C 
ATOM     23  N   UNL     1      -7.244  13.502  23.581  0.00  0.00    +0.000 NA
ATOM     24  C   UNL     1      -7.894  13.457  22.271  0.00  0.00    +0.000 C 
ATOM     25  C   UNL     1      -5.932  12.823  23.565  0.00  0.00    +0.000 C 
ENDBRANCH  17  20
ENDBRANCH   6  11
BRANCH   1  29
ATOM     26  C   UNL     1       5.406   4.260  16.095  0.00  0.00    +0.000 A 
ATOM     27  C   UNL     1       5.473   5.633  15.871  0.00  0.00    +0.000 A 
ATOM     28  C   UNL     1       4.652   6.494  16.592  0.00  0.00    +0.000 A 
ATOM     29  C   UNL     1       3.736   5.992  17.534  0.00  0.00    +0.000 A 
ATOM     30  C   UNL     1       3.670   4.616  17.738  0.00  0.00    +0.000 A 
ATOM     31  C   UNL     1       4.506   3.756  17.028  0.00  0.00    +0.000 A 
BRANCH  26  33
ATOM     32  C   UNL     1       6.166   3.727  13.937  0.00  0.00    +0.000 C 
ATOM     33  O   UNL     1       6.257   3.506  15.336  0.00  0.00    +0.000 OA
ENDBRANCH  26  33
ENDBRANCH   1  29
TORSDOF 4
ENDMDL
MODEL 4
REMARK VINA RESULT:      -7.2      1.637      2.052
REMARK  Name = 
REMARK  7 active torsions:
REMARK  status: ('A' for Active; 'I' for Inactive)
REMARK    1  A    between atoms: C_1  and  O_2
REMARK    2  A    between atoms: O_2  and  C_3
REMARK    3  A    between atoms: C_6  and  C_7
REMARK    4  A    between atoms: N_12  and  C_13
REMARK    5  A    between atoms: N_19  and  C_20
REMARK    6  A    between atoms: N_19  and  C_21
REMARK    7  A    between atoms: N_24  and  C_25
REMARK                            x       y       z     vdW  Elec       q    Type
REMARK                         _______ _______ _______ _____ _____    ______ ____
ROOT
ATOM      1  C   UNL     1       2.588   7.119  18.774  0.00  0.00    +0.000 A 
ATOM      2  C   UNL     1       2.154   6.963  20.088  0.00  0.00    +0.000 A 
ATOM      3  C   UNL     1       1.493   8.129  20.557  0.00  0.00    +0.000 A 
ATOM      4  N   UNL     1       0.983   8.352  21.833  0.00  0.00    +0.000 NA
ATOM      5  C   UNL     1       0.482   9.547  22.001  0.00  0.00    +0.000 A 
ATOM      6  N   UNL     1       0.381  10.566  21.064  0.00  0.00    +0.000 N 
ATOM      7  C   UNL     1       0.686  10.298  19.741  0.00  0.00    +0.000 A 
ATOM      8  O   UNL     1       0.333  11.029  18.804  0.00  0.00    +0.000 OA
ATOM      9  C   UNL     1       1.376   9.073  19.573  0.00  0.00    +0.000 A 
ATOM     10  S   UNL     1       2.138   8.660  18.146  0.00  0.00    +0.000 S 
ENDROOT
BRANCH   6  11
ATOM     11  C   UNL     1      -0.252  11.860  21.354  0.00  0.00    +0.000 C 
ATOM     12  C   UNL     1      -0.788  12.562  20.115  0.00  0.00    +0.000 C 
ATOM     13  C   UNL     1      -1.822  13.514  20.681  0.00  0.00    +0.000 C 
ATOM     14  N   UNL     1      -2.407  12.809  21.812  0.00  0.00    +0.000 N 
ATOM     15  C   UNL     1      -3.623  12.865  22.461  0.00  0.00    +0.000 C 
ATOM     16  O   UNL     1      -3.790  12.150  23.463  0.00  0.00    +0.000 OA
ATOM     17  N   UNL     1      -4.658  13.659  22.003  0.00  0.00    +0.000 N 
ATOM     18  C   UNL     1      -4.634  14.541  20.855  0.00  0.00    +0.000 C 
ATOM     19  C   UNL     1      -1.471  11.796  22.278  0.00  0.00    +0.000 C 
BRANCH  17  20
ATOM     20  C   UNL     1      -5.917  13.638  22.787  0.00  0.00    +0.000 C 
ATOM     21  C   UNL     1      -5.876  14.658  23.927  0.00  0.00    +0.000 C 
ATOM     22  C   UNL     1      -7.332  15.052  24.100  0.00  0.00    +0.000 C 
ATOM     23  N   UNL     1      -7.907  15.060  22.746  0.00  0.00    +0.000 NA
ATOM     24  C   UNL     1      -7.713  16.351  22.086  0.00  0.00    +0.000 C 
ATOM     25  C   UNL     1      -7.224  13.967  22.026  0.00  0.00    +0.000 C 
ENDBRANCH  17  20
ENDBRANCH   6  11
BRANCH   1  29
ATOM     26  C   UNL     1       4.967   4.536  16.345  0.00  0.00    +0.000 A 
ATOM     27  C   UNL     1       5.220   5.906  16.358  0.00  0.00    +0.000 A 
ATOM     28  C   UNL     1       4.435   6.750  17.136  0.00  0.00    +0.000 A 
ATOM     29  C   UNL     1       3.368   6.238  17.897  0.00  0.00    +0.000 A 
ATOM     30  C   UNL     1       3.117   4.869  17.866  0.00  0.00    +0.000 A 
ATOM     31  C   UNL     1       3.917   4.023  17.100  0.00  0.00    +0.000 A 
BRANCH  26  33
ATOM     32  C   UNL     1       6.497   4.542  14.564  0.00  0.00    +0.000 C 
ATOM     33  O   UNL     1       5.799   3.799  15.550  0.00  0.00    +0.000 OA
ENDBRANCH  26  33
ENDBRANCH   1  29
TORSDOF 4
ENDMDL
MODEL 5
REMARK VINA RESULT:      -7.1      1.067      1.574
REMARK  Name = 
REMARK  7 active torsions:
REMARK  status: ('A' for Active; 'I' for Inactive)
REMARK    1  A    between atoms: C_1  and  O_2
REMARK    2  A    between atoms: O_2  and  C_3
REMARK    3  A    between atoms: C_6  and  C_7
REMARK    4  A    between atoms: N_12  and  C_13
REMARK    5  A    between atoms: N_19  and  C_20
REMARK    6  A    between atoms: N_19  and  C_21
REMARK    7  A    between atoms: N_24  and  C_25
REMARK                            x       y       z     vdW  Elec       q    Type
REMARK                         _______ _______ _______ _____ _____    ______ ____
ROOT
ATOM      1  C   UNL     1       2.236   8.066  18.594  0.00  0.00    +0.000 A 
ATOM      2  C   UNL     1       1.879   9.287  18.026  0.00  0.00    +0.000 A 
ATOM      3  C   UNL     1       1.213  10.119  18.964  0.00  0.00    +0.000 A 
ATOM      4  N   UNL     1       0.667  11.378  18.733  0.00  0.00    +0.000 NA
ATOM      5  C   UNL     1       0.054  11.887  19.769  0.00  0.00    +0.000 A 
ATOM      6  N   UNL     1      -0.075  11.336  21.036  0.00  0.00    +0.000 N 
ATOM      7  C   UNL     1       0.636  10.190  21.349  0.00  0.00    +0.000 A 
ATOM      8  O   UNL     1       0.832   9.812  22.512  0.00  0.00    +0.000 OA
ATOM      9  C   UNL     1       1.167   9.545  20.205  0.00  0.00    +0.000 A 
ATOM     10  S   UNL     1       1.784   7.994  20.256  0.00  0.00    +0.000 S 
ENDROOT
BRANCH   6  11
ATOM     11  C   UNL     1      -0.747  12.027  22.145  0.00  0.00    +0.000 C 
ATOM     12  C   UNL     1      -0.317  13.478  22.302  0.00  0.00    +0.000 C 
ATOM     13  C   UNL     1      -1.469  14.097  23.067  0.00  0.00    +0.000 C 
ATOM     14  N   UNL     1      -2.657  13.412  22.581  0.00  0.00    +0.000 N 
ATOM     15  C   UNL     1      -3.995  13.739  22.496  0.00  0.00    +0.000 C 
ATOM     16  O   UNL     1      -4.787  12.881  22.074  0.00  0.00    +0.000 OA
ATOM     17  N   UNL     1      -4.459  14.999  22.826  0.00  0.00    +0.000 N 
ATOM     18  C   UNL     1      -3.675  16.112  23.323  0.00  0.00    +0.000 C 
ATOM     19  C   UNL     1      -2.271  12.123  22.025  0.00  0.00    +0.000 C 
BRANCH  17  20
ATOM     20  C   UNL     1      -5.918  15.233  22.696  0.00  0.00    +0.000 C 
ATOM     21  C   UNL     1      -6.487  14.513  21.471  0.00  0.00    +0.000 C 
ATOM     22  C   UNL     1      -7.916  14.203  21.877  0.00  0.00    +0.000 C 
ATOM     23  N   UNL     1      -7.864  13.886  23.313  0.00  0.00    +0.000 NA
ATOM     24  C   UNL     1      -7.571  12.472  23.542  0.00  0.00    +0.000 C 
ATOM     25  C   UNL     1      -6.812  14.761  23.867  0.00  0.00    +0.000 C 
ENDBRANCH  17  20
ENDBRANCH   6  11
BRANCH   1  29
ATOM     26  C   UNL     1       4.157   4.583  17.045  0.00  0.00    +0.000 A 
ATOM     27  C   UNL     1       4.680   5.844  16.770  0.00  0.00    +0.000 A 
ATOM     28  C   UNL     1       4.044   6.980  17.260  0.00  0.00    +0.000 A 
ATOM     29  C   UNL     1       2.863   6.872  18.016  0.00  0.00    +0.000 A 
ATOM     30  C   UNL     1       2.344   5.605  18.274  0.00  0.00    +0.000 A 
ATOM     31  C   UNL     1       2.992   4.468  17.797  0.00  0.00    +0.000 A 
BRANCH  26  33
ATOM     32  C   UNL     1       6.052   3.897  15.839  0.00  0.00    +0.000 C 
ATOM     33  O   UNL     1       4.860   3.535  16.519  0.00  0.00    +0.000 OA
ENDBRANCH  26  33
ENDBRANCH   1  29
TORSDOF 4
ENDMDL
MODEL 6
REMARK VINA RESULT:      -7.1      3.423      4.468
REMARK  Name = 
REMARK  7 active torsions:
REMARK  status: ('A' for Active; 'I' for Inactive)
REMARK    1  A    between atoms: C_1  and  O_2
REMARK    2  A    between atoms: O_2  and  C_3
REMARK    3  A    between atoms: C_6  and  C_7
REMARK    4  A    between atoms: N_12  and  C_13
REMARK    5  A    between atoms: N_19  and  C_20
REMARK    6  A    between atoms: N_19  and  C_21
REMARK    7  A    between atoms: N_24  and  C_25
REMARK                            x       y       z     vdW  Elec       q    Type
REMARK                         _______ _______ _______ _____ _____    ______ ____
ROOT
ATOM      1  C   UNL     1       3.062   6.771  18.385  0.00  0.00    +0.000 A 
ATOM      2  C   UNL     1       2.646   6.516  19.690  0.00  0.00    +0.000 A 
ATOM      3  C   UNL     1       1.794   7.545  20.172  0.00  0.00    +0.000 A 
ATOM      4  N   UNL     1       1.240   7.650  21.444  0.00  0.00    +0.000 NA
ATOM      5  C   UNL     1       0.545   8.741  21.629  0.00  0.00    +0.000 A 
ATOM      6  N   UNL     1       0.286   9.751  20.712  0.00  0.00    +0.000 N 
ATOM      7  C   UNL     1       0.646   9.567  19.388  0.00  0.00    +0.000 A 
ATOM      8  O   UNL     1       0.187  10.249  18.461  0.00  0.00    +0.000 OA
ATOM      9  C   UNL     1       1.533   8.478  19.206  0.00  0.00    +0.000 A 
ATOM     10  S   UNL     1       2.369   8.230  17.782  0.00  0.00    +0.000 S 
ENDROOT
BRANCH   6  11
ATOM     11  C   UNL     1      -0.557  10.914  21.019  0.00  0.00    +0.000 C 
ATOM     12  C   UNL     1      -1.036  10.949  22.462  0.00  0.00    +0.000 C 
ATOM     13  C   UNL     1      -1.373  12.410  22.676  0.00  0.00    +0.000 C 
ATOM     14  N   UNL     1      -0.395  13.144  21.888  0.00  0.00    +0.000 N 
ATOM     15  C   UNL     1       0.153  14.408  21.960  0.00  0.00    +0.000 C 
ATOM     16  O   UNL     1       0.942  14.761  21.069  0.00  0.00    +0.000 OA
ATOM     17  N   UNL     1      -0.122  15.263  23.012  0.00  0.00    +0.000 N 
ATOM     18  C   UNL     1      -1.008  15.008  24.130  0.00  0.00    +0.000 C 
ATOM     19  C   UNL     1       0.121  12.275  20.840  0.00  0.00    +0.000 C 
BRANCH  17  20
ATOM     20  C   UNL     1       0.524  16.597  22.980  0.00  0.00    +0.000 C 
ATOM     21  C   UNL     1      -0.330  17.643  23.700  0.00  0.00    +0.000 C 
ATOM     22  C   UNL     1       0.694  18.629  24.232  0.00  0.00    +0.000 C 
ATOM     23  N   UNL     1       1.860  17.821  24.622  0.00  0.00    +0.000 NA
ATOM     24  C   UNL     1       1.737  17.323  25.992  0.00  0.00    +0.000 C 
ATOM     25  C   UNL     1       1.917  16.719  23.641  0.00  0.00    +0.000 C 
ENDBRANCH  17  20
ENDBRANCH   6  11
BRANCH   1  29
ATOM     26  C   UNL     1       5.636   4.663  15.710  0.00  0.00    +0.000 A 
ATOM     27  C   UNL     1       4.900   3.962  16.662  0.00  0.00    +0.000 A 
ATOM     28  C   UNL     1       4.074   4.650  17.545  0.00  0.00    +0.000 A 
ATOM     29  C   UNL     1       3.989   6.053  17.503  0.00  0.00    +0.000 A 
ATOM     30  C   UNL     1       4.740   6.743  16.554  0.00  0.00    +0.000 A 
ATOM     31  C   UNL     1       5.553   6.051  15.659  0.00  0.00    +0.000 A 
BRANCH  26  33
ATOM     32  C   UNL     1       7.188   4.613  13.948  0.00  0.00    +0.000 C 
ATOM     33  O   UNL     1       6.412   3.890  14.891  0.00  0.00    +0.000 OA
ENDBRANCH  26  33
ENDBRANCH   1  29
TORSDOF 4
ENDMDL
MODEL 7
REMARK VINA RESULT:      -7.0      3.200     12.302
REMARK  Name = 
REMARK  7 active torsions:
REMARK  status: ('A' for Active; 'I' for Inactive)
REMARK    1  A    between atoms: C_1  and  O_2
REMARK    2  A    between atoms: O_2  and  C_3
REMARK    3  A    between atoms: C_6  and  C_7
REMARK    4  A    between atoms: N_12  and  C_13
REMARK    5  A    between atoms: N_19  and  C_20
REMARK    6  A    between atoms: N_19  and  C_21
REMARK    7  A    between atoms: N_24  and  C_25
REMARK                            x       y       z     vdW  Elec       q    Type
REMARK                         _______ _______ _______ _____ _____    ______ ____
ROOT
ATOM      1  C   UNL     1      -1.809  14.558  22.701  0.00  0.00    +0.000 A 
ATOM      2  C   UNL     1      -0.420  14.491  22.626  0.00  0.00    +0.000 A 
ATOM      3  C   UNL     1       0.002  13.474  21.730  0.00  0.00    +0.000 A 
ATOM      4  N   UNL     1       1.309  13.087  21.452  0.00  0.00    +0.000 NA
ATOM      5  C   UNL     1       1.397  12.075  20.630  0.00  0.00    +0.000 A 
ATOM      6  N   UNL     1       0.362  11.394  20.005  0.00  0.00    +0.000 N 
ATOM      7  C   UNL     1      -0.926  11.892  20.098  0.00  0.00    +0.000 A 
ATOM      8  O   UNL     1      -1.841  11.549  19.337  0.00  0.00    +0.000 OA
ATOM      9  C   UNL     1      -1.061  12.880  21.105  0.00  0.00    +0.000 A 
ATOM     10  S   UNL     1      -2.548  13.412  21.646  0.00  0.00    +0.000 S 
ENDROOT
BRANCH   6  11
ATOM     11  C   UNL     1       0.585  10.296  19.054  0.00  0.00    +0.000 C 
ATOM     12  C   UNL     1       1.706  10.573  18.064  0.00  0.00    +0.000 C 
ATOM     13  C   UNL     1       2.106   9.187  17.602  0.00  0.00    +0.000 C 
ATOM     14  N   UNL     1       1.938   8.335  18.770  0.00  0.00    +0.000 N 
ATOM     15  C   UNL     1       2.501   7.147  19.190  0.00  0.00    +0.000 C 
ATOM     16  O   UNL     1       2.082   6.635  20.240  0.00  0.00    +0.000 OA
ATOM     17  N   UNL     1       3.536   6.547  18.497  0.00  0.00    +0.000 N 
ATOM     18  C   UNL     1       4.144   7.012  17.268  0.00  0.00    +0.000 C 
ATOM     19  C   UNL     1       0.994   8.962  19.685  0.00  0.00    +0.000 C 
BRANCH  17  20
ATOM     20  C   UNL     1       4.058   5.271  19.044  0.00  0.00    +0.000 C 
ATOM     21  C   UNL     1       3.799   4.109  18.081  0.00  0.00    +0.000 C 
ATOM     22  C   UNL     1       4.953   3.162  18.354  0.00  0.00    +0.000 C 
ATOM     23  N   UNL     1       6.118   4.019  18.626  0.00  0.00    +0.000 NA
ATOM     24  C   UNL     1       6.812   4.394  17.394  0.00  0.00    +0.000 C 
ATOM     25  C   UNL     1       5.577   5.199  19.331  0.00  0.00    +0.000 C 
ENDBRANCH  17  20
ENDBRANCH   6  11
BRANCH   1  29
ATOM     26  C   UNL     1      -4.439  17.036  24.975  0.00  0.00    +0.000 A 
ATOM     27  C   UNL     1      -3.106  17.403  24.813  0.00  0.00    +0.000 A 
ATOM     28  C   UNL     1      -2.245  16.588  24.087  0.00  0.00    +0.000 A 
ATOM     29  C   UNL     1      -2.700  15.380  23.528  0.00  0.00    +0.000 A 
ATOM     30  C   UNL     1      -4.033  15.018  23.708  0.00  0.00    +0.000 A 
ATOM     31  C   UNL     1      -4.898  15.845  24.422  0.00  0.00    +0.000 A 
BRANCH  26  33
ATOM     32  C   UNL     1      -6.163  18.631  24.953  0.00  0.00    +0.000 C 
ATOM     33  O   UNL     1      -5.199  17.909  25.703  0.00  0.00    +0.000 OA
ENDBRANCH  26  33
ENDBRANCH   1  29
TORSDOF 4
ENDMDL
MODEL 8
REMARK VINA RESULT:      -7.0      1.705      2.127
REMARK  Name = 
REMARK  7 active torsions:
REMARK  status: ('A' for Active; 'I' for Inactive)
REMARK    1  A    between atoms: C_1  and  O_2
REMARK    2  A    between atoms: O_2  and  C_3
REMARK    3  A    between atoms: C_6  and  C_7
REMARK    4  A    between atoms: N_12  and  C_13
REMARK    5  A    between atoms: N_19  and  C_20
REMARK    6  A    between atoms: N_19  and  C_21
REMARK    7  A    between atoms: N_24  and  C_25
REMARK                            x       y       z     vdW  Elec       q    Type
REMARK                         _______ _______ _______ _____ _____    ______ ____
ROOT
ATOM      1  C   UNL     1       2.155   7.303  19.097  0.00  0.00    +0.000 A 
ATOM      2  C   UNL     1       1.943   8.443  18.326  0.00  0.00    +0.000 A 
ATOM      3  C   UNL     1       1.451   9.517  19.114  0.00  0.00    +0.000 A 
ATOM      4  N   UNL     1       1.075  10.782  18.671  0.00  0.00    +0.000 NA
ATOM      5  C   UNL     1       0.597  11.551  19.613  0.00  0.00    +0.000 A 
ATOM      6  N   UNL     1       0.461  11.258  20.963  0.00  0.00    +0.000 N 
ATOM      7  C   UNL     1       1.020  10.094  21.460  0.00  0.00    +0.000 A 
ATOM      8  O   UNL     1       1.225   9.903  22.667  0.00  0.00    +0.000 OA
ATOM      9  C   UNL     1       1.393   9.184  20.440  0.00  0.00    +0.000 A 
ATOM     10  S   UNL     1       1.790   7.594  20.757  0.00  0.00    +0.000 S 
ENDROOT
BRANCH   6  11
ATOM     11  C   UNL     1      -0.047  12.226  21.945  0.00  0.00    +0.000 C 
ATOM     12  C   UNL     1      -0.384  13.580  21.339  0.00  0.00    +0.000 C 
ATOM     13  C   UNL     1      -1.352  14.173  22.342  0.00  0.00    +0.000 C 
ATOM     14  N   UNL     1      -2.115  13.041  22.847  0.00  0.00    +0.000 N 
ATOM     15  C   UNL     1      -3.371  12.891  23.396  0.00  0.00    +0.000 C 
ATOM     16  O   UNL     1      -3.710  11.764  23.793  0.00  0.00    +0.000 OA
ATOM     17  N   UNL     1      -4.264  13.944  23.474  0.00  0.00    +0.000 N 
ATOM     18  C   UNL     1      -4.035  15.310  23.052  0.00  0.00    +0.000 C 
ATOM     19  C   UNL     1      -1.346  11.821  22.647  0.00  0.00    +0.000 C 
BRANCH  17  20
ATOM     20  C   UNL     1      -5.585  13.661  24.087  0.00  0.00    +0.000 C 
ATOM     21  C   UNL     1      -6.556  14.824  23.870  0.00  0.00    +0.000 C 
ATOM     22  C   UNL     1      -7.913  14.146  23.831  0.00  0.00    +0.000 C 
ATOM     23  N   UNL     1      -7.698  12.859  23.152  0.00  0.00    +0.000 NA
ATOM     24  C   UNL     1      -7.803  12.991  21.699  0.00  0.00    +0.000 C 
ATOM     25  C   UNL     1      -6.350  12.421  23.566  0.00  0.00    +0.000 C 
ENDBRANCH  17  20
ENDBRANCH   6  11
BRANCH   1  29
ATOM     26  C   UNL     1       3.519   3.377  18.120  0.00  0.00    +0.000 A 
ATOM     27  C   UNL     1       3.883   4.457  17.320  0.00  0.00    +0.000 A 
ATOM     28  C   UNL     1       3.425   5.734  17.628  0.00  0.00    +0.000 A 
ATOM     29  C   UNL     1       2.578   5.946  18.730  0.00  0.00    +0.000 A 
ATOM     30  C   UNL     1       2.211   4.855  19.515  0.00  0.00    +0.000 A 
ATOM     31  C   UNL     1       2.685   3.579  19.215  0.00  0.00    +0.000 A 
BRANCH  26  33
ATOM     32  C   UNL     1       3.523   1.051  18.446  0.00  0.00    +0.000 C 
ATOM     33  O   UNL     1       4.026   2.169  17.730  0.00  0.00    +0.000 OA
ENDBRANCH  26  33
ENDBRANCH   1  29
TORSDOF 4
ENDMDL
MODEL 9
REMARK VINA RESULT:      -7.0      2.394      3.520
REMARK  Name = 
REMARK  7 active torsions:
REMARK  status: ('A' for Active; 'I' for Inactive)
REMARK    1  A    between atoms: C_1  and  O_2
REMARK    2  A    between atoms: O_2  and  C_3
REMARK    3  A    between atoms: C_6  and  C_7
REMARK    4  A    between atoms: N_12  and  C_13
REMARK    5  A    between atoms: N_19  and  C_20
REMARK    6  A    between atoms: N_19  and  C_21
REMARK    7  A    between atoms: N_24  and  C_25
REMARK                            x       y       z     vdW  Elec       q    Type
REMARK                         _______ _______ _______ _____ _____    ______ ____
ROOT
ATOM      1  C   UNL     1       2.325   7.549  18.952  0.00  0.00    +0.000 A 
ATOM      2  C   UNL     1       1.896   7.577  20.277  0.00  0.00    +0.000 A 
ATOM      3  C   UNL     1       1.176   8.767  20.564  0.00  0.00    +0.000 A 
ATOM      4  N   UNL     1       0.651   9.157  21.792  0.00  0.00    +0.000 NA
ATOM      5  C   UNL     1       0.091  10.338  21.776  0.00  0.00    +0.000 A 
ATOM      6  N   UNL     1      -0.058  11.194  20.693  0.00  0.00    +0.000 N 
ATOM      7  C   UNL     1       0.264  10.741  19.426  0.00  0.00    +0.000 A 
ATOM      8  O   UNL     1      -0.122  11.300  18.389  0.00  0.00    +0.000 OA
ATOM      9  C   UNL     1       1.015   9.540  19.446  0.00  0.00    +0.000 A 
ATOM     10  S   UNL     1       1.801   8.951  18.096  0.00  0.00    +0.000 S 
ENDROOT
BRANCH   6  11
ATOM     11  C   UNL     1      -0.755  12.484  20.784  0.00  0.00    +0.000 C 
ATOM     12  C   UNL     1      -2.269  12.348  20.867  0.00  0.00    +0.000 C 
ATOM     13  C   UNL     1      -2.697  13.662  21.486  0.00  0.00    +0.000 C 
ATOM     14  N   UNL     1      -1.632  14.008  22.416  0.00  0.00    +0.000 N 
ATOM     15  C   UNL     1      -1.562  14.765  23.567  0.00  0.00    +0.000 C 
ATOM     16  O   UNL     1      -0.454  14.916  24.107  0.00  0.00    +0.000 OA
ATOM     17  N   UNL     1      -2.690  15.315  24.148  0.00  0.00    +0.000 N 
ATOM     18  C   UNL     1      -4.050  15.229  23.657  0.00  0.00    +0.000 C 
ATOM     19  C   UNL     1      -0.410  13.327  22.014  0.00  0.00    +0.000 C 
BRANCH  17  20
ATOM     20  C   UNL     1      -2.489  16.111  25.383  0.00  0.00    +0.000 C 
ATOM     21  C   UNL     1      -1.266  15.623  26.163  0.00  0.00    +0.000 C 
ATOM     22  C   UNL     1      -0.772  16.876  26.863  0.00  0.00    +0.000 C 
ATOM     23  N   UNL     1      -1.004  17.979  25.917  0.00  0.00    +0.000 NA
ATOM     24  C   UNL     1       0.117  18.142  24.992  0.00  0.00    +0.000 C 
ATOM     25  C   UNL     1      -2.252  17.630  25.210  0.00  0.00    +0.000 C 
ENDBRANCH  17  20
ENDBRANCH   6  11
BRANCH   1  29
ATOM     26  C   UNL     1       4.623   4.749  16.692  0.00  0.00    +0.000 A 
ATOM     27  C   UNL     1       3.604   4.298  17.526  0.00  0.00    +0.000 A 
ATOM     28  C   UNL     1       2.866   5.208  18.276  0.00  0.00    +0.000 A 
ATOM     29  C   UNL     1       3.152   6.584  18.218  0.00  0.00    +0.000 A 
ATOM     30  C   UNL     1       4.182   7.021  17.390  0.00  0.00    +0.000 A 
ATOM     31  C   UNL     1       4.909   6.110  16.627  0.00  0.00    +0.000 A 
BRANCH  26  33
ATOM     32  C   UNL     1       6.113   4.243  14.949  0.00  0.00    +0.000 C 
ATOM     33  O   UNL     1       5.283   3.773  15.999  0.00  0.00    +0.000 OA
ENDBRANCH  26  33
ENDBRANCH   1  29
TORSDOF 4
ENDMDL
