MODEL 1
REMARK VINA RESULT:      -7.3      0.000      0.000
REMARK  Name = 
REMARK  5 active torsions:
REMARK  status: ('A' for Active; 'I' for Inactive)
REMARK    1  A    between atoms: C_1  and  S_2
REMARK    2  A    between atoms: S_2  and  C_3
REMARK    3  A    between atoms: C_7  and  N_8
REMARK    4  A    between atoms: C_11  and  C_12
REMARK    5  A    between atoms: C_16  and  O_17
REMARK                            x       y       z     vdW  Elec       q    Type
REMARK                         _______ _______ _______ _____ _____    ______ ____
ROOT
ATOM      1  N   UNL     1       1.355   6.447  21.071  0.00  0.00    +0.000 N 
ATOM      2  C   UNL     1       2.110   5.636  20.288  0.00  0.00    +0.000 A 
ATOM      3  N   UNL     1       3.141   5.978  19.550  0.00  0.00    +0.000 NA
ATOM      4  C   UNL     1       3.577   4.928  18.773  0.00  0.00    +0.000 A 
ATOM      5  C   UNL     1       2.901   3.743  18.973  0.00  0.00    +0.000 A 
ATOM      6  S   UNL     1       1.697   3.959  20.173  0.00  0.00    +0.000 S 
ATOM      7  H   UNL     1       0.572   6.002  21.534  0.00  0.00    +0.000 HD
ENDROOT
BRANCH   4   8
ATOM      8  C   UNL     1       4.664   5.117  17.825  0.00  0.00    +0.000 A 
ATOM      9  C   UNL     1       5.611   6.126  18.053  0.00  0.00    +0.000 A 
ATOM     10  C   UNL     1       6.647   6.341  17.142  0.00  0.00    +0.000 A 
ATOM     11 CL   UNL     1       7.807   7.578  17.456  0.00  0.00    +0.000 Cl
ATOM     12  C   UNL     1       6.745   5.559  15.987  0.00  0.00    +0.000 A 
ATOM     13  C   UNL     1       5.799   4.560  15.751  0.00  0.00    +0.000 A 
ATOM     14 CL   UNL     1       5.861   3.579  14.331  0.00  0.00    +0.000 Cl
ATOM     15  C   UNL     1       4.765   4.339  16.665  0.00  0.00    +0.000 A 
BRANCH  12  16
ATOM     16  O   UNL     1       7.756   5.768  15.085  0.00  0.00    +0.000 OA
ATOM     17  H   UNL     1       8.592   5.489  15.504  0.00  0.00    +0.000 HD
ENDBRANCH  12  16
ENDBRANCH   4   8
BRANCH   1  22
ATOM     18  C   UNL     1       1.323   9.929  19.629  0.00  0.00    +0.000 A 
ATOM     19  C   UNL     1       0.761  10.622  20.702  0.00  0.00    +0.000 A 
ATOM     20  C   UNL     1       0.446   9.951  21.885  0.00  0.00    +0.000 A 
ATOM     21  C   UNL     1       0.675   8.578  21.999  0.00  0.00    +0.000 A 
ATOM     22  C   UNL     1       1.205   7.844  20.928  0.00  0.00    +0.000 A 
ATOM     23  C   UNL     1       1.542   8.548  19.762  0.00  0.00    +0.000 A 
BRANCH  18  25
ATOM     24  C   UNL     1       1.990  12.411  18.445  0.00  0.00    +0.000 C 
ATOM     25  S   UNL     1       1.787  10.655  18.059  0.00  0.00    +0.000 S 
ENDBRANCH  18  25
ENDBRANCH   1  22
TORSDOF 4
ENDMDL
MODEL 2
REMARK VINA RESULT:      -7.3      3.907      7.237
REMARK  Name = 
REMARK  5 active torsions:
REMARK  status: ('A' for Active; 'I' for Inactive)
REMARK    1  A    between atoms: C_1  and  S_2
REMARK    2  A    between atoms: S_2  and  C_3
REMARK    3  A    between atoms: C_7  and  N_8
REMARK    4  A    between atoms: C_11  and  C_12
REMARK    5  A    between atoms: C_16  and  O_17
REMARK                            x       y       z     vdW  Elec       q    Type
REMARK                         _______ _______ _______ _____ _____    ______ ____
ROOT
ATOM      1  N   UNL     1       4.393   3.297  18.222  0.00  0.00    +0.000 N 
ATOM      2  C   UNL     1       3.537   3.974  19.028  0.00  0.00    +0.000 A 
ATOM      3  N   UNL     1       3.134   5.217  18.895  0.00  0.00    +0.000 NA
ATOM      4  C   UNL     1       2.380   5.623  19.974  0.00  0.00    +0.000 A 
ATOM      5  C   UNL     1       2.153   4.645  20.919  0.00  0.00    +0.000 A 
ATOM      6  S   UNL     1       2.898   3.182  20.428  0.00  0.00    +0.000 S 
ATOM      7  H   UNL     1       4.614   2.354  18.515  0.00  0.00    +0.000 HD
ENDROOT
BRANCH   4   8
ATOM      8  C   UNL     1       1.899   6.993  20.061  0.00  0.00    +0.000 A 
ATOM      9  C   UNL     1       1.169   7.397  21.188  0.00  0.00    +0.000 A 
ATOM     10  C   UNL     1       0.675   8.700  21.279  0.00  0.00    +0.000 A 
ATOM     11 CL   UNL     1      -0.205   9.175  22.684  0.00  0.00    +0.000 Cl
ATOM     12  C   UNL     1       0.894   9.612  20.242  0.00  0.00    +0.000 A 
ATOM     13  C   UNL     1       1.610   9.211  19.114  0.00  0.00    +0.000 A 
ATOM     14 CL   UNL     1       1.891  10.289  17.795  0.00  0.00    +0.000 Cl
ATOM     15  C   UNL     1       2.112   7.909  19.023  0.00  0.00    +0.000 A 
BRANCH  12  16
ATOM     16  O   UNL     1       0.406  10.891  20.321  0.00  0.00    +0.000 OA
ATOM     17  H   UNL     1       0.372  11.253  19.415  0.00  0.00    +0.000 HD
ENDBRANCH  12  16
ENDBRANCH   4   8
BRANCH   1  22
ATOM     18  C   UNL     1       6.336   4.296  15.152  0.00  0.00    +0.000 A 
ATOM     19  C   UNL     1       7.284   5.137  15.737  0.00  0.00    +0.000 A 
ATOM     20  C   UNL     1       7.298   5.325  17.120  0.00  0.00    +0.000 A 
ATOM     21  C   UNL     1       6.353   4.687  17.928  0.00  0.00    +0.000 A 
ATOM     22  C   UNL     1       5.365   3.865  17.370  0.00  0.00    +0.000 A 
ATOM     23  C   UNL     1       5.393   3.667  15.981  0.00  0.00    +0.000 A 
BRANCH  18  25
ATOM     24  C   UNL     1       7.550   4.914  12.672  0.00  0.00    +0.000 C 
ATOM     25  S   UNL     1       6.203   3.950  13.399  0.00  0.00    +0.000 S 
ENDBRANCH  18  25
ENDBRANCH   1  22
TORSDOF 4
ENDMDL
MODEL 3
REMARK VINA RESULT:      -7.3      3.887      7.278
REMARK  Name = 
REMARK  5 active torsions:
REMARK  status: ('A' for Active; 'I' for Inactive)
REMARK    1  A    between atoms: C_1  and  S_2
REMARK    2  A    between atoms: S_2  and  C_3
REMARK    3  A    between atoms: C_7  and  N_8
REMARK    4  A    between atoms: C_11  and  C_12
REMARK    5  A    between atoms: C_16  and  O_17
REMARK                            x       y       z     vdW  Elec       q    Type
REMARK                         _______ _______ _______ _____ _____    ______ ____
ROOT
ATOM      1  N   UNL     1       4.441   3.285  18.239  0.00  0.00    +0.000 N 
ATOM      2  C   UNL     1       3.575   3.946  19.048  0.00  0.00    +0.000 A 
ATOM      3  N   UNL     1       3.142   5.178  18.911  0.00  0.00    +0.000 NA
ATOM      4  C   UNL     1       2.387   5.572  19.994  0.00  0.00    +0.000 A 
ATOM      5  C   UNL     1       2.189   4.593  20.945  0.00  0.00    +0.000 A 
ATOM      6  S   UNL     1       2.966   3.146  20.457  0.00  0.00    +0.000 S 
ATOM      7  H   UNL     1       4.687   2.349  18.535  0.00  0.00    +0.000 HD
ENDROOT
BRANCH   4   8
ATOM      8  C   UNL     1       1.873   6.930  20.078  0.00  0.00    +0.000 A 
ATOM      9  C   UNL     1       2.088   7.815  19.012  0.00  0.00    +0.000 A 
ATOM     10  C   UNL     1       1.626   9.131  19.083  0.00  0.00    +0.000 A 
ATOM     11 CL   UNL     1       1.889  10.193  17.750  0.00  0.00    +0.000 Cl
ATOM     12  C   UNL     1       0.954   9.582  20.223  0.00  0.00    +0.000 A 
ATOM     13  C   UNL     1       0.747   8.708  21.290  0.00  0.00    +0.000 A 
ATOM     14 CL   UNL     1      -0.059   9.219  22.729  0.00  0.00    +0.000 Cl
ATOM     15  C   UNL     1       1.203   7.388  21.219  0.00  0.00    +0.000 A 
BRANCH  12  16
ATOM     16  O   UNL     1       0.503  10.875  20.303  0.00  0.00    +0.000 OA
ATOM     17  H   UNL     1       0.994  11.318  21.020  0.00  0.00    +0.000 HD
ENDBRANCH  12  16
ENDBRANCH   4   8
BRANCH   1  22
ATOM     18  C   UNL     1       6.343   4.307  15.150  0.00  0.00    +0.000 A 
ATOM     19  C   UNL     1       7.268   5.181  15.722  0.00  0.00    +0.000 A 
ATOM     20  C   UNL     1       7.283   5.383  17.104  0.00  0.00    +0.000 A 
ATOM     21  C   UNL     1       6.360   4.728  17.922  0.00  0.00    +0.000 A 
ATOM     22  C   UNL     1       5.393   3.872  17.377  0.00  0.00    +0.000 A 
ATOM     23  C   UNL     1       5.421   3.660  15.990  0.00  0.00    +0.000 A 
BRANCH  18  25
ATOM     24  C   UNL     1       7.555   4.902  12.663  0.00  0.00    +0.000 C 
ATOM     25  S   UNL     1       6.212   3.940  13.402  0.00  0.00    +0.000 S 
ENDBRANCH  18  25
ENDBRANCH   1  22
TORSDOF 4
ENDMDL
MODEL 4
REMARK VINA RESULT:      -7.2      0.132      1.897
REMARK  Name = 
REMARK  5 active torsions:
REMARK  status: ('A' for Active; 'I' for Inactive)
REMARK    1  A    between atoms: C_1  and  S_2
REMARK    2  A    between atoms: S_2  and  C_3
REMARK    3  A    between atoms: C_7  and  N_8
REMARK    4  A    between atoms: C_11  and  C_12
REMARK    5  A    between atoms: C_16  and  O_17
REMARK                            x       y       z     vdW  Elec       q    Type
REMARK                         _______ _______ _______ _____ _____    ______ ____
ROOT
ATOM      1  N   UNL     1       1.313   6.456  21.042  0.00  0.00    +0.000 N 
ATOM      2  C   UNL     1       2.054   5.665  20.225  0.00  0.00    +0.000 A 
ATOM      3  N   UNL     1       3.090   6.020  19.501  0.00  0.00    +0.000 NA
ATOM      4  C   UNL     1       3.508   4.996  18.680  0.00  0.00    +0.000 A 
ATOM      5  C   UNL     1       2.812   3.815  18.831  0.00  0.00    +0.000 A 
ATOM      6  S   UNL     1       1.612   4.002  20.040  0.00  0.00    +0.000 S 
ATOM      7  H   UNL     1       0.523   6.005  21.486  0.00  0.00    +0.000 HD
ENDROOT
BRANCH   4   8
ATOM      8  C   UNL     1       4.598   5.206  17.740  0.00  0.00    +0.000 A 
ATOM      9  C   UNL     1       4.682   4.406  16.591  0.00  0.00    +0.000 A 
ATOM     10  C   UNL     1       5.735   4.573  15.690  0.00  0.00    +0.000 A 
ATOM     11 CL   UNL     1       5.803   3.587  14.277  0.00  0.00    +0.000 Cl
ATOM     12  C   UNL     1       6.722   5.533  15.928  0.00  0.00    +0.000 A 
ATOM     13  C   UNL     1       6.649   6.324  17.075  0.00  0.00    +0.000 A 
ATOM     14 CL   UNL     1       7.853   7.510  17.430  0.00  0.00    +0.000 Cl
ATOM     15  C   UNL     1       5.593   6.163  17.977  0.00  0.00    +0.000 A 
BRANCH  12  16
ATOM     16  O   UNL     1       7.763   5.699  15.051  0.00  0.00    +0.000 OA
ATOM     17  H   UNL     1       7.892   6.658  14.920  0.00  0.00    +0.000 HD
ENDBRANCH  12  16
ENDBRANCH   4   8
BRANCH   1  22
ATOM     18  C   UNL     1       1.306   9.991  19.737  0.00  0.00    +0.000 A 
ATOM     19  C   UNL     1       0.792  10.652  20.853  0.00  0.00    +0.000 A 
ATOM     20  C   UNL     1       0.501   9.941  22.019  0.00  0.00    +0.000 A 
ATOM     21  C   UNL     1       0.705   8.561  22.072  0.00  0.00    +0.000 A 
ATOM     22  C   UNL     1       1.186   7.860  20.958  0.00  0.00    +0.000 A 
ATOM     23  C   UNL     1       1.501   8.602  19.810  0.00  0.00    +0.000 A 
BRANCH  18  25
ATOM     24  C   UNL     1       1.691  12.537  18.563  0.00  0.00    +0.000 C 
ATOM     25  S   UNL     1       1.736  10.769  18.182  0.00  0.00    +0.000 S 
ENDBRANCH  18  25
ENDBRANCH   1  22
TORSDOF 4
ENDMDL
MODEL 5
REMARK VINA RESULT:      -7.2      1.238      1.977
REMARK  Name = 
REMARK  5 active torsions:
REMARK  status: ('A' for Active; 'I' for Inactive)
REMARK    1  A    between atoms: C_1  and  S_2
REMARK    2  A    between atoms: S_2  and  C_3
REMARK    3  A    between atoms: C_7  and  N_8
REMARK    4  A    between atoms: C_11  and  C_12
REMARK    5  A    between atoms: C_16  and  O_17
REMARK                            x       y       z     vdW  Elec       q    Type
REMARK                         _______ _______ _______ _____ _____    ______ ____
ROOT
ATOM      1  N   UNL     1       1.334   7.228  20.884  0.00  0.00    +0.000 N 
ATOM      2  C   UNL     1       2.140   6.315  20.287  0.00  0.00    +0.000 A 
ATOM      3  N   UNL     1       3.141   6.551  19.471  0.00  0.00    +0.000 NA
ATOM      4  C   UNL     1       3.646   5.385  18.939  0.00  0.00    +0.000 A 
ATOM      5  C   UNL     1       3.055   4.232  19.412  0.00  0.00    +0.000 A 
ATOM      6  S   UNL     1       1.845   4.631  20.558  0.00  0.00    +0.000 S 
ATOM      7  H   UNL     1       0.587   6.847  21.451  0.00  0.00    +0.000 HD
ENDROOT
BRANCH   4   8
ATOM      8  C   UNL     1       4.713   5.428  17.950  0.00  0.00    +0.000 A 
ATOM      9  C   UNL     1       5.711   6.408  18.055  0.00  0.00    +0.000 A 
ATOM     10  C   UNL     1       6.728   6.484  17.102  0.00  0.00    +0.000 A 
ATOM     11 CL   UNL     1       7.952   7.687  17.266  0.00  0.00    +0.000 Cl
ATOM     12  C   UNL     1       6.757   5.590  16.028  0.00  0.00    +0.000 A 
ATOM     13  C   UNL     1       5.760   4.620  15.913  0.00  0.00    +0.000 A 
ATOM     14 CL   UNL     1       5.735   3.505  14.595  0.00  0.00    +0.000 Cl
ATOM     15  C   UNL     1       4.743   4.538  16.870  0.00  0.00    +0.000 A 
BRANCH  12  16
ATOM     16  O   UNL     1       7.750   5.662  15.085  0.00  0.00    +0.000 OA
ATOM     17  H   UNL     1       8.603   5.530  15.540  0.00  0.00    +0.000 HD
ENDBRANCH  12  16
ENDBRANCH   4   8
BRANCH   1  22
ATOM     18  C   UNL     1       0.306  10.852  20.774  0.00  0.00    +0.000 A 
ATOM     19  C   UNL     1       0.738  11.180  19.489  0.00  0.00    +0.000 A 
ATOM     20  C   UNL     1       1.313  10.205  18.670  0.00  0.00    +0.000 A 
ATOM     21  C   UNL     1       1.476   8.900  19.138  0.00  0.00    +0.000 A 
ATOM     22  C   UNL     1       1.087   8.545  20.437  0.00  0.00    +0.000 A 
ATOM     23  C   UNL     1       0.482   9.534  21.227  0.00  0.00    +0.000 A 
BRANCH  18  25
ATOM     24  C   UNL     1      -1.253  10.900  23.135  0.00  0.00    +0.000 C 
ATOM     25  S   UNL     1      -0.457  11.989  21.930  0.00  0.00    +0.000 S 
ENDBRANCH  18  25
ENDBRANCH   1  22
TORSDOF 4
ENDMDL
MODEL 6
REMARK VINA RESULT:      -7.2      5.512      8.511
REMARK  Name = 
REMARK  5 active torsions:
REMARK  status: ('A' for Active; 'I' for Inactive)
REMARK    1  A    between atoms: C_1  and  S_2
REMARK    2  A    between atoms: S_2  and  C_3
REMARK    3  A    between atoms: C_7  and  N_8
REMARK    4  A    between atoms: C_11  and  C_12
REMARK    5  A    between atoms: C_16  and  O_17
REMARK                            x       y       z     vdW  Elec       q    Type
REMARK                         _______ _______ _______ _____ _____    ______ ____
ROOT
ATOM      1  N   UNL     1       1.727   8.263  20.885  0.00  0.00    +0.000 N 
ATOM      2  C   UNL     1       0.896   9.297  20.596  0.00  0.00    +0.000 A 
ATOM      3  N   UNL     1      -0.143   9.281  19.794  0.00  0.00    +0.000 NA
ATOM      4  C   UNL     1      -0.669  10.543  19.624  0.00  0.00    +0.000 A 
ATOM      5  C   UNL     1      -0.054  11.529  20.365  0.00  0.00    +0.000 A 
ATOM      6  S   UNL     1       1.209  10.846  21.301  0.00  0.00    +0.000 S 
ATOM      7  H   UNL     1       2.502   8.484  21.498  0.00  0.00    +0.000 HD
ENDROOT
BRANCH   4   8
ATOM      8  C   UNL     1      -1.781  10.759  18.711  0.00  0.00    +0.000 A 
ATOM      9  C   UNL     1      -2.914  11.456  19.157  0.00  0.00    +0.000 A 
ATOM     10  C   UNL     1      -4.003  11.651  18.306  0.00  0.00    +0.000 A 
ATOM     11 CL   UNL     1      -5.375  12.526  18.875  0.00  0.00    +0.000 Cl
ATOM     12  C   UNL     1      -3.980  11.144  17.003  0.00  0.00    +0.000 A 
ATOM     13  C   UNL     1      -2.859  10.441  16.558  0.00  0.00    +0.000 A 
ATOM     14 CL   UNL     1      -2.787   9.776  14.967  0.00  0.00    +0.000 Cl
ATOM     15  C   UNL     1      -1.765  10.250  17.407  0.00  0.00    +0.000 A 
BRANCH  12  16
ATOM     16  O   UNL     1      -5.048  11.326  16.163  0.00  0.00    +0.000 OA
ATOM     17  H   UNL     1      -5.014  10.628  15.481  0.00  0.00    +0.000 HD
ENDBRANCH  12  16
ENDBRANCH   4   8
BRANCH   1  22
ATOM     18  C   UNL     1       1.762   4.713  19.620  0.00  0.00    +0.000 A 
ATOM     19  C   UNL     1       2.335   4.917  18.365  0.00  0.00    +0.000 A 
ATOM     20  C   UNL     1       2.738   6.196  17.975  0.00  0.00    +0.000 A 
ATOM     21  C   UNL     1       2.555   7.284  18.831  0.00  0.00    +0.000 A 
ATOM     22  C   UNL     1       1.950   7.121  20.085  0.00  0.00    +0.000 A 
ATOM     23  C   UNL     1       1.584   5.821  20.465  0.00  0.00    +0.000 A 
BRANCH  18  25
ATOM     24  C   UNL     1       2.186   2.920  21.768  0.00  0.00    +0.000 C 
ATOM     25  S   UNL     1       1.208   3.134  20.261  0.00  0.00    +0.000 S 
ENDBRANCH  18  25
ENDBRANCH   1  22
TORSDOF 4
ENDMDL
MODEL 7
REMARK VINA RESULT:      -7.2      1.298      2.613
REMARK  Name = 
REMARK  5 active torsions:
REMARK  status: ('A' for Active; 'I' for Inactive)
REMARK    1  A    between atoms: C_1  and  S_2
REMARK    2  A    between atoms: S_2  and  C_3
REMARK    3  A    between atoms: C_7  and  N_8
REMARK    4  A    between atoms: C_11  and  C_12
REMARK    5  A    between atoms: C_16  and  O_17
REMARK                            x       y       z     vdW  Elec       q    Type
REMARK                         _______ _______ _______ _____ _____    ______ ____
ROOT
ATOM      1  N   UNL     1       1.463   6.316  21.028  0.00  0.00    +0.000 N 
ATOM      2  C   UNL     1       2.274   5.539  20.266  0.00  0.00    +0.000 A 
ATOM      3  N   UNL     1       3.242   5.939  19.474  0.00  0.00    +0.000 NA
ATOM      4  C   UNL     1       3.762   4.892  18.743  0.00  0.00    +0.000 A 
ATOM      5  C   UNL     1       3.218   3.660  19.035  0.00  0.00    +0.000 A 
ATOM      6  S   UNL     1       2.034   3.825  20.263  0.00  0.00    +0.000 S 
ATOM      7  H   UNL     1       0.745   5.822  21.543  0.00  0.00    +0.000 HD
ENDROOT
BRANCH   4   8
ATOM      8  C   UNL     1       4.795   5.132  17.748  0.00  0.00    +0.000 A 
ATOM      9  C   UNL     1       4.851   4.325  16.603  0.00  0.00    +0.000 A 
ATOM     10  C   UNL     1       5.851   4.521  15.649  0.00  0.00    +0.000 A 
ATOM     11 CL   UNL     1       5.885   3.524  14.242  0.00  0.00    +0.000 Cl
ATOM     12  C   UNL     1       6.813   5.519  15.830  0.00  0.00    +0.000 A 
ATOM     13  C   UNL     1       6.768   6.318  16.973  0.00  0.00    +0.000 A 
ATOM     14 CL   UNL     1       7.943   7.551  17.256  0.00  0.00    +0.000 Cl
ATOM     15  C   UNL     1       5.764   6.128  17.927  0.00  0.00    +0.000 A 
BRANCH  12  16
ATOM     16  O   UNL     1       7.802   5.714  14.899  0.00  0.00    +0.000 OA
ATOM     17  H   UNL     1       8.222   4.851  14.725  0.00  0.00    +0.000 HD
ENDBRANCH  12  16
ENDBRANCH   4   8
BRANCH   1  22
ATOM     18  C   UNL     1       0.209   9.838  21.496  0.00  0.00    +0.000 A 
ATOM     19  C   UNL     1       0.720  10.426  20.339  0.00  0.00    +0.000 A 
ATOM     20  C   UNL     1       1.421   9.654  19.410  0.00  0.00    +0.000 A 
ATOM     21  C   UNL     1       1.633   8.293  19.641  0.00  0.00    +0.000 A 
ATOM     22  C   UNL     1       1.165   7.679  20.811  0.00  0.00    +0.000 A 
ATOM     23  C   UNL     1       0.436   8.469  21.712  0.00  0.00    +0.000 A 
BRANCH  18  25
ATOM     24  C   UNL     1      -0.974  12.344  22.069  0.00  0.00    +0.000 C 
ATOM     25  S   UNL     1      -0.717  10.695  22.768  0.00  0.00    +0.000 S 
ENDBRANCH  18  25
ENDBRANCH   1  22
TORSDOF 4
ENDMDL
MODEL 8
REMARK VINA RESULT:      -7.1      5.538      8.682
REMARK  Name = 
REMARK  5 active torsions:
REMARK  status: ('A' for Active; 'I' for Inactive)
REMARK    1  A    between atoms: C_1  and  S_2
REMARK    2  A    between atoms: S_2  and  C_3
REMARK    3  A    between atoms: C_7  and  N_8
REMARK    4  A    between atoms: C_11  and  C_12
REMARK    5  A    between atoms: C_16  and  O_17
REMARK                            x       y       z     vdW  Elec       q    Type
REMARK                         _______ _______ _______ _____ _____    ______ ____
ROOT
ATOM      1  N   UNL     1       1.707   8.439  20.899  0.00  0.00    +0.000 N 
ATOM      2  C   UNL     1       0.843   9.443  20.606  0.00  0.00    +0.000 A 
ATOM      3  N   UNL     1      -0.206   9.386  19.819  0.00  0.00    +0.000 NA
ATOM      4  C   UNL     1      -0.770  10.629  19.636  0.00  0.00    +0.000 A 
ATOM      5  C   UNL     1      -0.174  11.644  20.353  0.00  0.00    +0.000 A 
ATOM      6  S   UNL     1       1.121  11.012  21.283  0.00  0.00    +0.000 S 
ATOM      7  H   UNL     1       2.483   8.691  21.499  0.00  0.00    +0.000 HD
ENDROOT
BRANCH   4   8
ATOM      8  C   UNL     1      -1.901  10.799  18.736  0.00  0.00    +0.000 A 
ATOM      9  C   UNL     1      -1.831  10.278  17.436  0.00  0.00    +0.000 A 
ATOM     10  C   UNL     1      -2.894  10.454  16.548  0.00  0.00    +0.000 A 
ATOM     11 CL   UNL     1      -2.788   9.788  14.960  0.00  0.00    +0.000 Cl
ATOM     12  C   UNL     1      -4.035  11.158  16.943  0.00  0.00    +0.000 A 
ATOM     13  C   UNL     1      -4.104  11.687  18.233  0.00  0.00    +0.000 A 
ATOM     14 CL   UNL     1      -5.481  12.583  18.765  0.00  0.00    +0.000 Cl
ATOM     15  C   UNL     1      -3.044  11.507  19.126  0.00  0.00    +0.000 A 
BRANCH  12  16
ATOM     16  O   UNL     1      -5.081  11.339  16.074  0.00  0.00    +0.000 OA
ATOM     17  H   UNL     1      -5.835  10.813  16.402  0.00  0.00    +0.000 HD
ENDBRANCH  12  16
ENDBRANCH   4   8
BRANCH   1  22
ATOM     18  C   UNL     1       1.816   4.873  19.685  0.00  0.00    +0.000 A 
ATOM     19  C   UNL     1       2.378   5.072  18.423  0.00  0.00    +0.000 A 
ATOM     20  C   UNL     1       2.750   6.354  18.014  0.00  0.00    +0.000 A 
ATOM     21  C   UNL     1       2.546   7.449  18.855  0.00  0.00    +0.000 A 
ATOM     22  C   UNL     1       1.951   7.291  20.114  0.00  0.00    +0.000 A 
ATOM     23  C   UNL     1       1.617   5.989  20.515  0.00  0.00    +0.000 A 
BRANCH  18  25
ATOM     24  C   UNL     1       0.987   2.292  18.875  0.00  0.00    +0.000 C 
ATOM     25  S   UNL     1       1.302   3.291  20.350  0.00  0.00    +0.000 S 
ENDBRANCH  18  25
ENDBRANCH   1  22
TORSDOF 4
ENDMDL
MODEL 9
REMARK VINA RESULT:      -7.1      4.430      5.864
REMARK  Name = 
REMARK  5 active torsions:
REMARK  status: ('A' for Active; 'I' for Inactive)
REMARK    1  A    between atoms: C_1  and  S_2
REMARK    2  A    between atoms: S_2  and  C_3
REMARK    3  A    between atoms: C_7  and  N_8
REMARK    4  A    between atoms: C_11  and  C_12
REMARK    5  A    between atoms: C_16  and  O_17
REMARK                            x       y       z     vdW  Elec       q    Type
REMARK                         _______ _______ _______ _____ _____    ______ ____
ROOT
ATOM      1  N   UNL     1      -1.172  11.326  19.678  0.00  0.00    +0.000 N 
ATOM      2  C   UNL     1      -0.267  10.482  20.235  0.00  0.00    +0.000 A 
ATOM      3  N   UNL     1       0.306   9.445  19.671  0.00  0.00    +0.000 NA
ATOM      4  C   UNL     1       1.061   8.730  20.575  0.00  0.00    +0.000 A 
ATOM      5  C   UNL     1       1.113   9.274  21.840  0.00  0.00    +0.000 A 
ATOM      6  S   UNL     1       0.197  10.722  21.885  0.00  0.00    +0.000 S 
ATOM      7  H   UNL     1      -1.532  12.047  20.290  0.00  0.00    +0.000 HD
ENDROOT
BRANCH   4   8
ATOM      8  C   UNL     1       1.721   7.498  20.170  0.00  0.00    +0.000 A 
ATOM      9  C   UNL     1       2.519   7.489  19.017  0.00  0.00    +0.000 A 
ATOM     10  C   UNL     1       3.138   6.311  18.597  0.00  0.00    +0.000 A 
ATOM     11 CL   UNL     1       4.128   6.333  17.184  0.00  0.00    +0.000 Cl
ATOM     12  C   UNL     1       2.962   5.125  19.316  0.00  0.00    +0.000 A 
ATOM     13  C   UNL     1       2.161   5.127  20.459  0.00  0.00    +0.000 A 
ATOM     14 CL   UNL     1       1.893   3.687  21.372  0.00  0.00    +0.000 Cl
ATOM     15  C   UNL     1       1.544   6.307  20.885  0.00  0.00    +0.000 A 
BRANCH  12  16
ATOM     16  O   UNL     1       3.564   3.963  18.907  0.00  0.00    +0.000 OA
ATOM     17  H   UNL     1       3.509   3.324  19.642  0.00  0.00    +0.000 HD
ENDBRANCH  12  16
ENDBRANCH   4   8
BRANCH   1  22
ATOM     18  C   UNL     1      -4.094  11.337  17.298  0.00  0.00    +0.000 A 
ATOM     19  C   UNL     1      -3.595  10.490  16.309  0.00  0.00    +0.000 A 
ATOM     20  C   UNL     1      -2.338   9.899  16.458  0.00  0.00    +0.000 A 
ATOM     21  C   UNL     1      -1.565  10.164  17.590  0.00  0.00    +0.000 A 
ATOM     22  C   UNL     1      -2.020  11.039  18.586  0.00  0.00    +0.000 A 
ATOM     23  C   UNL     1      -3.299  11.594  18.428  0.00  0.00    +0.000 A 
BRANCH  18  25
ATOM     24  C   UNL     1      -6.742  11.093  18.267  0.00  0.00    +0.000 C 
ATOM     25  S   UNL     1      -5.687  12.155  17.251  0.00  0.00    +0.000 S 
ENDBRANCH  18  25
ENDBRANCH   1  22
TORSDOF 4
ENDMDL
