MODEL 1
REMARK VINA RESULT:      -6.9      0.000      0.000
REMARK  Name = 
REMARK  3 active torsions:
REMARK  status: ('A' for Active; 'I' for Inactive)
REMARK    1  A    between atoms: C_7  and  C_8
REMARK    2  A    between atoms: C_11  and  O_12
REMARK    3  A    between atoms: O_12  and  C_13
REMARK                            x       y       z     vdW  Elec       q    Type
REMARK                         _______ _______ _______ _____ _____    ______ ____
ROOT
ATOM      1  C   UNL     1       7.362   4.847  17.959  0.00  0.00    +0.000 C 
ATOM      2  C   UNL     1       6.867   4.725  16.729  0.00  0.00    +0.000 C 
ATOM      3  N   UNL     1       7.584   4.913  15.590  0.00  0.00    +0.000 N 
ATOM      4  C   UNL     1       6.814   4.698  14.470  0.00  0.00    +0.000 C 
ATOM      5  O   UNL     1       7.147   4.788  13.304  0.00  0.00    +0.000 OA
ATOM      6  C   UNL     1       5.469   4.346  14.963  0.00  0.00    +0.000 C 
ATOM      7  C   UNL     1       5.528   4.378  16.305  0.00  0.00    +0.000 C 
ATOM      8  H   UNL     1       8.555   5.177  15.537  0.00  0.00    +0.000 HD
ENDROOT
BRANCH   7   9
ATOM      9  C   UNL     1       4.339   4.163  17.131  0.00  0.00    +0.000 A 
ATOM     10  C   UNL     1       3.911   2.875  17.460  0.00  0.00    +0.000 A 
ATOM     11  C   UNL     1       2.761   2.697  18.236  0.00  0.00    +0.000 A 
ATOM     12  C   UNL     1       2.042   3.798  18.708  0.00  0.00    +0.000 A 
ATOM     13  C   UNL     1       2.463   5.084  18.375  0.00  0.00    +0.000 A 
ATOM     14  C   UNL     1       3.608   5.265  17.592  0.00  0.00    +0.000 A 
BRANCH  12  15
ATOM     15  O   UNL     1       0.927   3.500  19.442  0.00  0.00    +0.000 OA
ATOM     16  C   UNL     1       1.139   3.313  20.837  0.00  0.00    +0.000 C 
ENDBRANCH  12  15
ENDBRANCH   7   9
TORSDOF 2
ENDMDL
MODEL 2
REMARK VINA RESULT:      -6.8      0.320      1.285
REMARK  Name = 
REMARK  3 active torsions:
REMARK  status: ('A' for Active; 'I' for Inactive)
REMARK    1  A    between atoms: C_7  and  C_8
REMARK    2  A    between atoms: C_11  and  O_12
REMARK    3  A    between atoms: O_12  and  C_13
REMARK                            x       y       z     vdW  Elec       q    Type
REMARK                         _______ _______ _______ _____ _____    ______ ____
ROOT
ATOM      1  C   UNL     1       7.411   4.745  17.805  0.00  0.00    +0.000 C 
ATOM      2  C   UNL     1       6.920   4.688  16.570  0.00  0.00    +0.000 C 
ATOM      3  N   UNL     1       7.647   4.902  15.442  0.00  0.00    +0.000 N 
ATOM      4  C   UNL     1       6.878   4.756  14.310  0.00  0.00    +0.000 C 
ATOM      5  O   UNL     1       7.219   4.884  13.151  0.00  0.00    +0.000 OA
ATOM      6  C   UNL     1       5.521   4.422  14.784  0.00  0.00    +0.000 C 
ATOM      7  C   UNL     1       5.574   4.397  16.126  0.00  0.00    +0.000 C 
ATOM      8  H   UNL     1       8.626   5.141  15.404  0.00  0.00    +0.000 HD
ENDROOT
BRANCH   7   9
ATOM      9  C   UNL     1       4.375   4.181  16.938  0.00  0.00    +0.000 A 
ATOM     10  C   UNL     1       3.660   5.255  17.470  0.00  0.00    +0.000 A 
ATOM     11  C   UNL     1       2.528   5.020  18.258  0.00  0.00    +0.000 A 
ATOM     12  C   UNL     1       2.089   3.717  18.503  0.00  0.00    +0.000 A 
ATOM     13  C   UNL     1       2.806   2.642  17.980  0.00  0.00    +0.000 A 
ATOM     14  C   UNL     1       3.943   2.874  17.199  0.00  0.00    +0.000 A 
BRANCH  12  15
ATOM     15  O   UNL     1       0.982   3.611  19.301  0.00  0.00    +0.000 OA
ATOM     16  C   UNL     1       1.066   4.266  20.561  0.00  0.00    +0.000 C 
ENDBRANCH  12  15
ENDBRANCH   7   9
TORSDOF 2
ENDMDL
MODEL 3
REMARK VINA RESULT:      -6.7      2.563      6.081
REMARK  Name = 
REMARK  3 active torsions:
REMARK  status: ('A' for Active; 'I' for Inactive)
REMARK    1  A    between atoms: C_7  and  C_8
REMARK    2  A    between atoms: C_11  and  O_12
REMARK    3  A    between atoms: O_12  and  C_13
REMARK                            x       y       z     vdW  Elec       q    Type
REMARK                         _______ _______ _______ _____ _____    ______ ____
ROOT
ATOM      1  C   UNL     1       2.437   6.446  19.663  0.00  0.00    +0.000 C 
ATOM      2  C   UNL     1       2.602   5.188  20.068  0.00  0.00    +0.000 C 
ATOM      3  N   UNL     1       1.897   4.604  21.072  0.00  0.00    +0.000 N 
ATOM      4  C   UNL     1       2.270   3.292  21.252  0.00  0.00    +0.000 C 
ATOM      5  O   UNL     1       1.841   2.497  22.065  0.00  0.00    +0.000 OA
ATOM      6  C   UNL     1       3.329   3.031  20.258  0.00  0.00    +0.000 C 
ATOM      7  C   UNL     1       3.511   4.174  19.577  0.00  0.00    +0.000 C 
ATOM      8  H   UNL     1       1.186   5.048  21.633  0.00  0.00    +0.000 HD
ENDROOT
BRANCH   7   9
ATOM      9  C   UNL     1       4.556   4.305  18.561  0.00  0.00    +0.000 A 
ATOM     10  C   UNL     1       4.349   3.868  17.251  0.00  0.00    +0.000 A 
ATOM     11  C   UNL     1       5.372   3.988  16.304  0.00  0.00    +0.000 A 
ATOM     12  C   UNL     1       6.598   4.562  16.648  0.00  0.00    +0.000 A 
ATOM     13  C   UNL     1       6.810   4.992  17.957  0.00  0.00    +0.000 A 
ATOM     14  C   UNL     1       5.792   4.866  18.909  0.00  0.00    +0.000 A 
BRANCH  12  15
ATOM     15  O   UNL     1       7.526   4.611  15.644  0.00  0.00    +0.000 OA
ATOM     16  C   UNL     1       7.009   4.834  14.338  0.00  0.00    +0.000 C 
ENDBRANCH  12  15
ENDBRANCH   7   9
TORSDOF 2
ENDMDL
MODEL 4
REMARK VINA RESULT:      -6.7      1.476      1.753
REMARK  Name = 
REMARK  3 active torsions:
REMARK  status: ('A' for Active; 'I' for Inactive)
REMARK    1  A    between atoms: C_7  and  C_8
REMARK    2  A    between atoms: C_11  and  O_12
REMARK    3  A    between atoms: O_12  and  C_13
REMARK                            x       y       z     vdW  Elec       q    Type
REMARK                         _______ _______ _______ _____ _____    ______ ____
ROOT
ATOM      1  C   UNL     1       4.675   6.986  16.982  0.00  0.00    +0.000 C 
ATOM      2  C   UNL     1       5.111   5.928  16.303  0.00  0.00    +0.000 C 
ATOM      3  N   UNL     1       5.910   5.994  15.206  0.00  0.00    +0.000 N 
ATOM      4  C   UNL     1       6.215   4.739  14.729  0.00  0.00    +0.000 C 
ATOM      5  O   UNL     1       6.897   4.450  13.766  0.00  0.00    +0.000 OA
ATOM      6  C   UNL     1       5.526   3.788  15.621  0.00  0.00    +0.000 C 
ATOM      7  C   UNL     1       4.873   4.520  16.539  0.00  0.00    +0.000 C 
ATOM      8  H   UNL     1       6.251   6.837  14.770  0.00  0.00    +0.000 HD
ENDROOT
BRANCH   7   9
ATOM      9  C   UNL     1       4.005   3.900  17.541  0.00  0.00    +0.000 A 
ATOM     10  C   UNL     1       4.441   3.703  18.853  0.00  0.00    +0.000 A 
ATOM     11  C   UNL     1       3.597   3.091  19.786  0.00  0.00    +0.000 A 
ATOM     12  C   UNL     1       2.308   2.691  19.426  0.00  0.00    +0.000 A 
ATOM     13  C   UNL     1       1.873   2.878  18.115  0.00  0.00    +0.000 A 
ATOM     14  C   UNL     1       2.718   3.483  17.177  0.00  0.00    +0.000 A 
BRANCH  12  15
ATOM     15  O   UNL     1       1.582   2.089  20.417  0.00  0.00    +0.000 OA
ATOM     16  C   UNL     1       1.647   2.715  21.694  0.00  0.00    +0.000 C 
ENDBRANCH  12  15
ENDBRANCH   7   9
TORSDOF 2
ENDMDL
MODEL 5
REMARK VINA RESULT:      -6.6      1.180      1.187
REMARK  Name = 
REMARK  3 active torsions:
REMARK  status: ('A' for Active; 'I' for Inactive)
REMARK    1  A    between atoms: C_7  and  C_8
REMARK    2  A    between atoms: C_11  and  O_12
REMARK    3  A    between atoms: O_12  and  C_13
REMARK                            x       y       z     vdW  Elec       q    Type
REMARK                         _______ _______ _______ _____ _____    ______ ____
ROOT
ATOM      1  C   UNL     1       7.812   4.916  18.134  0.00  0.00    +0.000 C 
ATOM      2  C   UNL     1       7.035   4.671  17.082  0.00  0.00    +0.000 C 
ATOM      3  N   UNL     1       7.465   4.665  15.792  0.00  0.00    +0.000 N 
ATOM      4  C   UNL     1       6.444   4.360  14.922  0.00  0.00    +0.000 C 
ATOM      5  O   UNL     1       6.492   4.279  13.710  0.00  0.00    +0.000 OA
ATOM      6  C   UNL     1       5.244   4.162  15.758  0.00  0.00    +0.000 C 
ATOM      7  C   UNL     1       5.622   4.360  17.031  0.00  0.00    +0.000 C 
ATOM      8  H   UNL     1       8.404   4.857  15.480  0.00  0.00    +0.000 HD
ENDROOT
BRANCH   7   9
ATOM      9  C   UNL     1       4.659   4.329  18.132  0.00  0.00    +0.000 A 
ATOM     10  C   UNL     1       4.338   3.134  18.779  0.00  0.00    +0.000 A 
ATOM     11  C   UNL     1       3.400   3.130  19.816  0.00  0.00    +0.000 A 
ATOM     12  C   UNL     1       2.791   4.316  20.231  0.00  0.00    +0.000 A 
ATOM     13  C   UNL     1       3.102   5.510  19.582  0.00  0.00    +0.000 A 
ATOM     14  C   UNL     1       4.034   5.516  18.538  0.00  0.00    +0.000 A 
BRANCH  12  15
ATOM     15  O   UNL     1       1.878   4.186  21.242  0.00  0.00    +0.000 OA
ATOM     16  C   UNL     1       1.509   2.851  21.570  0.00  0.00    +0.000 C 
ENDBRANCH  12  15
ENDBRANCH   7   9
TORSDOF 2
ENDMDL
MODEL 6
REMARK VINA RESULT:      -6.6      1.831      2.262
REMARK  Name = 
REMARK  3 active torsions:
REMARK  status: ('A' for Active; 'I' for Inactive)
REMARK    1  A    between atoms: C_7  and  C_8
REMARK    2  A    between atoms: C_11  and  O_12
REMARK    3  A    between atoms: O_12  and  C_13
REMARK                            x       y       z     vdW  Elec       q    Type
REMARK                         _______ _______ _______ _____ _____    ______ ____
ROOT
ATOM      1  C   UNL     1       5.878   3.917  15.293  0.00  0.00    +0.000 C 
ATOM      2  C   UNL     1       6.133   4.919  16.131  0.00  0.00    +0.000 C 
ATOM      3  N   UNL     1       7.104   5.852  15.942  0.00  0.00    +0.000 N 
ATOM      4  C   UNL     1       7.120   6.776  16.961  0.00  0.00    +0.000 C 
ATOM      5  O   UNL     1       7.863   7.728  17.096  0.00  0.00    +0.000 OA
ATOM      6  C   UNL     1       6.049   6.372  17.892  0.00  0.00    +0.000 C 
ATOM      7  C   UNL     1       5.488   5.264  17.379  0.00  0.00    +0.000 C 
ATOM      8  H   UNL     1       7.747   5.889  15.166  0.00  0.00    +0.000 HD
ENDROOT
BRANCH   7   9
ATOM      9  C   UNL     1       4.438   4.535  18.092  0.00  0.00    +0.000 A 
ATOM     10  C   UNL     1       4.737   3.736  19.198  0.00  0.00    +0.000 A 
ATOM     11  C   UNL     1       3.716   3.035  19.850  0.00  0.00    +0.000 A 
ATOM     12  C   UNL     1       2.392   3.141  19.420  0.00  0.00    +0.000 A 
ATOM     13  C   UNL     1       2.092   3.931  18.311  0.00  0.00    +0.000 A 
ATOM     14  C   UNL     1       3.111   4.627  17.652  0.00  0.00    +0.000 A 
BRANCH  12  15
ATOM     15  O   UNL     1       1.485   2.397  20.124  0.00  0.00    +0.000 OA
ATOM     16  C   UNL     1       1.433   2.652  21.523  0.00  0.00    +0.000 C 
ENDBRANCH  12  15
ENDBRANCH   7   9
TORSDOF 2
ENDMDL
MODEL 7
REMARK VINA RESULT:      -6.6      2.535      6.111
REMARK  Name = 
REMARK  3 active torsions:
REMARK  status: ('A' for Active; 'I' for Inactive)
REMARK    1  A    between atoms: C_7  and  C_8
REMARK    2  A    between atoms: C_11  and  O_12
REMARK    3  A    between atoms: O_12  and  C_13
REMARK                            x       y       z     vdW  Elec       q    Type
REMARK                         _______ _______ _______ _____ _____    ______ ____
ROOT
ATOM      1  C   UNL     1       2.476   6.629  19.520  0.00  0.00    +0.000 C 
ATOM      2  C   UNL     1       2.626   5.388  19.978  0.00  0.00    +0.000 C 
ATOM      3  N   UNL     1       1.921   4.859  21.013  0.00  0.00    +0.000 N 
ATOM      4  C   UNL     1       2.277   3.551  21.249  0.00  0.00    +0.000 C 
ATOM      5  O   UNL     1       1.843   2.799  22.099  0.00  0.00    +0.000 OA
ATOM      6  C   UNL     1       3.322   3.230  20.258  0.00  0.00    +0.000 C 
ATOM      7  C   UNL     1       3.515   4.340  19.525  0.00  0.00    +0.000 C 
ATOM      8  H   UNL     1       1.222   5.338  21.560  0.00  0.00    +0.000 HD
ENDROOT
BRANCH   7   9
ATOM      9  C   UNL     1       4.553   4.409  18.496  0.00  0.00    +0.000 A 
ATOM     10  C   UNL     1       5.878   4.700  18.825  0.00  0.00    +0.000 A 
ATOM     11  C   UNL     1       6.847   4.778  17.818  0.00  0.00    +0.000 A 
ATOM     12  C   UNL     1       6.508   4.547  16.483  0.00  0.00    +0.000 A 
ATOM     13  C   UNL     1       5.184   4.265  16.151  0.00  0.00    +0.000 A 
ATOM     14  C   UNL     1       4.211   4.194  17.154  0.00  0.00    +0.000 A 
BRANCH  12  15
ATOM     15  O   UNL     1       7.535   4.668  15.588  0.00  0.00    +0.000 OA
ATOM     16  C   UNL     1       7.156   4.987  14.254  0.00  0.00    +0.000 C 
ENDBRANCH  12  15
ENDBRANCH   7   9
TORSDOF 2
ENDMDL
MODEL 8
REMARK VINA RESULT:      -6.6      2.008      2.395
REMARK  Name = 
REMARK  3 active torsions:
REMARK  status: ('A' for Active; 'I' for Inactive)
REMARK    1  A    between atoms: C_7  and  C_8
REMARK    2  A    between atoms: C_11  and  O_12
REMARK    3  A    between atoms: O_12  and  C_13
REMARK                            x       y       z     vdW  Elec       q    Type
REMARK                         _______ _______ _______ _____ _____    ______ ____
ROOT
ATOM      1  C   UNL     1       7.406   7.024  17.451  0.00  0.00    +0.000 C 
ATOM      2  C   UNL     1       6.776   6.124  16.699  0.00  0.00    +0.000 C 
ATOM      3  N   UNL     1       7.298   5.554  15.581  0.00  0.00    +0.000 N 
ATOM      4  C   UNL     1       6.427   4.646  15.025  0.00  0.00    +0.000 C 
ATOM      5  O   UNL     1       6.584   3.974  14.025  0.00  0.00    +0.000 OA
ATOM      6  C   UNL     1       5.227   4.656  15.883  0.00  0.00    +0.000 C 
ATOM      7  C   UNL     1       5.459   5.547  16.862  0.00  0.00    +0.000 C 
ATOM      8  H   UNL     1       8.204   5.750  15.184  0.00  0.00    +0.000 HD
ENDROOT
BRANCH   7   9
ATOM      9  C   UNL     1       4.436   5.881  17.854  0.00  0.00    +0.000 A 
ATOM     10  C   UNL     1       4.226   5.075  18.975  0.00  0.00    +0.000 A 
ATOM     11  C   UNL     1       3.230   5.407  19.899  0.00  0.00    +0.000 A 
ATOM     12  C   UNL     1       2.451   6.553  19.725  0.00  0.00    +0.000 A 
ATOM     13  C   UNL     1       2.653   7.356  18.603  0.00  0.00    +0.000 A 
ATOM     14  C   UNL     1       3.643   7.021  17.673  0.00  0.00    +0.000 A 
BRANCH  12  15
ATOM     15  O   UNL     1       1.498   6.766  20.684  0.00  0.00    +0.000 OA
ATOM     16  C   UNL     1       1.256   8.127  21.021  0.00  0.00    +0.000 C 
ENDBRANCH  12  15
ENDBRANCH   7   9
TORSDOF 2
ENDMDL
MODEL 9
REMARK VINA RESULT:      -6.6      1.470      1.953
REMARK  Name = 
REMARK  3 active torsions:
REMARK  status: ('A' for Active; 'I' for Inactive)
REMARK    1  A    between atoms: C_7  and  C_8
REMARK    2  A    between atoms: C_11  and  O_12
REMARK    3  A    between atoms: O_12  and  C_13
REMARK                            x       y       z     vdW  Elec       q    Type
REMARK                         _______ _______ _______ _____ _____    ______ ____
ROOT
ATOM      1  C   UNL     1       4.243   7.264  17.160  0.00  0.00    +0.000 C 
ATOM      2  C   UNL     1       4.858   6.278  16.511  0.00  0.00    +0.000 C 
ATOM      3  N   UNL     1       5.705   6.456  15.464  0.00  0.00    +0.000 N 
ATOM      4  C   UNL     1       6.206   5.257  15.010  0.00  0.00    +0.000 C 
ATOM      5  O   UNL     1       6.977   5.069  14.091  0.00  0.00    +0.000 OA
ATOM      6  C   UNL     1       5.599   4.217  15.862  0.00  0.00    +0.000 C 
ATOM      7  C   UNL     1       4.799   4.849  16.737  0.00  0.00    +0.000 C 
ATOM      8  H   UNL     1       5.955   7.340  15.047  0.00  0.00    +0.000 HD
ENDROOT
BRANCH   7   9
ATOM      9  C   UNL     1       3.964   4.112  17.686  0.00  0.00    +0.000 A 
ATOM     10  C   UNL     1       2.594   3.951  17.470  0.00  0.00    +0.000 A 
ATOM     11  C   UNL     1       1.816   3.258  18.403  0.00  0.00    +0.000 A 
ATOM     12  C   UNL     1       2.398   2.702  19.544  0.00  0.00    +0.000 A 
ATOM     13  C   UNL     1       3.765   2.868  19.766  0.00  0.00    +0.000 A 
ATOM     14  C   UNL     1       4.544   3.569  18.839  0.00  0.00    +0.000 A 
BRANCH  12  15
ATOM     15  O   UNL     1       1.535   2.062  20.391  0.00  0.00    +0.000 OA
ATOM     16  C   UNL     1       1.420   2.624  21.693  0.00  0.00    +0.000 C 
ENDBRANCH  12  15
ENDBRANCH   7   9
TORSDOF 2
ENDMDL
