MODEL 1
REMARK VINA RESULT:      -7.1      0.000      0.000
REMARK  Name = 
REMARK  10 active torsions:
REMARK  status: ('A' for Active; 'I' for Inactive)
REMARK    1  A    between atoms: C_1  and  C_2
REMARK    2  A    between atoms: C_2  and  C_3
REMARK    3  A    between atoms: C_3  and  C_4
REMARK    4  A    between atoms: C_4  and  C_5
REMARK    5  A    between atoms: C_5  and  N_6
REMARK    6  A    between atoms: N_6  and  C_7
REMARK    7  A    between atoms: N_6  and  C_10
REMARK    8  A    between atoms: C_7  and  C_8
REMARK    9  A    between atoms: C_8  and  C_9
REMARK   10  A    between atoms: C_14  and  O_15
REMARK                            x       y       z     vdW  Elec       q    Type
REMARK                         _______ _______ _______ _____ _____    ______ ____
ROOT
ATOM      1  C   UNL     1       5.371   4.153  17.650  0.00  0.00    +0.000 C 
ATOM      2  C   UNL     1       4.289   3.769  16.620  0.00  0.00    +0.000 C 
ATOM      3  C   UNL     1       3.151   3.004  17.297  0.00  0.00    +0.000 C 
ATOM      4  C   UNL     1       2.598   3.684  18.521  0.00  0.00    +0.000 A 
ATOM      5  C   UNL     1       1.360   3.313  19.070  0.00  0.00    +0.000 A 
ATOM      6  C   UNL     1       0.847   3.951  20.196  0.00  0.00    +0.000 A 
ATOM      7  C   UNL     1       1.572   4.965  20.810  0.00  0.00    +0.000 A 
ATOM      8  C   UNL     1       2.817   5.327  20.301  0.00  0.00    +0.000 A 
ATOM      9  C   UNL     1       3.344   4.685  19.166  0.00  0.00    +0.000 A 
ATOM     10  C   UNL     1       4.701   5.128  18.658  0.00  0.00    +0.000 C 
ENDROOT
BRANCH   5  11
ATOM     11  O   UNL     1       0.582   2.315  18.552  0.00  0.00    +0.000 OA
ATOM     12  H   UNL     1      -0.352   2.557  18.637  0.00  0.00    +0.000 HD
ENDBRANCH   5  11
BRANCH   1  13
ATOM     13  N   UNL     1       6.610   4.723  17.027  0.00  0.00    +0.000 NA
BRANCH  13  14
ATOM     14  C   UNL     1       6.851   4.137  15.688  0.00  0.00    +0.000 C 
BRANCH  14  15
ATOM     15  C   UNL     1       6.980   5.100  14.497  0.00  0.00    +0.000 C 
BRANCH  15  16
ATOM     16  C   UNL     1       6.872   4.423  13.126  0.00  0.00    +0.000 C 
BRANCH  16  18
ATOM     17  C   UNL     1       4.862   3.523  11.868  0.00  0.00    +0.000 C 
ATOM     18  C   UNL     1       5.712   3.423  13.123  0.00  0.00    +0.000 C 
ENDBRANCH  16  18
ENDBRANCH  15  16
ENDBRANCH  14  15
ENDBRANCH  13  14
BRANCH  13  19
ATOM     19  C   UNL     1       6.629   6.203  17.007  0.00  0.00    +0.000 C 
BRANCH  19  20
ATOM     20  C   UNL     1       7.666   6.884  17.917  0.00  0.00    +0.000 C 
ATOM     21  C   UNL     1       7.784   8.372  17.618  0.00  0.00    +0.000 C 
ENDBRANCH  19  20
ENDBRANCH  13  19
ENDBRANCH   1  13
TORSDOF 8
ENDMDL
MODEL 2
REMARK VINA RESULT:      -7.1      1.007      3.641
REMARK  Name = 
REMARK  10 active torsions:
REMARK  status: ('A' for Active; 'I' for Inactive)
REMARK    1  A    between atoms: C_1  and  C_2
REMARK    2  A    between atoms: C_2  and  C_3
REMARK    3  A    between atoms: C_3  and  C_4
REMARK    4  A    between atoms: C_4  and  C_5
REMARK    5  A    between atoms: C_5  and  N_6
REMARK    6  A    between atoms: N_6  and  C_7
REMARK    7  A    between atoms: N_6  and  C_10
REMARK    8  A    between atoms: C_7  and  C_8
REMARK    9  A    between atoms: C_8  and  C_9
REMARK   10  A    between atoms: C_14  and  O_15
REMARK                            x       y       z     vdW  Elec       q    Type
REMARK                         _______ _______ _______ _____ _____    ______ ____
ROOT
ATOM      1  C   UNL     1       4.873   4.833  17.107  0.00  0.00    +0.000 C 
ATOM      2  C   UNL     1       3.904   3.769  16.553  0.00  0.00    +0.000 C 
ATOM      3  C   UNL     1       3.235   3.004  17.695  0.00  0.00    +0.000 C 
ATOM      4  C   UNL     1       2.616   3.887  18.746  0.00  0.00    +0.000 A 
ATOM      5  C   UNL     1       1.691   3.386  19.674  0.00  0.00    +0.000 A 
ATOM      6  C   UNL     1       1.113   4.208  20.637  0.00  0.00    +0.000 A 
ATOM      7  C   UNL     1       1.464   5.551  20.705  0.00  0.00    +0.000 A 
ATOM      8  C   UNL     1       2.404   6.063  19.814  0.00  0.00    +0.000 A 
ATOM      9  C   UNL     1       2.996   5.238  18.840  0.00  0.00    +0.000 A 
ATOM     10  C   UNL     1       4.008   5.855  17.898  0.00  0.00    +0.000 C 
ENDROOT
BRANCH   5  11
ATOM     11  O   UNL     1       1.297   2.077  19.704  0.00  0.00    +0.000 OA
ATOM     12  H   UNL     1       2.071   1.511  19.839  0.00  0.00    +0.000 HD
ENDBRANCH   5  11
BRANCH   1  13
ATOM     13  N   UNL     1       5.715   5.480  16.049  0.00  0.00    +0.000 NA
BRANCH  13  14
ATOM     14  C   UNL     1       7.150   5.449  16.416  0.00  0.00    +0.000 C 
BRANCH  14  15
ATOM     15  C   UNL     1       7.505   5.340  17.908  0.00  0.00    +0.000 C 
BRANCH  15  16
ATOM     16  C   UNL     1       7.829   6.681  18.576  0.00  0.00    +0.000 C 
BRANCH  16  18
ATOM     17  C   UNL     1       8.325   9.108  18.030  0.00  0.00    +0.000 C 
ATOM     18  C   UNL     1       7.652   7.825  17.573  0.00  0.00    +0.000 C 
ENDBRANCH  16  18
ENDBRANCH  15  16
ENDBRANCH  14  15
ENDBRANCH  13  14
BRANCH  13  19
ATOM     19  C   UNL     1       5.468   4.942  14.692  0.00  0.00    +0.000 C 
BRANCH  19  20
ATOM     20  C   UNL     1       6.531   3.978  14.136  0.00  0.00    +0.000 C 
ATOM     21  C   UNL     1       6.306   3.686  12.659  0.00  0.00    +0.000 C 
ENDBRANCH  19  20
ENDBRANCH  13  19
ENDBRANCH   1  13
TORSDOF 8
ENDMDL
MODEL 3
REMARK VINA RESULT:      -7.0      2.989      5.283
REMARK  Name = 
REMARK  10 active torsions:
REMARK  status: ('A' for Active; 'I' for Inactive)
REMARK    1  A    between atoms: C_1  and  C_2
REMARK    2  A    between atoms: C_2  and  C_3
REMARK    3  A    between atoms: C_3  and  C_4
REMARK    4  A    between atoms: C_4  and  C_5
REMARK    5  A    between atoms: C_5  and  N_6
REMARK    6  A    between atoms: N_6  and  C_7
REMARK    7  A    between atoms: N_6  and  C_10
REMARK    8  A    between atoms: C_7  and  C_8
REMARK    9  A    between atoms: C_8  and  C_9
REMARK   10  A    between atoms: C_14  and  O_15
REMARK                            x       y       z     vdW  Elec       q    Type
REMARK                         _______ _______ _______ _____ _____    ______ ____
ROOT
ATOM      1  C   UNL     1       3.622   5.513  18.106  0.00  0.00    +0.000 C 
ATOM      2  C   UNL     1       4.240   6.767  17.455  0.00  0.00    +0.000 C 
ATOM      3  C   UNL     1       3.173   7.841  17.239  0.00  0.00    +0.000 C 
ATOM      4  C   UNL     1       2.352   8.146  18.464  0.00  0.00    +0.000 A 
ATOM      5  C   UNL     1       1.569   9.308  18.554  0.00  0.00    +0.000 A 
ATOM      6  C   UNL     1       0.821   9.591  19.692  0.00  0.00    +0.000 A 
ATOM      7  C   UNL     1       0.823   8.704  20.763  0.00  0.00    +0.000 A 
ATOM      8  C   UNL     1       1.567   7.530  20.683  0.00  0.00    +0.000 A 
ATOM      9  C   UNL     1       2.324   7.235  19.535  0.00  0.00    +0.000 A 
ATOM     10  C   UNL     1       3.116   5.944  19.511  0.00  0.00    +0.000 C 
ENDROOT
BRANCH   5  11
ATOM     11  O   UNL     1       1.484  10.229  17.547  0.00  0.00    +0.000 OA
ATOM     12  H   UNL     1       1.138  11.062  17.902  0.00  0.00    +0.000 HD
ENDBRANCH   5  11
BRANCH   1  13
ATOM     13  N   UNL     1       4.562   4.346  18.159  0.00  0.00    +0.000 NA
BRANCH  13  14
ATOM     14  C   UNL     1       3.845   3.073  17.913  0.00  0.00    +0.000 C 
BRANCH  14  15
ATOM     15  C   UNL     1       2.320   3.132  17.736  0.00  0.00    +0.000 C 
BRANCH  15  16
ATOM     16  C   UNL     1       1.539   2.246  18.713  0.00  0.00    +0.000 C 
BRANCH  16  18
ATOM     17  C   UNL     1       1.354   2.971  21.137  0.00  0.00    +0.000 C 
ATOM     18  C   UNL     1       0.794   3.114  19.731  0.00  0.00    +0.000 C 
ENDBRANCH  16  18
ENDBRANCH  15  16
ENDBRANCH  14  15
ENDBRANCH  13  14
BRANCH  13  19
ATOM     19  C   UNL     1       5.745   4.506  17.284  0.00  0.00    +0.000 C 
BRANCH  19  20
ATOM     20  C   UNL     1       5.701   3.767  15.935  0.00  0.00    +0.000 C 
ATOM     21  C   UNL     1       5.710   4.738  14.763  0.00  0.00    +0.000 C 
ENDBRANCH  19  20
ENDBRANCH  13  19
ENDBRANCH   1  13
TORSDOF 8
ENDMDL
MODEL 4
REMARK VINA RESULT:      -7.0      2.777      6.242
REMARK  Name = 
REMARK  10 active torsions:
REMARK  status: ('A' for Active; 'I' for Inactive)
REMARK    1  A    between atoms: C_1  and  C_2
REMARK    2  A    between atoms: C_2  and  C_3
REMARK    3  A    between atoms: C_3  and  C_4
REMARK    4  A    between atoms: C_4  and  C_5
REMARK    5  A    between atoms: C_5  and  N_6
REMARK    6  A    between atoms: N_6  and  C_7
REMARK    7  A    between atoms: N_6  and  C_10
REMARK    8  A    between atoms: C_7  and  C_8
REMARK    9  A    between atoms: C_8  and  C_9
REMARK   10  A    between atoms: C_14  and  O_15
REMARK                            x       y       z     vdW  Elec       q    Type
REMARK                         _______ _______ _______ _____ _____    ______ ____
ROOT
ATOM      1  C   UNL     1       3.328   5.298  18.804  0.00  0.00    +0.000 C 
ATOM      2  C   UNL     1       4.608   5.583  19.616  0.00  0.00    +0.000 C 
ATOM      3  C   UNL     1       5.785   4.781  19.061  0.00  0.00    +0.000 C 
ATOM      4  C   UNL     1       5.977   4.921  17.574  0.00  0.00    +0.000 A 
ATOM      5  C   UNL     1       7.174   4.539  16.948  0.00  0.00    +0.000 A 
ATOM      6  C   UNL     1       7.351   4.680  15.575  0.00  0.00    +0.000 A 
ATOM      7  C   UNL     1       6.323   5.190  14.792  0.00  0.00    +0.000 A 
ATOM      8  C   UNL     1       5.115   5.547  15.387  0.00  0.00    +0.000 A 
ATOM      9  C   UNL     1       4.927   5.404  16.773  0.00  0.00    +0.000 A 
ATOM     10  C   UNL     1       3.592   5.813  17.361  0.00  0.00    +0.000 C 
ENDROOT
BRANCH   5  11
ATOM     11  O   UNL     1       8.235   4.008  17.628  0.00  0.00    +0.000 OA
ATOM     12  H   UNL     1       9.049   4.164  17.128  0.00  0.00    +0.000 HD
ENDBRANCH   5  11
BRANCH   1  13
ATOM     13  N   UNL     1       2.092   5.889  19.414  0.00  0.00    +0.000 NA
BRANCH  13  14
ATOM     14  C   UNL     1       1.639   5.091  20.577  0.00  0.00    +0.000 C 
BRANCH  14  15
ATOM     15  C   UNL     1       0.897   3.774  20.297  0.00  0.00    +0.000 C 
BRANCH  15  16
ATOM     16  C   UNL     1       1.805   2.539  20.255  0.00  0.00    +0.000 C 
BRANCH  16  18
ATOM     17  C   UNL     1       3.360   1.640  18.464  0.00  0.00    +0.000 C 
ATOM     18  C   UNL     1       1.934   2.030  18.816  0.00  0.00    +0.000 C 
ENDBRANCH  16  18
ENDBRANCH  15  16
ENDBRANCH  14  15
ENDBRANCH  13  14
BRANCH  13  19
ATOM     19  C   UNL     1       2.227   7.328  19.735  0.00  0.00    +0.000 C 
BRANCH  19  20
ATOM     20  C   UNL     1       1.409   7.840  20.933  0.00  0.00    +0.000 C 
ATOM     21  C   UNL     1       0.747   9.177  20.631  0.00  0.00    +0.000 C 
ENDBRANCH  19  20
ENDBRANCH  13  19
ENDBRANCH   1  13
TORSDOF 8
ENDMDL
MODEL 5
REMARK VINA RESULT:      -6.9      0.923      1.087
REMARK  Name = 
REMARK  10 active torsions:
REMARK  status: ('A' for Active; 'I' for Inactive)
REMARK    1  A    between atoms: C_1  and  C_2
REMARK    2  A    between atoms: C_2  and  C_3
REMARK    3  A    between atoms: C_3  and  C_4
REMARK    4  A    between atoms: C_4  and  C_5
REMARK    5  A    between atoms: C_5  and  N_6
REMARK    6  A    between atoms: N_6  and  C_7
REMARK    7  A    between atoms: N_6  and  C_10
REMARK    8  A    between atoms: C_7  and  C_8
REMARK    9  A    between atoms: C_8  and  C_9
REMARK   10  A    between atoms: C_14  and  O_15
REMARK                            x       y       z     vdW  Elec       q    Type
REMARK                         _______ _______ _______ _____ _____    ______ ____
ROOT
ATOM      1  C   UNL     1       5.044   4.139  17.699  0.00  0.00    +0.000 C 
ATOM      2  C   UNL     1       3.819   4.225  16.766  0.00  0.00    +0.000 C 
ATOM      3  C   UNL     1       2.723   3.265  17.229  0.00  0.00    +0.000 C 
ATOM      4  C   UNL     1       2.374   3.390  18.687  0.00  0.00    +0.000 A 
ATOM      5  C   UNL     1       1.190   2.843  19.209  0.00  0.00    +0.000 A 
ATOM      6  C   UNL     1       0.866   2.970  20.557  0.00  0.00    +0.000 A 
ATOM      7  C   UNL     1       1.731   3.633  21.419  0.00  0.00    +0.000 A 
ATOM      8  C   UNL     1       2.925   4.156  20.930  0.00  0.00    +0.000 A 
ATOM      9  C   UNL     1       3.262   4.029  19.571  0.00  0.00    +0.000 A 
ATOM     10  C   UNL     1       4.573   4.623  19.099  0.00  0.00    +0.000 C 
ENDROOT
BRANCH   5  11
ATOM     11  O   UNL     1       0.287   2.156  18.447  0.00  0.00    +0.000 OA
ATOM     12  H   UNL     1      -0.577   2.591  18.501  0.00  0.00    +0.000 HD
ENDBRANCH   5  11
BRANCH   1  13
ATOM     13  N   UNL     1       6.234   4.898  17.191  0.00  0.00    +0.000 NA
BRANCH  13  14
ATOM     14  C   UNL     1       6.061   5.269  15.768  0.00  0.00    +0.000 C 
BRANCH  14  15
ATOM     15  C   UNL     1       6.620   4.311  14.704  0.00  0.00    +0.000 C 
BRANCH  15  16
ATOM     16  C   UNL     1       5.626   3.959  13.591  0.00  0.00    +0.000 C 
BRANCH  16  18
ATOM     17  C   UNL     1       7.400   4.524  11.870  0.00  0.00    +0.000 C 
ATOM     18  C   UNL     1       6.378   3.502  12.338  0.00  0.00    +0.000 C 
ENDBRANCH  16  18
ENDBRANCH  15  16
ENDBRANCH  14  15
ENDBRANCH  13  14
BRANCH  13  19
ATOM     19  C   UNL     1       6.594   6.057  18.038  0.00  0.00    +0.000 C 
BRANCH  19  20
ATOM     20  C   UNL     1       6.685   7.419  17.327  0.00  0.00    +0.000 C 
ATOM     21  C   UNL     1       7.933   8.186  17.741  0.00  0.00    +0.000 C 
ENDBRANCH  19  20
ENDBRANCH  13  19
ENDBRANCH   1  13
TORSDOF 8
ENDMDL
MODEL 6
REMARK VINA RESULT:      -6.8      1.303      2.035
REMARK  Name = 
REMARK  10 active torsions:
REMARK  status: ('A' for Active; 'I' for Inactive)
REMARK    1  A    between atoms: C_1  and  C_2
REMARK    2  A    between atoms: C_2  and  C_3
REMARK    3  A    between atoms: C_3  and  C_4
REMARK    4  A    between atoms: C_4  and  C_5
REMARK    5  A    between atoms: C_5  and  N_6
REMARK    6  A    between atoms: N_6  and  C_7
REMARK    7  A    between atoms: N_6  and  C_10
REMARK    8  A    between atoms: C_7  and  C_8
REMARK    9  A    between atoms: C_8  and  C_9
REMARK   10  A    between atoms: C_14  and  O_15
REMARK                            x       y       z     vdW  Elec       q    Type
REMARK                         _______ _______ _______ _____ _____    ______ ____
ROOT
ATOM      1  C   UNL     1       5.185   4.542  17.348  0.00  0.00    +0.000 C 
ATOM      2  C   UNL     1       5.533   4.769  18.833  0.00  0.00    +0.000 C 
ATOM      3  C   UNL     1       4.296   5.219  19.611  0.00  0.00    +0.000 C 
ATOM      4  C   UNL     1       3.089   4.343  19.407  0.00  0.00    +0.000 A 
ATOM      5  C   UNL     1       1.985   4.398  20.273  0.00  0.00    +0.000 A 
ATOM      6  C   UNL     1       0.876   3.578  20.086  0.00  0.00    +0.000 A 
ATOM      7  C   UNL     1       0.838   2.696  19.013  0.00  0.00    +0.000 A 
ATOM      8  C   UNL     1       1.908   2.646  18.123  0.00  0.00    +0.000 A 
ATOM      9  C   UNL     1       3.031   3.474  18.302  0.00  0.00    +0.000 A 
ATOM     10  C   UNL     1       4.165   3.370  17.303  0.00  0.00    +0.000 C 
ENDROOT
BRANCH   5  11
ATOM     11  O   UNL     1       1.918   5.247  21.342  0.00  0.00    +0.000 OA
ATOM     12  H   UNL     1       2.632   5.899  21.282  0.00  0.00    +0.000 HD
ENDBRANCH   5  11
BRANCH   1  13
ATOM     13  N   UNL     1       6.388   4.298  16.486  0.00  0.00    +0.000 NA
BRANCH  13  14
ATOM     14  C   UNL     1       5.991   3.851  15.131  0.00  0.00    +0.000 C 
BRANCH  14  15
ATOM     15  C   UNL     1       6.521   4.650  13.929  0.00  0.00    +0.000 C 
BRANCH  15  16
ATOM     16  C   UNL     1       6.775   3.804  12.676  0.00  0.00    +0.000 C 
BRANCH  16  18
ATOM     17  C   UNL     1       5.627   1.912  11.437  0.00  0.00    +0.000 C 
ATOM     18  C   UNL     1       5.453   3.248  12.139  0.00  0.00    +0.000 C 
ENDBRANCH  16  18
ENDBRANCH  15  16
ENDBRANCH  14  15
ENDBRANCH  13  14
BRANCH  13  19
ATOM     19  C   UNL     1       7.325   5.444  16.451  0.00  0.00    +0.000 C 
BRANCH  19  20
ATOM     20  C   UNL     1       6.725   6.827  16.760  0.00  0.00    +0.000 C 
ATOM     21  C   UNL     1       7.651   7.658  17.636  0.00  0.00    +0.000 C 
ENDBRANCH  19  20
ENDBRANCH  13  19
ENDBRANCH   1  13
TORSDOF 8
ENDMDL
MODEL 7
REMARK VINA RESULT:      -6.8      3.122      5.082
REMARK  Name = 
REMARK  10 active torsions:
REMARK  status: ('A' for Active; 'I' for Inactive)
REMARK    1  A    between atoms: C_1  and  C_2
REMARK    2  A    between atoms: C_2  and  C_3
REMARK    3  A    between atoms: C_3  and  C_4
REMARK    4  A    between atoms: C_4  and  C_5
REMARK    5  A    between atoms: C_5  and  N_6
REMARK    6  A    between atoms: N_6  and  C_7
REMARK    7  A    between atoms: N_6  and  C_10
REMARK    8  A    between atoms: C_7  and  C_8
REMARK    9  A    between atoms: C_8  and  C_9
REMARK   10  A    between atoms: C_14  and  O_15
REMARK                            x       y       z     vdW  Elec       q    Type
REMARK                         _______ _______ _______ _____ _____    ______ ____
ROOT
ATOM      1  C   UNL     1       3.325   5.805  18.228  0.00  0.00    +0.000 C 
ATOM      2  C   UNL     1       3.832   7.100  17.561  0.00  0.00    +0.000 C 
ATOM      3  C   UNL     1       2.704   8.127  17.457  0.00  0.00    +0.000 C 
ATOM      4  C   UNL     1       1.970   8.366  18.749  0.00  0.00    +0.000 A 
ATOM      5  C   UNL     1       1.145   9.488  18.929  0.00  0.00    +0.000 A 
ATOM      6  C   UNL     1       0.477   9.711  20.129  0.00  0.00    +0.000 A 
ATOM      7  C   UNL     1       0.605   8.804  21.174  0.00  0.00    +0.000 A 
ATOM      8  C   UNL     1       1.393   7.668  21.007  0.00  0.00    +0.000 A 
ATOM      9  C   UNL     1       2.069   7.433  19.796  0.00  0.00    +0.000 A 
ATOM     10  C   UNL     1       2.914   6.181  19.679  0.00  0.00    +0.000 C 
ENDROOT
BRANCH   5  11
ATOM     11  O   UNL     1       0.938  10.425  17.955  0.00  0.00    +0.000 OA
ATOM     12  H   UNL     1       1.427  10.176  17.158  0.00  0.00    +0.000 HD
ENDBRANCH   5  11
BRANCH   1  13
ATOM     13  N   UNL     1       4.319   4.682  18.178  0.00  0.00    +0.000 NA
BRANCH  13  14
ATOM     14  C   UNL     1       3.890   3.633  17.225  0.00  0.00    +0.000 C 
BRANCH  14  15
ATOM     15  C   UNL     1       3.332   2.323  17.805  0.00  0.00    +0.000 C 
BRANCH  15  16
ATOM     16  C   UNL     1       1.908   2.439  18.362  0.00  0.00    +0.000 C 
BRANCH  16  18
ATOM     17  C   UNL     1       0.879   3.324  20.504  0.00  0.00    +0.000 C 
ATOM     18  C   UNL     1       1.938   2.423  19.893  0.00  0.00    +0.000 C 
ENDBRANCH  16  18
ENDBRANCH  15  16
ENDBRANCH  14  15
ENDBRANCH  13  14
BRANCH  13  19
ATOM     19  C   UNL     1       5.705   5.138  17.930  0.00  0.00    +0.000 C 
BRANCH  19  20
ATOM     20  C   UNL     1       6.586   5.354  19.174  0.00  0.00    +0.000 C 
ATOM     21  C   UNL     1       7.829   6.168  18.847  0.00  0.00    +0.000 C 
ENDBRANCH  19  20
ENDBRANCH  13  19
ENDBRANCH   1  13
TORSDOF 8
ENDMDL
MODEL 8
REMARK VINA RESULT:      -6.8      1.725      4.506
REMARK  Name = 
REMARK  10 active torsions:
REMARK  status: ('A' for Active; 'I' for Inactive)
REMARK    1  A    between atoms: C_1  and  C_2
REMARK    2  A    between atoms: C_2  and  C_3
REMARK    3  A    between atoms: C_3  and  C_4
REMARK    4  A    between atoms: C_4  and  C_5
REMARK    5  A    between atoms: C_5  and  N_6
REMARK    6  A    between atoms: N_6  and  C_7
REMARK    7  A    between atoms: N_6  and  C_10
REMARK    8  A    between atoms: C_7  and  C_8
REMARK    9  A    between atoms: C_8  and  C_9
REMARK   10  A    between atoms: C_14  and  O_15
REMARK                            x       y       z     vdW  Elec       q    Type
REMARK                         _______ _______ _______ _____ _____    ______ ____
ROOT
ATOM      1  C   UNL     1       4.637   5.764  18.041  0.00  0.00    +0.000 C 
ATOM      2  C   UNL     1       5.467   4.735  18.835  0.00  0.00    +0.000 C 
ATOM      3  C   UNL     1       4.665   4.197  20.021  0.00  0.00    +0.000 C 
ATOM      4  C   UNL     1       3.290   3.704  19.658  0.00  0.00    +0.000 A 
ATOM      5  C   UNL     1       2.549   2.887  20.527  0.00  0.00    +0.000 A 
ATOM      6  C   UNL     1       1.282   2.425  20.183  0.00  0.00    +0.000 A 
ATOM      7  C   UNL     1       0.718   2.787  18.966  0.00  0.00    +0.000 A 
ATOM      8  C   UNL     1       1.422   3.621  18.101  0.00  0.00    +0.000 A 
ATOM      9  C   UNL     1       2.701   4.096  18.442  0.00  0.00    +0.000 A 
ATOM     10  C   UNL     1       3.417   4.997  17.458  0.00  0.00    +0.000 C 
ENDROOT
BRANCH   5  11
ATOM     11  O   UNL     1       3.007   2.495  21.754  0.00  0.00    +0.000 OA
ATOM     12  H   UNL     1       2.348   1.924  22.176  0.00  0.00    +0.000 HD
ENDBRANCH   5  11
BRANCH   1  13
ATOM     13  N   UNL     1       5.428   6.483  16.990  0.00  0.00    +0.000 NA
BRANCH  13  14
ATOM     14  C   UNL     1       6.814   6.738  17.447  0.00  0.00    +0.000 C 
BRANCH  14  15
ATOM     15  C   UNL     1       7.324   8.187  17.416  0.00  0.00    +0.000 C 
BRANCH  15  16
ATOM     16  C   UNL     1       8.467   8.473  18.396  0.00  0.00    +0.000 C 
BRANCH  16  18
ATOM     17  C   UNL     1       9.326  10.489  19.672  0.00  0.00    +0.000 C 
ATOM     18  C   UNL     1       8.861   9.951  18.330  0.00  0.00    +0.000 C 
ENDBRANCH  16  18
ENDBRANCH  15  16
ENDBRANCH  14  15
ENDBRANCH  13  14
BRANCH  13  19
ATOM     19  C   UNL     1       5.383   5.820  15.667  0.00  0.00    +0.000 C 
BRANCH  19  20
ATOM     20  C   UNL     1       6.521   4.830  15.361  0.00  0.00    +0.000 C 
ATOM     21  C   UNL     1       6.265   4.063  14.070  0.00  0.00    +0.000 C 
ENDBRANCH  19  20
ENDBRANCH  13  19
ENDBRANCH   1  13
TORSDOF 8
ENDMDL
MODEL 9
REMARK VINA RESULT:      -6.6      2.778      6.852
REMARK  Name = 
REMARK  10 active torsions:
REMARK  status: ('A' for Active; 'I' for Inactive)
REMARK    1  A    between atoms: C_1  and  C_2
REMARK    2  A    between atoms: C_2  and  C_3
REMARK    3  A    between atoms: C_3  and  C_4
REMARK    4  A    between atoms: C_4  and  C_5
REMARK    5  A    between atoms: C_5  and  N_6
REMARK    6  A    between atoms: N_6  and  C_7
REMARK    7  A    between atoms: N_6  and  C_10
REMARK    8  A    between atoms: C_7  and  C_8
REMARK    9  A    between atoms: C_8  and  C_9
REMARK   10  A    between atoms: C_14  and  O_15
REMARK                            x       y       z     vdW  Elec       q    Type
REMARK                         _______ _______ _______ _____ _____    ______ ____
ROOT
ATOM      1  C   UNL     1       5.294   4.439  17.042  0.00  0.00    +0.000 C 
ATOM      2  C   UNL     1       5.901   5.841  16.828  0.00  0.00    +0.000 C 
ATOM      3  C   UNL     1       7.101   5.768  15.883  0.00  0.00    +0.000 C 
ATOM      4  C   UNL     1       6.826   5.032  14.598  0.00  0.00    +0.000 A 
ATOM      5  C   UNL     1       7.680   5.146  13.490  0.00  0.00    +0.000 A 
ATOM      6  C   UNL     1       7.417   4.473  12.300  0.00  0.00    +0.000 A 
ATOM      7  C   UNL     1       6.300   3.652  12.199  0.00  0.00    +0.000 A 
ATOM      8  C   UNL     1       5.456   3.500  13.297  0.00  0.00    +0.000 A 
ATOM      9  C   UNL     1       5.717   4.173  14.504  0.00  0.00    +0.000 A 
ATOM     10  C   UNL     1       4.760   3.969  15.659  0.00  0.00    +0.000 C 
ENDROOT
BRANCH   5  11
ATOM     11  O   UNL     1       8.814   5.910  13.496  0.00  0.00    +0.000 OA
ATOM     12  H   UNL     1       9.279   5.790  14.337  0.00  0.00    +0.000 HD
ENDBRANCH   5  11
BRANCH   1  13
ATOM     13  N   UNL     1       4.245   4.402  18.113  0.00  0.00    +0.000 NA
BRANCH  13  14
ATOM     14  C   UNL     1       4.503   3.305  19.073  0.00  0.00    +0.000 C 
BRANCH  14  15
ATOM     15  C   UNL     1       3.295   2.510  19.595  0.00  0.00    +0.000 C 
BRANCH  15  16
ATOM     16  C   UNL     1       3.005   2.715  21.087  0.00  0.00    +0.000 C 
BRANCH  16  18
ATOM     17  C   UNL     1       0.877   3.753  20.178  0.00  0.00    +0.000 C 
ATOM     18  C   UNL     1       1.932   3.791  21.271  0.00  0.00    +0.000 C 
ENDBRANCH  16  18
ENDBRANCH  15  16
ENDBRANCH  14  15
ENDBRANCH  13  14
BRANCH  13  19
ATOM     19  C   UNL     1       4.049   5.706  18.786  0.00  0.00    +0.000 C 
BRANCH  19  20
ATOM     20  C   UNL     1       2.710   6.417  18.518  0.00  0.00    +0.000 C 
ATOM     21  C   UNL     1       2.260   7.237  19.719  0.00  0.00    +0.000 C 
ENDBRANCH  19  20
ENDBRANCH  13  19
ENDBRANCH   1  13
TORSDOF 8
ENDMDL
