MODEL 1
REMARK VINA RESULT:      -7.7      0.000      0.000
REMARK  Name = 
REMARK  8 active torsions:
REMARK  status: ('A' for Active; 'I' for Inactive)
REMARK    1  A    between atoms: C_1  and  C_2
REMARK    2  A    between atoms: C_2  and  O_3
REMARK    3  A    between atoms: O_3  and  C_4
REMARK    4  A    between atoms: C_4  and  C_5
REMARK    5  A    between atoms: C_5  and  N_6
REMARK    6  A    between atoms: C_7  and  C_9
REMARK    7  A    between atoms: C_14  and  N_15
REMARK    8  A    between atoms: C_19  and  C_20
REMARK                            x       y       z     vdW  Elec       q    Type
REMARK                         _______ _______ _______ _____ _____    ______ ____
ROOT
ATOM      1  C   UNL     1       6.227   5.625  17.273  0.00  0.00    +0.000 A 
ATOM      2  C   UNL     1       7.517   6.167  17.448  0.00  0.00    +0.000 A 
ATOM      3  C   UNL     1       8.088   6.235  18.710  0.00  0.00    +0.000 A 
ATOM      4  C   UNL     1       7.356   5.733  19.757  0.00  0.00    +0.000 A 
ATOM      5  N   UNL     1       6.129   5.186  19.613  0.00  0.00    +0.000 NA
ATOM      6  C   UNL     1       5.537   5.116  18.388  0.00  0.00    +0.000 A 
ENDROOT
BRANCH   6   7
ATOM      7  N   UNL     1       4.290   4.544  18.398  0.00  0.00    +0.000 N 
ATOM      8  C   UNL     1       3.969   3.151  18.655  0.00  0.00    +0.000 C 
ATOM      9  C   UNL     1       2.905   2.834  17.616  0.00  0.00    +0.000 C 
ATOM     10  C   UNL     1       2.121   4.130  17.481  0.00  0.00    +0.000 C 
ATOM     11  C   UNL     1       3.141   5.247  17.783  0.00  0.00    +0.000 C 
BRANCH  11  12
ATOM     12  C   UNL     1       2.515   6.298  18.701  0.00  0.00    +0.000 A 
ATOM     13  C   UNL     1       2.345   7.621  18.278  0.00  0.00    +0.000 A 
ATOM     14  C   UNL     1       1.802   8.556  19.152  0.00  0.00    +0.000 A 
ATOM     15  C   UNL     1       1.439   8.160  20.430  0.00  0.00    +0.000 A 
ATOM     16  C   UNL     1       1.651   6.837  20.785  0.00  0.00    +0.000 A 
ATOM     17  N   UNL     1       2.190   5.909  19.965  0.00  0.00    +0.000 NA
ENDBRANCH  11  12
ENDBRANCH   6   7
BRANCH   1  19
ATOM     18  N   UNL     1       5.671   4.341  15.282  0.00  0.00    +0.000 N 
ATOM     19  C   UNL     1       5.698   5.590  15.881  0.00  0.00    +0.000 C 
ATOM     20  O   UNL     1       5.308   6.595  15.306  0.00  0.00    +0.000 OA
ATOM     21  H   UNL     1       5.867   3.503  15.816  0.00  0.00    +0.000 HD
BRANCH  18  22
ATOM     22  C   UNL     1       5.249   4.177  13.903  0.00  0.00    +0.000 C 
BRANCH  22  23
ATOM     23  C   UNL     1       6.412   3.843  12.967  0.00  0.00    +0.000 C 
BRANCH  23  24
ATOM     24  O   UNL     1       5.899   3.379  11.714  0.00  0.00    +0.000 OA
BRANCH  24  26
ATOM     25  C   UNL     1       3.820   3.591  10.554  0.00  0.00    +0.000 C 
ATOM     26  C   UNL     1       4.510   3.067  11.798  0.00  0.00    +0.000 C 
ENDBRANCH  24  26
ENDBRANCH  23  24
ENDBRANCH  22  23
ENDBRANCH  18  22
ENDBRANCH   1  19
TORSDOF 7
ENDMDL
MODEL 2
REMARK VINA RESULT:      -7.0      2.599      6.829
REMARK  Name = 
REMARK  8 active torsions:
REMARK  status: ('A' for Active; 'I' for Inactive)
REMARK    1  A    between atoms: C_1  and  C_2
REMARK    2  A    between atoms: C_2  and  O_3
REMARK    3  A    between atoms: O_3  and  C_4
REMARK    4  A    between atoms: C_4  and  C_5
REMARK    5  A    between atoms: C_5  and  N_6
REMARK    6  A    between atoms: C_7  and  C_9
REMARK    7  A    between atoms: C_14  and  N_15
REMARK    8  A    between atoms: C_19  and  C_20
REMARK                            x       y       z     vdW  Elec       q    Type
REMARK                         _______ _______ _______ _____ _____    ______ ____
ROOT
ATOM      1  C   UNL     1       2.952   4.907  18.252  0.00  0.00    +0.000 A 
ATOM      2  C   UNL     1       1.747   4.176  18.308  0.00  0.00    +0.000 A 
ATOM      3  C   UNL     1       1.722   2.833  17.962  0.00  0.00    +0.000 A 
ATOM      4  C   UNL     1       2.913   2.257  17.594  0.00  0.00    +0.000 A 
ATOM      5  N   UNL     1       4.084   2.929  17.556  0.00  0.00    +0.000 NA
ATOM      6  C   UNL     1       4.139   4.253  17.879  0.00  0.00    +0.000 A 
ENDROOT
BRANCH   6   7
ATOM      7  N   UNL     1       5.393   4.802  17.786  0.00  0.00    +0.000 N 
ATOM      8  C   UNL     1       6.436   4.775  18.795  0.00  0.00    +0.000 C 
ATOM      9  C   UNL     1       7.011   6.182  18.752  0.00  0.00    +0.000 C 
ATOM     10  C   UNL     1       6.917   6.574  17.285  0.00  0.00    +0.000 C 
ATOM     11  C   UNL     1       5.690   5.813  16.745  0.00  0.00    +0.000 C 
BRANCH  11  12
ATOM     12  C   UNL     1       6.008   5.199  15.382  0.00  0.00    +0.000 A 
ATOM     13  C   UNL     1       5.076   4.398  14.712  0.00  0.00    +0.000 A 
ATOM     14  C   UNL     1       5.413   3.831  13.488  0.00  0.00    +0.000 A 
ATOM     15  C   UNL     1       6.669   4.069  12.953  0.00  0.00    +0.000 A 
ATOM     16  C   UNL     1       7.546   4.858  13.679  0.00  0.00    +0.000 A 
ATOM     17  N   UNL     1       7.255   5.411  14.876  0.00  0.00    +0.000 NA
ENDBRANCH  11  12
ENDBRANCH   6   7
BRANCH   1  19
ATOM     18  N   UNL     1       2.631   7.234  17.615  0.00  0.00    +0.000 N 
ATOM     19  C   UNL     1       2.882   6.342  18.645  0.00  0.00    +0.000 C 
ATOM     20  O   UNL     1       3.031   6.710  19.800  0.00  0.00    +0.000 OA
ATOM     21  H   UNL     1       2.374   6.905  16.692  0.00  0.00    +0.000 HD
BRANCH  18  22
ATOM     22  C   UNL     1       2.611   8.667  17.847  0.00  0.00    +0.000 C 
BRANCH  22  23
ATOM     23  C   UNL     1       1.191   9.222  17.975  0.00  0.00    +0.000 C 
BRANCH  23  24
ATOM     24  O   UNL     1       1.008   9.767  19.286  0.00  0.00    +0.000 OA
BRANCH  24  26
ATOM     25  C   UNL     1      -1.028  10.270  18.139  0.00  0.00    +0.000 C 
ATOM     26  C   UNL     1      -0.329  10.222  19.483  0.00  0.00    +0.000 C 
ENDBRANCH  24  26
ENDBRANCH  23  24
ENDBRANCH  22  23
ENDBRANCH  18  22
ENDBRANCH   1  19
TORSDOF 7
ENDMDL
MODEL 3
REMARK VINA RESULT:      -6.9      2.269      6.495
REMARK  Name = 
REMARK  8 active torsions:
REMARK  status: ('A' for Active; 'I' for Inactive)
REMARK    1  A    between atoms: C_1  and  C_2
REMARK    2  A    between atoms: C_2  and  O_3
REMARK    3  A    between atoms: O_3  and  C_4
REMARK    4  A    between atoms: C_4  and  C_5
REMARK    5  A    between atoms: C_5  and  N_6
REMARK    6  A    between atoms: C_7  and  C_9
REMARK    7  A    between atoms: C_14  and  N_15
REMARK    8  A    between atoms: C_19  and  C_20
REMARK                            x       y       z     vdW  Elec       q    Type
REMARK                         _______ _______ _______ _____ _____    ______ ____
ROOT
ATOM      1  C   UNL     1       3.425   4.767  17.924  0.00  0.00    +0.000 A 
ATOM      2  C   UNL     1       2.619   4.152  18.904  0.00  0.00    +0.000 A 
ATOM      3  C   UNL     1       2.604   2.772  19.039  0.00  0.00    +0.000 A 
ATOM      4  C   UNL     1       3.418   2.050  18.201  0.00  0.00    +0.000 A 
ATOM      5  N   UNL     1       4.217   2.616  17.271  0.00  0.00    +0.000 NA
ATOM      6  C   UNL     1       4.245   3.969  17.106  0.00  0.00    +0.000 A 
ENDROOT
BRANCH   6   7
ATOM      7  N   UNL     1       5.097   4.398  16.119  0.00  0.00    +0.000 N 
ATOM      8  C   UNL     1       4.759   4.684  14.737  0.00  0.00    +0.000 C 
ATOM      9  C   UNL     1       5.916   4.081  13.955  0.00  0.00    +0.000 C 
ATOM     10  C   UNL     1       7.123   4.299  14.855  0.00  0.00    +0.000 C 
ATOM     11  C   UNL     1       6.563   4.269  16.291  0.00  0.00    +0.000 C 
BRANCH  11  12
ATOM     12  C   UNL     1       7.174   5.400  17.119  0.00  0.00    +0.000 A 
ATOM     13  C   UNL     1       7.499   5.216  18.468  0.00  0.00    +0.000 A 
ATOM     14  C   UNL     1       8.024   6.277  19.198  0.00  0.00    +0.000 A 
ATOM     15  C   UNL     1       8.216   7.500  18.574  0.00  0.00    +0.000 A 
ATOM     16  C   UNL     1       7.857   7.613  17.241  0.00  0.00    +0.000 A 
ATOM     17  N   UNL     1       7.331   6.607  16.509  0.00  0.00    +0.000 NA
ENDBRANCH  11  12
ENDBRANCH   6   7
BRANCH   1  19
ATOM     18  N   UNL     1       2.128   6.824  18.033  0.00  0.00    +0.000 N 
ATOM     19  C   UNL     1       3.379   6.254  17.856  0.00  0.00    +0.000 C 
ATOM     20  O   UNL     1       4.378   6.930  17.663  0.00  0.00    +0.000 OA
ATOM     21  H   UNL     1       1.338   6.263  18.328  0.00  0.00    +0.000 HD
BRANCH  18  22
ATOM     22  C   UNL     1       1.930   8.257  17.918  0.00  0.00    +0.000 C 
BRANCH  22  23
ATOM     23  C   UNL     1       1.798   8.944  19.279  0.00  0.00    +0.000 C 
BRANCH  23  24
ATOM     24  O   UNL     1       1.631   7.954  20.300  0.00  0.00    +0.000 OA
BRANCH  24  26
ATOM     25  C   UNL     1      -0.302   8.620  21.538  0.00  0.00    +0.000 C 
ATOM     26  C   UNL     1       1.212   8.536  21.532  0.00  0.00    +0.000 C 
ENDBRANCH  24  26
ENDBRANCH  23  24
ENDBRANCH  22  23
ENDBRANCH  18  22
ENDBRANCH   1  19
TORSDOF 7
ENDMDL
MODEL 4
REMARK VINA RESULT:      -6.9      1.627      2.901
REMARK  Name = 
REMARK  8 active torsions:
REMARK  status: ('A' for Active; 'I' for Inactive)
REMARK    1  A    between atoms: C_1  and  C_2
REMARK    2  A    between atoms: C_2  and  O_3
REMARK    3  A    between atoms: O_3  and  C_4
REMARK    4  A    between atoms: C_4  and  C_5
REMARK    5  A    between atoms: C_5  and  N_6
REMARK    6  A    between atoms: C_7  and  C_9
REMARK    7  A    between atoms: C_14  and  N_15
REMARK    8  A    between atoms: C_19  and  C_20
REMARK                            x       y       z     vdW  Elec       q    Type
REMARK                         _______ _______ _______ _____ _____    ______ ____
ROOT
ATOM      1  C   UNL     1       6.223   4.792  17.180  0.00  0.00    +0.000 A 
ATOM      2  C   UNL     1       7.556   4.394  17.408  0.00  0.00    +0.000 A 
ATOM      3  C   UNL     1       8.258   4.880  18.501  0.00  0.00    +0.000 A 
ATOM      4  C   UNL     1       7.592   5.731  19.348  0.00  0.00    +0.000 A 
ATOM      5  N   UNL     1       6.308   6.107  19.165  0.00  0.00    +0.000 NA
ATOM      6  C   UNL     1       5.595   5.657  18.094  0.00  0.00    +0.000 A 
ENDROOT
BRANCH   6   7
ATOM      7  N   UNL     1       4.308   6.130  18.036  0.00  0.00    +0.000 N 
ATOM      8  C   UNL     1       3.772   7.091  17.090  0.00  0.00    +0.000 C 
ATOM      9  C   UNL     1       2.900   7.991  17.952  0.00  0.00    +0.000 C 
ATOM     10  C   UNL     1       2.326   7.053  19.002  0.00  0.00    +0.000 C 
ATOM     11  C   UNL     1       3.399   5.961  19.193  0.00  0.00    +0.000 C 
BRANCH  11  12
ATOM     12  C   UNL     1       2.743   4.581  19.248  0.00  0.00    +0.000 A 
ATOM     13  C   UNL     1       1.784   4.196  18.305  0.00  0.00    +0.000 A 
ATOM     14  C   UNL     1       1.187   2.944  18.405  0.00  0.00    +0.000 A 
ATOM     15  C   UNL     1       1.552   2.100  19.443  0.00  0.00    +0.000 A 
ATOM     16  C   UNL     1       2.495   2.555  20.349  0.00  0.00    +0.000 A 
ATOM     17  N   UNL     1       3.083   3.769  20.288  0.00  0.00    +0.000 NA
ENDBRANCH  11  12
ENDBRANCH   6   7
BRANCH   1  19
ATOM     18  N   UNL     1       6.269   4.279  14.801  0.00  0.00    +0.000 N 
ATOM     19  C   UNL     1       5.548   4.216  15.983  0.00  0.00    +0.000 C 
ATOM     20  O   UNL     1       4.435   3.716  16.039  0.00  0.00    +0.000 OA
ATOM     21  H   UNL     1       7.239   4.569  14.798  0.00  0.00    +0.000 HD
BRANCH  18  22
ATOM     22  C   UNL     1       5.700   3.821  13.547  0.00  0.00    +0.000 C 
BRANCH  22  23
ATOM     23  C   UNL     1       6.660   3.993  12.368  0.00  0.00    +0.000 C 
BRANCH  23  24
ATOM     24  O   UNL     1       6.950   2.713  11.798  0.00  0.00    +0.000 OA
BRANCH  24  26
ATOM     25  C   UNL     1       6.141   0.606  11.010  0.00  0.00    +0.000 C 
ATOM     26  C   UNL     1       5.758   1.990  11.495  0.00  0.00    +0.000 C 
ENDBRANCH  24  26
ENDBRANCH  23  24
ENDBRANCH  22  23
ENDBRANCH  18  22
ENDBRANCH   1  19
TORSDOF 7
ENDMDL
MODEL 5
REMARK VINA RESULT:      -6.9      1.507      2.766
REMARK  Name = 
REMARK  8 active torsions:
REMARK  status: ('A' for Active; 'I' for Inactive)
REMARK    1  A    between atoms: C_1  and  C_2
REMARK    2  A    between atoms: C_2  and  O_3
REMARK    3  A    between atoms: O_3  and  C_4
REMARK    4  A    between atoms: C_4  and  C_5
REMARK    5  A    between atoms: C_5  and  N_6
REMARK    6  A    between atoms: C_7  and  C_9
REMARK    7  A    between atoms: C_14  and  N_15
REMARK    8  A    between atoms: C_19  and  C_20
REMARK                            x       y       z     vdW  Elec       q    Type
REMARK                         _______ _______ _______ _____ _____    ______ ____
ROOT
ATOM      1  C   UNL     1       5.966   4.786  17.184  0.00  0.00    +0.000 A 
ATOM      2  C   UNL     1       7.298   4.350  17.342  0.00  0.00    +0.000 A 
ATOM      3  C   UNL     1       8.058   4.786  18.417  0.00  0.00    +0.000 A 
ATOM      4  C   UNL     1       7.450   5.627  19.316  0.00  0.00    +0.000 A 
ATOM      5  N   UNL     1       6.169   6.039  19.200  0.00  0.00    +0.000 NA
ATOM      6  C   UNL     1       5.400   5.638  18.149  0.00  0.00    +0.000 A 
ENDROOT
BRANCH   6   7
ATOM      7  N   UNL     1       4.124   6.143  18.161  0.00  0.00    +0.000 N 
ATOM      8  C   UNL     1       3.563   7.122  17.248  0.00  0.00    +0.000 C 
ATOM      9  C   UNL     1       2.760   8.038  18.158  0.00  0.00    +0.000 C 
ATOM     10  C   UNL     1       2.219   7.110  19.234  0.00  0.00    +0.000 C 
ATOM     11  C   UNL     1       3.273   5.991  19.364  0.00  0.00    +0.000 C 
BRANCH  11  12
ATOM     12  C   UNL     1       2.587   4.627  19.448  0.00  0.00    +0.000 A 
ATOM     13  C   UNL     1       1.739   4.178  18.430  0.00  0.00    +0.000 A 
ATOM     14  C   UNL     1       1.108   2.945  18.556  0.00  0.00    +0.000 A 
ATOM     15  C   UNL     1       1.330   2.183  19.693  0.00  0.00    +0.000 A 
ATOM     16  C   UNL     1       2.169   2.699  20.667  0.00  0.00    +0.000 A 
ATOM     17  N   UNL     1       2.785   3.898  20.582  0.00  0.00    +0.000 NA
ENDBRANCH  11  12
ENDBRANCH   6   7
BRANCH   1  19
ATOM     18  N   UNL     1       5.846   4.449  14.776  0.00  0.00    +0.000 N 
ATOM     19  C   UNL     1       5.226   4.262  16.002  0.00  0.00    +0.000 C 
ATOM     20  O   UNL     1       4.147   3.700  16.104  0.00  0.00    +0.000 OA
ATOM     21  H   UNL     1       6.798   4.791  14.721  0.00  0.00    +0.000 HD
BRANCH  18  22
ATOM     22  C   UNL     1       5.202   4.053  13.538  0.00  0.00    +0.000 C 
BRANCH  22  23
ATOM     23  C   UNL     1       6.185   3.467  12.524  0.00  0.00    +0.000 C 
BRANCH  23  24
ATOM     24  O   UNL     1       5.512   3.244  11.280  0.00  0.00    +0.000 OA
BRANCH  24  26
ATOM     25  C   UNL     1       3.408   3.675  10.233  0.00  0.00    +0.000 C 
ATOM     26  C   UNL     1       4.103   3.120  11.460  0.00  0.00    +0.000 C 
ENDBRANCH  24  26
ENDBRANCH  23  24
ENDBRANCH  22  23
ENDBRANCH  18  22
ENDBRANCH   1  19
TORSDOF 7
ENDMDL
MODEL 6
REMARK VINA RESULT:      -6.9      2.208      6.504
REMARK  Name = 
REMARK  8 active torsions:
REMARK  status: ('A' for Active; 'I' for Inactive)
REMARK    1  A    between atoms: C_1  and  C_2
REMARK    2  A    between atoms: C_2  and  O_3
REMARK    3  A    between atoms: O_3  and  C_4
REMARK    4  A    between atoms: C_4  and  C_5
REMARK    5  A    between atoms: C_5  and  N_6
REMARK    6  A    between atoms: C_7  and  C_9
REMARK    7  A    between atoms: C_14  and  N_15
REMARK    8  A    between atoms: C_19  and  C_20
REMARK                            x       y       z     vdW  Elec       q    Type
REMARK                         _______ _______ _______ _____ _____    ______ ____
ROOT
ATOM      1  C   UNL     1       3.211   4.955  17.938  0.00  0.00    +0.000 A 
ATOM      2  C   UNL     1       2.314   4.396  18.872  0.00  0.00    +0.000 A 
ATOM      3  C   UNL     1       2.225   3.021  19.027  0.00  0.00    +0.000 A 
ATOM      4  C   UNL     1       3.058   2.247  18.257  0.00  0.00    +0.000 A 
ATOM      5  N   UNL     1       3.943   2.758  17.374  0.00  0.00    +0.000 NA
ATOM      6  C   UNL     1       4.045   4.105  17.190  0.00  0.00    +0.000 A 
ENDROOT
BRANCH   6   7
ATOM      7  N   UNL     1       4.980   4.475  16.256  0.00  0.00    +0.000 N 
ATOM      8  C   UNL     1       4.741   4.794  14.860  0.00  0.00    +0.000 C 
ATOM      9  C   UNL     1       5.893   4.111  14.137  0.00  0.00    +0.000 C 
ATOM     10  C   UNL     1       7.061   4.234  15.104  0.00  0.00    +0.000 C 
ATOM     11  C   UNL     1       6.420   4.238  16.506  0.00  0.00    +0.000 C 
BRANCH  11  12
ATOM     12  C   UNL     1       7.066   5.316  17.378  0.00  0.00    +0.000 A 
ATOM     13  C   UNL     1       7.260   6.616  16.898  0.00  0.00    +0.000 A 
ATOM     14  C   UNL     1       7.879   7.561  17.709  0.00  0.00    +0.000 A 
ATOM     15  C   UNL     1       8.294   7.196  18.980  0.00  0.00    +0.000 A 
ATOM     16  C   UNL     1       8.083   5.887  19.382  0.00  0.00    +0.000 A 
ATOM     17  N   UNL     1       7.499   4.942  18.614  0.00  0.00    +0.000 NA
ENDBRANCH  11  12
ENDBRANCH   6   7
BRANCH   1  19
ATOM     18  N   UNL     1       2.033   7.080  18.084  0.00  0.00    +0.000 N 
ATOM     19  C   UNL     1       3.239   6.441  17.843  0.00  0.00    +0.000 C 
ATOM     20  O   UNL     1       4.259   7.058  17.577  0.00  0.00    +0.000 OA
ATOM     21  H   UNL     1       1.234   6.567  18.437  0.00  0.00    +0.000 HD
BRANCH  18  22
ATOM     22  C   UNL     1       1.903   8.519  17.953  0.00  0.00    +0.000 C 
BRANCH  22  23
ATOM     23  C   UNL     1       1.422   9.187  19.242  0.00  0.00    +0.000 C 
BRANCH  23  24
ATOM     24  O   UNL     1       1.480   8.245  20.318  0.00  0.00    +0.000 OA
BRANCH  24  26
ATOM     25  C   UNL     1      -0.311   8.717  21.828  0.00  0.00    +0.000 C 
ATOM     26  C   UNL     1       1.176   8.857  21.570  0.00  0.00    +0.000 C 
ENDBRANCH  24  26
ENDBRANCH  23  24
ENDBRANCH  22  23
ENDBRANCH  18  22
ENDBRANCH   1  19
TORSDOF 7
ENDMDL
MODEL 7
REMARK VINA RESULT:      -6.9      0.972      1.352
REMARK  Name = 
REMARK  8 active torsions:
REMARK  status: ('A' for Active; 'I' for Inactive)
REMARK    1  A    between atoms: C_1  and  C_2
REMARK    2  A    between atoms: C_2  and  O_3
REMARK    3  A    between atoms: O_3  and  C_4
REMARK    4  A    between atoms: C_4  and  C_5
REMARK    5  A    between atoms: C_5  and  N_6
REMARK    6  A    between atoms: C_7  and  C_9
REMARK    7  A    between atoms: C_14  and  N_15
REMARK    8  A    between atoms: C_19  and  C_20
REMARK                            x       y       z     vdW  Elec       q    Type
REMARK                         _______ _______ _______ _____ _____    ______ ____
ROOT
ATOM      1  C   UNL     1       6.431   5.579  17.271  0.00  0.00    +0.000 A 
ATOM      2  C   UNL     1       7.686   6.151  17.566  0.00  0.00    +0.000 A 
ATOM      3  C   UNL     1       8.126   6.243  18.878  0.00  0.00    +0.000 A 
ATOM      4  C   UNL     1       7.304   5.735  19.853  0.00  0.00    +0.000 A 
ATOM      5  N   UNL     1       6.110   5.160  19.595  0.00  0.00    +0.000 NA
ATOM      6  C   UNL     1       5.644   5.065  18.317  0.00  0.00    +0.000 A 
ENDROOT
BRANCH   6   7
ATOM      7  N   UNL     1       4.414   4.466  18.210  0.00  0.00    +0.000 N 
ATOM      8  C   UNL     1       4.137   3.041  18.171  0.00  0.00    +0.000 C 
ATOM      9  C   UNL     1       3.074   2.916  17.091  0.00  0.00    +0.000 C 
ATOM     10  C   UNL     1       2.251   4.187  17.232  0.00  0.00    +0.000 C 
ATOM     11  C   UNL     1       3.240   5.247  17.758  0.00  0.00    +0.000 C 
BRANCH  11  12
ATOM     12  C   UNL     1       2.592   6.063  18.878  0.00  0.00    +0.000 A 
ATOM     13  C   UNL     1       2.070   5.443  20.018  0.00  0.00    +0.000 A 
ATOM     14  C   UNL     1       1.460   6.215  21.001  0.00  0.00    +0.000 A 
ATOM     15  C   UNL     1       1.379   7.588  20.831  0.00  0.00    +0.000 A 
ATOM     16  C   UNL     1       1.904   8.131  19.669  0.00  0.00    +0.000 A 
ATOM     17  N   UNL     1       2.489   7.408  18.690  0.00  0.00    +0.000 NA
ENDBRANCH  11  12
ENDBRANCH   6   7
BRANCH   1  19
ATOM     18  N   UNL     1       6.618   4.493  15.101  0.00  0.00    +0.000 N 
ATOM     19  C   UNL     1       6.044   5.520  15.834  0.00  0.00    +0.000 C 
ATOM     20  O   UNL     1       5.267   6.319  15.334  0.00  0.00    +0.000 OA
ATOM     21  H   UNL     1       7.148   3.761  15.557  0.00  0.00    +0.000 HD
BRANCH  18  22
ATOM     22  C   UNL     1       6.385   4.364  13.674  0.00  0.00    +0.000 C 
BRANCH  22  23
ATOM     23  C   UNL     1       5.164   3.500  13.353  0.00  0.00    +0.000 C 
BRANCH  23  24
ATOM     24  O   UNL     1       5.151   3.192  11.955  0.00  0.00    +0.000 OA
BRANCH  24  26
ATOM     25  C   UNL     1       6.101   1.133  11.202  0.00  0.00    +0.000 C 
ATOM     26  C   UNL     1       6.373   2.585  11.540  0.00  0.00    +0.000 C 
ENDBRANCH  24  26
ENDBRANCH  23  24
ENDBRANCH  22  23
ENDBRANCH  18  22
ENDBRANCH   1  19
TORSDOF 7
ENDMDL
MODEL 8
REMARK VINA RESULT:      -6.8      2.211      7.456
REMARK  Name = 
REMARK  8 active torsions:
REMARK  status: ('A' for Active; 'I' for Inactive)
REMARK    1  A    between atoms: C_1  and  C_2
REMARK    2  A    between atoms: C_2  and  O_3
REMARK    3  A    between atoms: O_3  and  C_4
REMARK    4  A    between atoms: C_4  and  C_5
REMARK    5  A    between atoms: C_5  and  N_6
REMARK    6  A    between atoms: C_7  and  C_9
REMARK    7  A    between atoms: C_14  and  N_15
REMARK    8  A    between atoms: C_19  and  C_20
REMARK                            x       y       z     vdW  Elec       q    Type
REMARK                         _______ _______ _______ _____ _____    ______ ____
ROOT
ATOM      1  C   UNL     1       3.078   4.866  18.100  0.00  0.00    +0.000 A 
ATOM      2  C   UNL     1       1.905   4.089  18.195  0.00  0.00    +0.000 A 
ATOM      3  C   UNL     1       1.940   2.727  17.938  0.00  0.00    +0.000 A 
ATOM      4  C   UNL     1       3.158   2.179  17.619  0.00  0.00    +0.000 A 
ATOM      5  N   UNL     1       4.300   2.896  17.547  0.00  0.00    +0.000 NA
ATOM      6  C   UNL     1       4.296   4.239  17.781  0.00  0.00    +0.000 A 
ENDROOT
BRANCH   6   7
ATOM      7  N   UNL     1       5.527   4.834  17.664  0.00  0.00    +0.000 N 
ATOM      8  C   UNL     1       6.580   4.870  18.662  0.00  0.00    +0.000 C 
ATOM      9  C   UNL     1       7.099   6.297  18.581  0.00  0.00    +0.000 C 
ATOM     10  C   UNL     1       6.977   6.652  17.107  0.00  0.00    +0.000 C 
ATOM     11  C   UNL     1       5.775   5.832  16.597  0.00  0.00    +0.000 C 
BRANCH  11  12
ATOM     12  C   UNL     1       6.103   5.199  15.244  0.00  0.00    +0.000 A 
ATOM     13  C   UNL     1       5.205   4.332  14.613  0.00  0.00    +0.000 A 
ATOM     14  C   UNL     1       5.552   3.751  13.397  0.00  0.00    +0.000 A 
ATOM     15  C   UNL     1       6.785   4.041  12.835  0.00  0.00    +0.000 A 
ATOM     16  C   UNL     1       7.630   4.895  13.525  0.00  0.00    +0.000 A 
ATOM     17  N   UNL     1       7.329   5.464  14.712  0.00  0.00    +0.000 NA
ENDBRANCH  11  12
ENDBRANCH   6   7
BRANCH   1  19
ATOM     18  N   UNL     1       2.302   6.632  19.585  0.00  0.00    +0.000 N 
ATOM     19  C   UNL     1       2.944   6.319  18.397  0.00  0.00    +0.000 C 
ATOM     20  O   UNL     1       3.376   7.181  17.647  0.00  0.00    +0.000 OA
ATOM     21  H   UNL     1       2.074   5.910  20.258  0.00  0.00    +0.000 HD
BRANCH  18  22
ATOM     22  C   UNL     1       2.040   8.009  19.960  0.00  0.00    +0.000 C 
BRANCH  22  23
ATOM     23  C   UNL     1       1.105   8.122  21.166  0.00  0.00    +0.000 C 
BRANCH  23  24
ATOM     24  O   UNL     1       1.449   9.285  21.928  0.00  0.00    +0.000 OA
BRANCH  24  26
ATOM     25  C   UNL     1      -0.542   9.843  23.127  0.00  0.00    +0.000 C 
ATOM     26  C   UNL     1       0.371  10.218  21.976  0.00  0.00    +0.000 C 
ENDBRANCH  24  26
ENDBRANCH  23  24
ENDBRANCH  22  23
ENDBRANCH  18  22
ENDBRANCH   1  19
TORSDOF 7
ENDMDL
MODEL 9
REMARK VINA RESULT:      -6.7      2.353      6.490
REMARK  Name = 
REMARK  8 active torsions:
REMARK  status: ('A' for Active; 'I' for Inactive)
REMARK    1  A    between atoms: C_1  and  C_2
REMARK    2  A    between atoms: C_2  and  O_3
REMARK    3  A    between atoms: O_3  and  C_4
REMARK    4  A    between atoms: C_4  and  C_5
REMARK    5  A    between atoms: C_5  and  N_6
REMARK    6  A    between atoms: C_7  and  C_9
REMARK    7  A    between atoms: C_14  and  N_15
REMARK    8  A    between atoms: C_19  and  C_20
REMARK                            x       y       z     vdW  Elec       q    Type
REMARK                         _______ _______ _______ _____ _____    ______ ____
ROOT
ATOM      1  C   UNL     1       3.396   5.038  17.917  0.00  0.00    +0.000 A 
ATOM      2  C   UNL     1       2.540   4.496  18.898  0.00  0.00    +0.000 A 
ATOM      3  C   UNL     1       2.452   3.123  19.074  0.00  0.00    +0.000 A 
ATOM      4  C   UNL     1       3.245   2.335  18.277  0.00  0.00    +0.000 A 
ATOM      5  N   UNL     1       4.091   2.831  17.348  0.00  0.00    +0.000 NA
ATOM      6  C   UNL     1       4.192   4.175  17.143  0.00  0.00    +0.000 A 
ENDROOT
BRANCH   6   7
ATOM      7  N   UNL     1       5.085   4.528  16.163  0.00  0.00    +0.000 N 
ATOM      8  C   UNL     1       4.793   4.775  14.762  0.00  0.00    +0.000 C 
ATOM      9  C   UNL     1       5.941   4.094  14.034  0.00  0.00    +0.000 C 
ATOM     10  C   UNL     1       7.135   4.295  14.955  0.00  0.00    +0.000 C 
ATOM     11  C   UNL     1       6.539   4.345  16.377  0.00  0.00    +0.000 C 
BRANCH  11  12
ATOM     12  C   UNL     1       7.178   5.481  17.177  0.00  0.00    +0.000 A 
ATOM     13  C   UNL     1       7.528   5.312  18.521  0.00  0.00    +0.000 A 
ATOM     14  C   UNL     1       8.079   6.378  19.226  0.00  0.00    +0.000 A 
ATOM     15  C   UNL     1       8.269   7.590  18.581  0.00  0.00    +0.000 A 
ATOM     16  C   UNL     1       7.884   7.688  17.254  0.00  0.00    +0.000 A 
ATOM     17  N   UNL     1       7.334   6.678  16.547  0.00  0.00    +0.000 NA
ENDBRANCH  11  12
ENDBRANCH   6   7
BRANCH   1  19
ATOM     18  N   UNL     1       2.206   7.161  17.949  0.00  0.00    +0.000 N 
ATOM     19  C   UNL     1       3.428   6.523  17.803  0.00  0.00    +0.000 C 
ATOM     20  O   UNL     1       4.462   7.140  17.600  0.00  0.00    +0.000 OA
ATOM     21  H   UNL     1       1.385   6.651  18.251  0.00  0.00    +0.000 HD
BRANCH  18  22
ATOM     22  C   UNL     1       2.083   8.598  17.787  0.00  0.00    +0.000 C 
BRANCH  22  23
ATOM     23  C   UNL     1       1.378   9.264  18.970  0.00  0.00    +0.000 C 
BRANCH  23  24
ATOM     24  O   UNL     1       0.774  10.489  18.538  0.00  0.00    +0.000 OA
BRANCH  24  26
ATOM     25  C   UNL     1       2.056  12.504  18.464  0.00  0.00    +0.000 C 
ATOM     26  C   UNL     1       1.206  11.594  19.328  0.00  0.00    +0.000 C 
ENDBRANCH  24  26
ENDBRANCH  23  24
ENDBRANCH  22  23
ENDBRANCH  18  22
ENDBRANCH   1  19
TORSDOF 7
ENDMDL
