MODEL 1
REMARK VINA RESULT:      -7.7      0.000      0.000
REMARK  Name = 
REMARK  2 active torsions:
REMARK  status: ('A' for Active; 'I' for Inactive)
REMARK    1  A    between atoms: C_1  and  O_2
REMARK    2  A    between atoms: O_2  and  C_3
REMARK                            x       y       z     vdW  Elec       q    Type
REMARK                         _______ _______ _______ _____ _____    ______ ____
ROOT
ATOM      1  C   UNL     1       5.951   4.671  15.174  0.00  0.00    +0.000 A 
ATOM      2  C   UNL     1       5.635   6.033  15.067  0.00  0.00    +0.000 A 
ATOM      3  C   UNL     1       4.862   6.663  16.045  0.00  0.00    +0.000 A 
ATOM      4  C   UNL     1       4.407   5.912  17.119  0.00  0.00    +0.000 A 
ATOM      5  C   UNL     1       4.700   4.553  17.229  0.00  0.00    +0.000 A 
ATOM      6  C   UNL     1       5.467   3.922  16.255  0.00  0.00    +0.000 A 
ATOM      7  C   UNL     1       4.082   3.974  18.461  0.00  0.00    +0.000 C 
ATOM      8  C   UNL     1       3.373   5.167  19.136  0.00  0.00    +0.000 C 
ATOM      9  C   UNL     1       3.563   6.404  18.246  0.00  0.00    +0.000 C 
ATOM     10  N   UNL     1       5.022   3.348  19.355  0.00  0.00    +0.000 N 
ATOM     11  C   UNL     1       4.568   2.131  19.798  0.00  0.00    +0.000 C 
ATOM     12  O   UNL     1       5.081   1.467  20.680  0.00  0.00    +0.000 OA
ATOM     13  N   UNL     1       3.458   1.802  19.094  0.00  0.00    +0.000 N 
ATOM     14  C   UNL     1       3.102   2.811  18.248  0.00  0.00    +0.000 C 
ATOM     15  O   UNL     1       2.124   2.793  17.516  0.00  0.00    +0.000 OA
ATOM     16  H   UNL     1       5.818   3.802  19.784  0.00  0.00    +0.000 HD
ATOM     17  H   UNL     1       2.945   0.945  19.211  0.00  0.00    +0.000 HD
ENDROOT
BRANCH   1  19
ATOM     18  C   UNL     1       6.015   3.641  13.043  0.00  0.00    +0.000 C 
ATOM     19  O   UNL     1       6.686   3.966  14.258  0.00  0.00    +0.000 OA
ENDBRANCH   1  19
TORSDOF 1
ENDMDL
MODEL 2
REMARK VINA RESULT:      -7.5      1.355      1.406
REMARK  Name = 
REMARK  2 active torsions:
REMARK  status: ('A' for Active; 'I' for Inactive)
REMARK    1  A    between atoms: C_1  and  O_2
REMARK    2  A    between atoms: O_2  and  C_3
REMARK                            x       y       z     vdW  Elec       q    Type
REMARK                         _______ _______ _______ _____ _____    ______ ____
ROOT
ATOM      1  C   UNL     1       5.473   4.568  15.805  0.00  0.00    +0.000 A 
ATOM      2  C   UNL     1       5.533   5.936  15.504  0.00  0.00    +0.000 A 
ATOM      3  C   UNL     1       4.789   6.859  16.242  0.00  0.00    +0.000 A 
ATOM      4  C   UNL     1       3.986   6.396  17.272  0.00  0.00    +0.000 A 
ATOM      5  C   UNL     1       3.906   5.036  17.574  0.00  0.00    +0.000 A 
ATOM      6  C   UNL     1       4.642   4.113  16.838  0.00  0.00    +0.000 A 
ATOM      7  C   UNL     1       2.964   4.797  18.710  0.00  0.00    +0.000 C 
ATOM      8  C   UNL     1       2.475   6.205  19.109  0.00  0.00    +0.000 C 
ATOM      9  C   UNL     1       3.116   7.225  18.155  0.00  0.00    +0.000 C 
ATOM     10  N   UNL     1       3.552   4.109  19.830  0.00  0.00    +0.000 N 
ATOM     11  C   UNL     1       2.739   3.105  20.292  0.00  0.00    +0.000 C 
ATOM     12  O   UNL     1       2.913   2.476  21.320  0.00  0.00    +0.000 OA
ATOM     13  N   UNL     1       1.717   2.940  19.419  0.00  0.00    +0.000 N 
ATOM     14  C   UNL     1       1.773   3.871  18.423  0.00  0.00    +0.000 C 
ATOM     15  O   UNL     1       0.960   3.971  17.517  0.00  0.00    +0.000 OA
ATOM     16  H   UNL     1       4.353   4.426  20.360  0.00  0.00    +0.000 HD
ATOM     17  H   UNL     1       0.993   2.249  19.516  0.00  0.00    +0.000 HD
ENDROOT
BRANCH   1  19
ATOM     18  C   UNL     1       6.247   3.764  13.716  0.00  0.00    +0.000 C 
ATOM     19  O   UNL     1       6.151   3.588  15.127  0.00  0.00    +0.000 OA
ENDBRANCH   1  19
TORSDOF 1
ENDMDL
MODEL 3
REMARK VINA RESULT:      -7.4      2.456      4.789
REMARK  Name = 
REMARK  2 active torsions:
REMARK  status: ('A' for Active; 'I' for Inactive)
REMARK    1  A    between atoms: C_1  and  O_2
REMARK    2  A    between atoms: O_2  and  C_3
REMARK                            x       y       z     vdW  Elec       q    Type
REMARK                         _______ _______ _______ _____ _____    ______ ____
ROOT
ATOM      1  C   UNL     1       2.468   3.519  17.718  0.00  0.00    +0.000 A 
ATOM      2  C   UNL     1       1.828   4.574  18.383  0.00  0.00    +0.000 A 
ATOM      3  C   UNL     1       2.400   5.847  18.413  0.00  0.00    +0.000 A 
ATOM      4  C   UNL     1       3.616   6.046  17.778  0.00  0.00    +0.000 A 
ATOM      5  C   UNL     1       4.272   5.001  17.125  0.00  0.00    +0.000 A 
ATOM      6  C   UNL     1       3.706   3.730  17.097  0.00  0.00    +0.000 A 
ATOM      7  C   UNL     1       5.566   5.469  16.539  0.00  0.00    +0.000 C 
ATOM      8  C   UNL     1       5.629   6.970  16.890  0.00  0.00    +0.000 C 
ATOM      9  C   UNL     1       4.382   7.324  17.715  0.00  0.00    +0.000 C 
ATOM     10  N   UNL     1       5.683   5.256  15.120  0.00  0.00    +0.000 N 
ATOM     11  C   UNL     1       6.905   4.729  14.785  0.00  0.00    +0.000 C 
ATOM     12  O   UNL     1       7.328   4.603  13.651  0.00  0.00    +0.000 OA
ATOM     13  N   UNL     1       7.552   4.383  15.923  0.00  0.00    +0.000 N 
ATOM     14  C   UNL     1       6.831   4.746  17.023  0.00  0.00    +0.000 C 
ATOM     15  O   UNL     1       7.193   4.579  18.178  0.00  0.00    +0.000 OA
ATOM     16  H   UNL     1       5.056   5.624  14.417  0.00  0.00    +0.000 HD
ATOM     17  H   UNL     1       8.460   3.952  15.950  0.00  0.00    +0.000 HD
ENDROOT
BRANCH   1  19
ATOM     18  C   UNL     1       1.167   1.822  18.736  0.00  0.00    +0.000 C 
ATOM     19  O   UNL     1       1.993   2.235  17.650  0.00  0.00    +0.000 OA
ENDBRANCH   1  19
TORSDOF 1
ENDMDL
MODEL 4
REMARK VINA RESULT:      -7.3      2.505      4.818
REMARK  Name = 
REMARK  2 active torsions:
REMARK  status: ('A' for Active; 'I' for Inactive)
REMARK    1  A    between atoms: C_1  and  O_2
REMARK    2  A    between atoms: O_2  and  C_3
REMARK                            x       y       z     vdW  Elec       q    Type
REMARK                         _______ _______ _______ _____ _____    ______ ____
ROOT
ATOM      1  C   UNL     1       1.954   7.386  19.884  0.00  0.00    +0.000 A 
ATOM      2  C   UNL     1       2.129   8.415  18.948  0.00  0.00    +0.000 A 
ATOM      3  C   UNL     1       2.935   8.224  17.823  0.00  0.00    +0.000 A 
ATOM      4  C   UNL     1       3.563   7.000  17.655  0.00  0.00    +0.000 A 
ATOM      5  C   UNL     1       3.410   5.972  18.586  0.00  0.00    +0.000 A 
ATOM      6  C   UNL     1       2.611   6.160  19.710  0.00  0.00    +0.000 A 
ATOM      7  C   UNL     1       4.199   4.767  18.184  0.00  0.00    +0.000 C 
ATOM      8  C   UNL     1       4.858   5.166  16.847  0.00  0.00    +0.000 C 
ATOM      9  C   UNL     1       4.466   6.617  16.531  0.00  0.00    +0.000 C 
ATOM     10  N   UNL     1       3.417   3.567  18.047  0.00  0.00    +0.000 N 
ATOM     11  C   UNL     1       4.024   2.493  18.648  0.00  0.00    +0.000 C 
ATOM     12  O   UNL     1       3.665   1.335  18.546  0.00  0.00    +0.000 OA
ATOM     13  N   UNL     1       5.083   2.942  19.363  0.00  0.00    +0.000 N 
ATOM     14  C   UNL     1       5.258   4.283  19.186  0.00  0.00    +0.000 C 
ATOM     15  O   UNL     1       6.155   4.940  19.691  0.00  0.00    +0.000 OA
ATOM     16  H   UNL     1       2.628   3.447  17.424  0.00  0.00    +0.000 HD
ATOM     17  H   UNL     1       5.683   2.354  19.917  0.00  0.00    +0.000 HD
ENDROOT
BRANCH   1  19
ATOM     18  C   UNL     1       1.119   8.788  21.600  0.00  0.00    +0.000 C 
ATOM     19  O   UNL     1       1.200   7.487  21.023  0.00  0.00    +0.000 OA
ENDBRANCH   1  19
TORSDOF 1
ENDMDL
MODEL 5
REMARK VINA RESULT:      -7.3      2.303      4.652
REMARK  Name = 
REMARK  2 active torsions:
REMARK  status: ('A' for Active; 'I' for Inactive)
REMARK    1  A    between atoms: C_1  and  O_2
REMARK    2  A    between atoms: O_2  and  C_3
REMARK                            x       y       z     vdW  Elec       q    Type
REMARK                         _______ _______ _______ _____ _____    ______ ____
ROOT
ATOM      1  C   UNL     1       2.645   3.103  18.161  0.00  0.00    +0.000 A 
ATOM      2  C   UNL     1       1.626   3.983  18.554  0.00  0.00    +0.000 A 
ATOM      3  C   UNL     1       1.797   5.364  18.440  0.00  0.00    +0.000 A 
ATOM      4  C   UNL     1       2.995   5.848  17.940  0.00  0.00    +0.000 A 
ATOM      5  C   UNL     1       4.024   4.985  17.560  0.00  0.00    +0.000 A 
ATOM      6  C   UNL     1       3.859   3.608  17.675  0.00  0.00    +0.000 A 
ATOM      7  C   UNL     1       5.210   5.753  17.072  0.00  0.00    +0.000 C 
ATOM      8  C   UNL     1       4.780   7.232  17.169  0.00  0.00    +0.000 C 
ATOM      9  C   UNL     1       3.363   7.282  17.759  0.00  0.00    +0.000 C 
ATOM     10  N   UNL     1       5.624   5.414  15.735  0.00  0.00    +0.000 N 
ATOM     11  C   UNL     1       6.984   5.252  15.649  0.00  0.00    +0.000 C 
ATOM     12  O   UNL     1       7.613   5.125  14.616  0.00  0.00    +0.000 OA
ATOM     13  N   UNL     1       7.499   5.265  16.902  0.00  0.00    +0.000 N 
ATOM     14  C   UNL     1       6.528   5.521  17.825  0.00  0.00    +0.000 C 
ATOM     15  O   UNL     1       6.719   5.616  19.028  0.00  0.00    +0.000 OA
ATOM     16  H   UNL     1       5.047   5.482  14.906  0.00  0.00    +0.000 HD
ATOM     17  H   UNL     1       8.474   5.142  17.116  0.00  0.00    +0.000 HD
ENDROOT
BRANCH   1  19
ATOM     18  C   UNL     1       3.797   1.076  18.574  0.00  0.00    +0.000 C 
ATOM     19  O   UNL     1       2.576   1.738  18.252  0.00  0.00    +0.000 OA
ENDBRANCH   1  19
TORSDOF 1
ENDMDL
MODEL 6
REMARK VINA RESULT:      -7.3      1.116      1.399
REMARK  Name = 
REMARK  2 active torsions:
REMARK  status: ('A' for Active; 'I' for Inactive)
REMARK    1  A    between atoms: C_1  and  O_2
REMARK    2  A    between atoms: O_2  and  C_3
REMARK                            x       y       z     vdW  Elec       q    Type
REMARK                         _______ _______ _______ _____ _____    ______ ____
ROOT
ATOM      1  C   UNL     1       5.305   5.982  16.193  0.00  0.00    +0.000 A 
ATOM      2  C   UNL     1       4.593   7.165  16.438  0.00  0.00    +0.000 A 
ATOM      3  C   UNL     1       3.643   7.224  17.460  0.00  0.00    +0.000 A 
ATOM      4  C   UNL     1       3.411   6.088  18.220  0.00  0.00    +0.000 A 
ATOM      5  C   UNL     1       4.101   4.899  17.976  0.00  0.00    +0.000 A 
ATOM      6  C   UNL     1       5.046   4.836  16.957  0.00  0.00    +0.000 A 
ATOM      7  C   UNL     1       3.658   3.825  18.918  0.00  0.00    +0.000 C 
ATOM      8  C   UNL     1       2.605   4.508  19.816  0.00  0.00    +0.000 C 
ATOM      9  C   UNL     1       2.431   5.957  19.337  0.00  0.00    +0.000 C 
ATOM     10  N   UNL     1       4.722   3.251  19.700  0.00  0.00    +0.000 N 
ATOM     11  C   UNL     1       4.648   1.881  19.728  0.00  0.00    +0.000 C 
ATOM     12  O   UNL     1       5.318   1.155  20.440  0.00  0.00    +0.000 OA
ATOM     13  N   UNL     1       3.708   1.481  18.839  0.00  0.00    +0.000 N 
ATOM     14  C   UNL     1       3.082   2.554  18.276  0.00  0.00    +0.000 C 
ATOM     15  O   UNL     1       2.174   2.483  17.463  0.00  0.00    +0.000 OA
ATOM     16  H   UNL     1       5.333   3.759  20.326  0.00  0.00    +0.000 HD
ATOM     17  H   UNL     1       3.477   0.520  18.652  0.00  0.00    +0.000 HD
ENDROOT
BRANCH   1  19
ATOM     18  C   UNL     1       7.057   4.660  15.304  0.00  0.00    +0.000 C 
ATOM     19  O   UNL     1       6.241   5.824  15.204  0.00  0.00    +0.000 OA
ENDBRANCH   1  19
TORSDOF 1
ENDMDL
MODEL 7
REMARK VINA RESULT:      -7.2      2.600      4.725
REMARK  Name = 
REMARK  2 active torsions:
REMARK  status: ('A' for Active; 'I' for Inactive)
REMARK    1  A    between atoms: C_1  and  O_2
REMARK    2  A    between atoms: O_2  and  C_3
REMARK                            x       y       z     vdW  Elec       q    Type
REMARK                         _______ _______ _______ _____ _____    ______ ____
ROOT
ATOM      1  C   UNL     1       2.312   6.928  19.657  0.00  0.00    +0.000 A 
ATOM      2  C   UNL     1       1.532   6.242  20.599  0.00  0.00    +0.000 A 
ATOM      3  C   UNL     1       1.802   4.907  20.909  0.00  0.00    +0.000 A 
ATOM      4  C   UNL     1       2.853   4.273  20.264  0.00  0.00    +0.000 A 
ATOM      5  C   UNL     1       3.628   4.939  19.314  0.00  0.00    +0.000 A 
ATOM      6  C   UNL     1       3.359   6.268  18.999  0.00  0.00    +0.000 A 
ATOM      7  C   UNL     1       4.680   4.035  18.757  0.00  0.00    +0.000 C 
ATOM      8  C   UNL     1       4.481   2.701  19.508  0.00  0.00    +0.000 C 
ATOM      9  C   UNL     1       3.281   2.857  20.454  0.00  0.00    +0.000 C 
ATOM     10  N   UNL     1       6.024   4.527  18.909  0.00  0.00    +0.000 N 
ATOM     11  C   UNL     1       6.749   4.391  17.752  0.00  0.00    +0.000 C 
ATOM     12  O   UNL     1       7.948   4.574  17.648  0.00  0.00    +0.000 OA
ATOM     13  N   UNL     1       5.908   4.017  16.758  0.00  0.00    +0.000 N 
ATOM     14  C   UNL     1       4.648   3.811  17.238  0.00  0.00    +0.000 C 
ATOM     15  O   UNL     1       3.699   3.440  16.564  0.00  0.00    +0.000 OA
ATOM     16  H   UNL     1       6.471   4.756  19.788  0.00  0.00    +0.000 HD
ATOM     17  H   UNL     1       6.188   3.872  15.803  0.00  0.00    +0.000 HD
ENDROOT
BRANCH   1  19
ATOM     18  C   UNL     1       2.185   8.481  17.875  0.00  0.00    +0.000 C 
ATOM     19  O   UNL     1       2.112   8.229  19.276  0.00  0.00    +0.000 OA
ENDBRANCH   1  19
TORSDOF 1
ENDMDL
MODEL 8
REMARK VINA RESULT:      -7.2      2.133      5.043
REMARK  Name = 
REMARK  2 active torsions:
REMARK  status: ('A' for Active; 'I' for Inactive)
REMARK    1  A    between atoms: C_1  and  O_2
REMARK    2  A    between atoms: O_2  and  C_3
REMARK                            x       y       z     vdW  Elec       q    Type
REMARK                         _______ _______ _______ _____ _____    ______ ____
ROOT
ATOM      1  C   UNL     1       3.306   3.850  19.782  0.00  0.00    +0.000 A 
ATOM      2  C   UNL     1       2.514   4.957  20.122  0.00  0.00    +0.000 A 
ATOM      3  C   UNL     1       2.621   6.153  19.409  0.00  0.00    +0.000 A 
ATOM      4  C   UNL     1       3.529   6.227  18.364  0.00  0.00    +0.000 A 
ATOM      5  C   UNL     1       4.334   5.138  18.024  0.00  0.00    +0.000 A 
ATOM      6  C   UNL     1       4.233   3.946  18.735  0.00  0.00    +0.000 A 
ATOM      7  C   UNL     1       5.234   5.479  16.880  0.00  0.00    +0.000 C 
ATOM      8  C   UNL     1       4.869   6.935  16.521  0.00  0.00    +0.000 C 
ATOM      9  C   UNL     1       3.791   7.416  17.503  0.00  0.00    +0.000 C 
ATOM     10  N   UNL     1       5.099   4.607  15.743  0.00  0.00    +0.000 N 
ATOM     11  C   UNL     1       6.320   4.221  15.251  0.00  0.00    +0.000 C 
ATOM     12  O   UNL     1       6.500   3.622  14.206  0.00  0.00    +0.000 OA
ATOM     13  N   UNL     1       7.280   4.621  16.118  0.00  0.00    +0.000 N 
ATOM     14  C   UNL     1       6.742   5.347  17.139  0.00  0.00    +0.000 C 
ATOM     15  O   UNL     1       7.384   5.854  18.046  0.00  0.00    +0.000 OA
ATOM     16  H   UNL     1       4.246   4.447  15.222  0.00  0.00    +0.000 HD
ATOM     17  H   UNL     1       8.262   4.439  16.000  0.00  0.00    +0.000 HD
ENDROOT
BRANCH   1  19
ATOM     18  C   UNL     1       2.466   2.585  21.598  0.00  0.00    +0.000 C 
ATOM     19  O   UNL     1       3.284   2.645  20.432  0.00  0.00    +0.000 OA
ENDBRANCH   1  19
TORSDOF 1
ENDMDL
MODEL 9
REMARK VINA RESULT:      -7.1      1.427      2.241
REMARK  Name = 
REMARK  2 active torsions:
REMARK  status: ('A' for Active; 'I' for Inactive)
REMARK    1  A    between atoms: C_1  and  O_2
REMARK    2  A    between atoms: O_2  and  C_3
REMARK                            x       y       z     vdW  Elec       q    Type
REMARK                         _______ _______ _______ _____ _____    ______ ____
ROOT
ATOM      1  C   UNL     1       4.465   6.573  17.054  0.00  0.00    +0.000 A 
ATOM      2  C   UNL     1       3.550   7.547  17.478  0.00  0.00    +0.000 A 
ATOM      3  C   UNL     1       2.605   7.254  18.463  0.00  0.00    +0.000 A 
ATOM      4  C   UNL     1       2.583   5.978  19.007  0.00  0.00    +0.000 A 
ATOM      5  C   UNL     1       3.477   4.995  18.583  0.00  0.00    +0.000 A 
ATOM      6  C   UNL     1       4.418   5.283  17.599  0.00  0.00    +0.000 A 
ATOM      7  C   UNL     1       3.238   3.709  19.309  0.00  0.00    +0.000 C 
ATOM      8  C   UNL     1       2.078   4.023  20.277  0.00  0.00    +0.000 C 
ATOM      9  C   UNL     1       1.643   5.479  20.052  0.00  0.00    +0.000 C 
ATOM     10  N   UNL     1       4.388   3.206  20.013  0.00  0.00    +0.000 N 
ATOM     11  C   UNL     1       4.565   1.861  19.801  0.00  0.00    +0.000 C 
ATOM     12  O   UNL     1       5.354   1.153  20.397  0.00  0.00    +0.000 OA
ATOM     13  N   UNL     1       3.712   1.463  18.826  0.00  0.00    +0.000 N 
ATOM     14  C   UNL     1       2.902   2.490  18.438  0.00  0.00    +0.000 C 
ATOM     15  O   UNL     1       2.022   2.401  17.596  0.00  0.00    +0.000 OA
ATOM     16  H   UNL     1       4.896   3.696  20.737  0.00  0.00    +0.000 HD
ATOM     17  H   UNL     1       3.660   0.525  18.467  0.00  0.00    +0.000 HD
ENDROOT
BRANCH   1  19
ATOM     18  C   UNL     1       5.659   5.647  15.231  0.00  0.00    +0.000 C 
ATOM     19  O   UNL     1       5.414   6.762  16.084  0.00  0.00    +0.000 OA
ENDBRANCH   1  19
TORSDOF 1
ENDMDL
