MODEL 1
REMARK VINA RESULT:      -8.9      0.000      0.000
REMARK  Name = 
REMARK  7 active torsions:
REMARK  status: ('A' for Active; 'I' for Inactive)
REMARK    1  A    between atoms: C_2  and  O_20
REMARK    2  A    between atoms: N_3  and  C_4
REMARK    3  A    between atoms: C_17  and  C_18
REMARK    4  A    between atoms: C_18  and  O_19
REMARK    5  A    between atoms: O_20  and  C_21
REMARK    6  A    between atoms: C_21  and  C_22
REMARK    7  A    between atoms: C_25  and  N_26
REMARK                            x       y       z     vdW  Elec       q    Type
REMARK                         _______ _______ _______ _____ _____    ______ ____
ROOT
ATOM      1  C   UNL     1       2.650   6.684  18.586  0.00  0.00    +0.000 A 
ATOM      2  C   UNL     1       2.665   7.744  17.676  0.00  0.00    +0.000 A 
ATOM      3  C   UNL     1       2.070   8.965  17.990  0.00  0.00    +0.000 A 
ATOM      4  C   UNL     1       1.430   9.141  19.221  0.00  0.00    +0.000 A 
ATOM      5  C   UNL     1       0.838  10.364  19.557  0.00  0.00    +0.000 A 
ATOM      6  C   UNL     1       0.187  10.519  20.786  0.00  0.00    +0.000 A 
ATOM      7  C   UNL     1      -0.459  11.716  21.147  0.00  0.00    +0.000 A 
ATOM      8  C   UNL     1      -1.110  11.821  22.375  0.00  0.00    +0.000 A 
ATOM      9  C   UNL     1      -1.098  10.744  23.253  0.00  0.00    +0.000 A 
ATOM     10  C   UNL     1      -0.446   9.561  22.890  0.00  0.00    +0.000 A 
ATOM     11  C   UNL     1       0.187   9.422  21.661  0.00  0.00    +0.000 A 
ATOM     12  N   UNL     1       0.763   8.250  21.343  0.00  0.00    +0.000 NA
ATOM     13  C   UNL     1       1.365   8.082  20.145  0.00  0.00    +0.000 A 
ATOM     14  C   UNL     1       1.944   6.840  19.807  0.00  0.00    +0.000 A 
ENDROOT
BRANCH   1  17
ATOM     15  O   UNL     1       1.675   4.131  17.410  0.00  0.00    +0.000 OA
ATOM     16  C   UNL     1       2.810   4.304  17.805  0.00  0.00    +0.000 C 
ATOM     17  N   UNL     1       3.340   5.472  18.322  0.00  0.00    +0.000 N 
ATOM     18  H   UNL     1       4.347   5.491  18.461  0.00  0.00    +0.000 HD
BRANCH  16  19
ATOM     19  O   UNL     1       3.762   3.325  17.812  0.00  0.00    +0.000 OA
BRANCH  19  20
ATOM     20  C   UNL     1       5.134   3.750  17.967  0.00  0.00    +0.000 C 
BRANCH  20  21
ATOM     21  C   UNL     1       5.737   4.161  16.641  0.00  0.00    +0.000 A 
ATOM     22  C   UNL     1       5.114   3.804  15.432  0.00  0.00    +0.000 A 
ATOM     23  C   UNL     1       5.717   4.098  14.204  0.00  0.00    +0.000 A 
ATOM     24  C   UNL     1       6.944   4.767  14.182  0.00  0.00    +0.000 A 
ATOM     25  C   UNL     1       7.561   5.162  15.378  0.00  0.00    +0.000 A 
ATOM     26  C   UNL     1       6.952   4.860  16.600  0.00  0.00    +0.000 A 
BRANCH  24  27
ATOM     27  N   UNL     1       7.603   5.042  12.898  0.00  0.00    +0.000 N 
ATOM     28  O   UNL     1       7.277   4.350  11.923  0.00  0.00    +0.000 OA
ATOM     29  O   UNL     1       8.449   5.948  12.864  0.00  0.00    +0.000 OA
ENDBRANCH  24  27
ENDBRANCH  20  21
ENDBRANCH  19  20
ENDBRANCH  16  19
ENDBRANCH   1  17
BRANCH  14  30
ATOM     30  C   UNL     1       1.871   5.756  20.861  0.00  0.00    +0.000 C 
BRANCH  30  31
ATOM     31  O   UNL     1       1.024   4.675  20.464  0.00  0.00    +0.000 OA
ATOM     32  H   UNL     1       0.114   4.981  20.634  0.00  0.00    +0.000 HD
ENDBRANCH  30  31
ENDBRANCH  14  30
TORSDOF 7
ENDMDL
MODEL 2
REMARK VINA RESULT:      -8.7      0.837      1.471
REMARK  Name = 
REMARK  7 active torsions:
REMARK  status: ('A' for Active; 'I' for Inactive)
REMARK    1  A    between atoms: C_2  and  O_20
REMARK    2  A    between atoms: N_3  and  C_4
REMARK    3  A    between atoms: C_17  and  C_18
REMARK    4  A    between atoms: C_18  and  O_19
REMARK    5  A    between atoms: O_20  and  C_21
REMARK    6  A    between atoms: C_21  and  C_22
REMARK    7  A    between atoms: C_25  and  N_26
REMARK                            x       y       z     vdW  Elec       q    Type
REMARK                         _______ _______ _______ _____ _____    ______ ____
ROOT
ATOM      1  C   UNL     1       2.743   6.574  18.702  0.00  0.00    +0.000 A 
ATOM      2  C   UNL     1       2.807   7.622  17.780  0.00  0.00    +0.000 A 
ATOM      3  C   UNL     1       2.219   8.855  18.058  0.00  0.00    +0.000 A 
ATOM      4  C   UNL     1       1.537   9.055  19.262  0.00  0.00    +0.000 A 
ATOM      5  C   UNL     1       0.951  10.291  19.561  0.00  0.00    +0.000 A 
ATOM      6  C   UNL     1       0.257  10.470  20.763  0.00  0.00    +0.000 A 
ATOM      7  C   UNL     1      -0.385  11.680  21.086  0.00  0.00    +0.000 A 
ATOM      8  C   UNL     1      -1.079  11.810  22.287  0.00  0.00    +0.000 A 
ATOM      9  C   UNL     1      -1.116  10.743  23.177  0.00  0.00    +0.000 A 
ATOM     10  C   UNL     1      -0.468   9.548  22.854  0.00  0.00    +0.000 A 
ATOM     11  C   UNL     1       0.209   9.384  21.651  0.00  0.00    +0.000 A 
ATOM     12  N   UNL     1       0.778   8.200  21.368  0.00  0.00    +0.000 NA
ATOM     13  C   UNL     1       1.422   8.009  20.195  0.00  0.00    +0.000 A 
ATOM     14  C   UNL     1       1.995   6.755  19.894  0.00  0.00    +0.000 A 
ENDROOT
BRANCH   1  17
ATOM     15  O   UNL     1       5.354   5.603  19.747  0.00  0.00    +0.000 OA
ATOM     16  C   UNL     1       4.662   4.978  18.969  0.00  0.00    +0.000 C 
ATOM     17  N   UNL     1       3.424   5.349  18.478  0.00  0.00    +0.000 N 
ATOM     18  H   UNL     1       2.912   4.641  17.957  0.00  0.00    +0.000 HD
BRANCH  16  19
ATOM     19  O   UNL     1       5.029   3.778  18.433  0.00  0.00    +0.000 OA
BRANCH  19  20
ATOM     20  C   UNL     1       4.498   3.456  17.128  0.00  0.00    +0.000 C 
BRANCH  20  21
ATOM     21  C   UNL     1       5.449   3.872  16.027  0.00  0.00    +0.000 A 
ATOM     22  C   UNL     1       6.609   4.609  16.326  0.00  0.00    +0.000 A 
ATOM     23  C   UNL     1       7.440   5.079  15.304  0.00  0.00    +0.000 A 
ATOM     24  C   UNL     1       7.119   4.799  13.972  0.00  0.00    +0.000 A 
ATOM     25  C   UNL     1       5.985   4.036  13.658  0.00  0.00    +0.000 A 
ATOM     26  C   UNL     1       5.159   3.574  14.687  0.00  0.00    +0.000 A 
BRANCH  24  27
ATOM     27  N   UNL     1       7.964   5.325  12.891  0.00  0.00    +0.000 N 
ATOM     28  O   UNL     1       8.948   6.007  13.209  0.00  0.00    +0.000 OA
ATOM     29  O   UNL     1       7.642   5.059  11.724  0.00  0.00    +0.000 OA
ENDBRANCH  24  27
ENDBRANCH  20  21
ENDBRANCH  19  20
ENDBRANCH  16  19
ENDBRANCH   1  17
BRANCH  14  30
ATOM     30  C   UNL     1       1.867   5.685  20.957  0.00  0.00    +0.000 C 
BRANCH  30  31
ATOM     31  O   UNL     1       1.187   4.524  20.473  0.00  0.00    +0.000 OA
ATOM     32  H   UNL     1       1.078   3.944  21.249  0.00  0.00    +0.000 HD
ENDBRANCH  30  31
ENDBRANCH  14  30
TORSDOF 7
ENDMDL
MODEL 3
REMARK VINA RESULT:      -8.4      2.302      3.791
REMARK  Name = 
REMARK  7 active torsions:
REMARK  status: ('A' for Active; 'I' for Inactive)
REMARK    1  A    between atoms: C_2  and  O_20
REMARK    2  A    between atoms: N_3  and  C_4
REMARK    3  A    between atoms: C_17  and  C_18
REMARK    4  A    between atoms: C_18  and  O_19
REMARK    5  A    between atoms: O_20  and  C_21
REMARK    6  A    between atoms: C_21  and  C_22
REMARK    7  A    between atoms: C_25  and  N_26
REMARK                            x       y       z     vdW  Elec       q    Type
REMARK                         _______ _______ _______ _____ _____    ______ ____
ROOT
ATOM      1  C   UNL     1       1.223   8.926  20.937  0.00  0.00    +0.000 A 
ATOM      2  C   UNL     1       1.129   8.793  22.325  0.00  0.00    +0.000 A 
ATOM      3  C   UNL     1       0.216   9.551  23.056  0.00  0.00    +0.000 A 
ATOM      4  C   UNL     1      -0.611  10.475  22.409  0.00  0.00    +0.000 A 
ATOM      5  C   UNL     1      -1.541  11.237  23.127  0.00  0.00    +0.000 A 
ATOM      6  C   UNL     1      -2.349  12.169  22.466  0.00  0.00    +0.000 A 
ATOM      7  C   UNL     1      -3.266  12.986  23.153  0.00  0.00    +0.000 A 
ATOM      8  C   UNL     1      -4.040  13.914  22.458  0.00  0.00    +0.000 A 
ATOM      9  C   UNL     1      -3.917  14.012  21.077  0.00  0.00    +0.000 A 
ATOM     10  C   UNL     1      -3.010  13.190  20.401  0.00  0.00    +0.000 A 
ATOM     11  C   UNL     1      -2.208  12.276  21.074  0.00  0.00    +0.000 A 
ATOM     12  N   UNL     1      -1.322  11.540  20.383  0.00  0.00    +0.000 NA
ATOM     13  C   UNL     1      -0.515  10.660  21.017  0.00  0.00    +0.000 A 
ATOM     14  C   UNL     1       0.432   9.910  20.289  0.00  0.00    +0.000 A 
ENDROOT
BRANCH   1  17
ATOM     15  O   UNL     1       1.339   5.960  20.743  0.00  0.00    +0.000 OA
ATOM     16  C   UNL     1       2.097   6.706  20.158  0.00  0.00    +0.000 C 
ATOM     17  N   UNL     1       2.073   8.088  20.170  0.00  0.00    +0.000 N 
ATOM     18  H   UNL     1       2.682   8.558  19.503  0.00  0.00    +0.000 HD
BRANCH  16  19
ATOM     19  O   UNL     1       3.135   6.270  19.385  0.00  0.00    +0.000 OA
BRANCH  19  20
ATOM     20  C   UNL     1       2.845   5.219  18.437  0.00  0.00    +0.000 C 
BRANCH  20  21
ATOM     21  C   UNL     1       3.935   5.103  17.393  0.00  0.00    +0.000 A 
ATOM     22  C   UNL     1       4.525   6.255  16.845  0.00  0.00    +0.000 A 
ATOM     23  C   UNL     1       5.464   6.155  15.812  0.00  0.00    +0.000 A 
ATOM     24  C   UNL     1       5.828   4.893  15.333  0.00  0.00    +0.000 A 
ATOM     25  C   UNL     1       5.275   3.732  15.893  0.00  0.00    +0.000 A 
ATOM     26  C   UNL     1       4.336   3.843  16.922  0.00  0.00    +0.000 A 
BRANCH  24  27
ATOM     27  N   UNL     1       6.781   4.781  14.220  0.00  0.00    +0.000 N 
ATOM     28  O   UNL     1       7.769   5.528  14.231  0.00  0.00    +0.000 OA
ATOM     29  O   UNL     1       6.541   3.947  13.335  0.00  0.00    +0.000 OA
ENDBRANCH  24  27
ENDBRANCH  20  21
ENDBRANCH  19  20
ENDBRANCH  16  19
ENDBRANCH   1  17
BRANCH  14  30
ATOM     30  C   UNL     1       0.457  10.132  18.792  0.00  0.00    +0.000 C 
BRANCH  30  31
ATOM     31  O   UNL     1       0.973  11.419  18.446  0.00  0.00    +0.000 OA
ATOM     32  H   UNL     1       1.530  11.274  17.660  0.00  0.00    +0.000 HD
ENDBRANCH  30  31
ENDBRANCH  14  30
TORSDOF 7
ENDMDL
MODEL 4
REMARK VINA RESULT:      -8.4      4.927     11.169
REMARK  Name = 
REMARK  7 active torsions:
REMARK  status: ('A' for Active; 'I' for Inactive)
REMARK    1  A    between atoms: C_2  and  O_20
REMARK    2  A    between atoms: N_3  and  C_4
REMARK    3  A    between atoms: C_17  and  C_18
REMARK    4  A    between atoms: C_18  and  O_19
REMARK    5  A    between atoms: O_20  and  C_21
REMARK    6  A    between atoms: C_21  and  C_22
REMARK    7  A    between atoms: C_25  and  N_26
REMARK                            x       y       z     vdW  Elec       q    Type
REMARK                         _______ _______ _______ _____ _____    ______ ____
ROOT
ATOM      1  C   UNL     1       0.555  10.427  19.983  0.00  0.00    +0.000 A 
ATOM      2  C   UNL     1       0.975  10.764  18.693  0.00  0.00    +0.000 A 
ATOM      3  C   UNL     1       1.708   9.864  17.921  0.00  0.00    +0.000 A 
ATOM      4  C   UNL     1       2.051   8.611  18.437  0.00  0.00    +0.000 A 
ATOM      5  C   UNL     1       2.777   7.690  17.670  0.00  0.00    +0.000 A 
ATOM      6  C   UNL     1       3.127   6.446  18.206  0.00  0.00    +0.000 A 
ATOM      7  C   UNL     1       3.892   5.509  17.489  0.00  0.00    +0.000 A 
ATOM      8  C   UNL     1       4.232   4.287  18.068  0.00  0.00    +0.000 A 
ATOM      9  C   UNL     1       3.792   3.990  19.352  0.00  0.00    +0.000 A 
ATOM     10  C   UNL     1       3.024   4.923  20.055  0.00  0.00    +0.000 A 
ATOM     11  C   UNL     1       2.694   6.158  19.510  0.00  0.00    +0.000 A 
ATOM     12  N   UNL     1       1.990   7.037  20.243  0.00  0.00    +0.000 NA
ATOM     13  C   UNL     1       1.676   8.254  19.745  0.00  0.00    +0.000 A 
ATOM     14  C   UNL     1       0.960   9.182  20.530  0.00  0.00    +0.000 A 
ENDROOT
BRANCH   1  17
ATOM     15  O   UNL     1       1.188  12.979  21.375  0.00  0.00    +0.000 OA
ATOM     16  C   UNL     1       0.095  12.450  21.395  0.00  0.00    +0.000 C 
ATOM     17  N   UNL     1      -0.278  11.292  20.739  0.00  0.00    +0.000 N 
ATOM     18  H   UNL     1      -1.271  11.071  20.738  0.00  0.00    +0.000 HD
BRANCH  16  19
ATOM     19  O   UNL     1      -0.961  12.934  22.111  0.00  0.00    +0.000 OA
BRANCH  19  20
ATOM     20  C   UNL     1      -1.642  12.002  22.981  0.00  0.00    +0.000 C 
BRANCH  20  21
ATOM     21  C   UNL     1      -3.119  12.319  23.080  0.00  0.00    +0.000 A 
ATOM     22  C   UNL     1      -3.851  12.674  21.933  0.00  0.00    +0.000 A 
ATOM     23  C   UNL     1      -5.192  13.061  22.033  0.00  0.00    +0.000 A 
ATOM     24  C   UNL     1      -5.811  13.079  23.287  0.00  0.00    +0.000 A 
ATOM     25  C   UNL     1      -5.105  12.693  24.436  0.00  0.00    +0.000 A 
ATOM     26  C   UNL     1      -3.765  12.312  24.325  0.00  0.00    +0.000 A 
BRANCH  24  27
ATOM     27  N   UNL     1      -7.206  13.524  23.406  0.00  0.00    +0.000 N 
ATOM     28  O   UNL     1      -7.595  14.413  22.635  0.00  0.00    +0.000 OA
ATOM     29  O   UNL     1      -7.913  12.987  24.270  0.00  0.00    +0.000 OA
ENDBRANCH  24  27
ENDBRANCH  20  21
ENDBRANCH  19  20
ENDBRANCH  16  19
ENDBRANCH   1  17
BRANCH  14  30
ATOM     30  C   UNL     1       0.556   8.720  21.914  0.00  0.00    +0.000 C 
BRANCH  30  31
ATOM     31  O   UNL     1       1.087   9.563  22.939  0.00  0.00    +0.000 OA
ATOM     32  H   UNL     1       1.200  10.438  22.526  0.00  0.00    +0.000 HD
ENDBRANCH  30  31
ENDBRANCH  14  30
TORSDOF 7
ENDMDL
MODEL 5
REMARK VINA RESULT:      -8.4      4.773     11.064
REMARK  Name = 
REMARK  7 active torsions:
REMARK  status: ('A' for Active; 'I' for Inactive)
REMARK    1  A    between atoms: C_2  and  O_20
REMARK    2  A    between atoms: N_3  and  C_4
REMARK    3  A    between atoms: C_17  and  C_18
REMARK    4  A    between atoms: C_18  and  O_19
REMARK    5  A    between atoms: O_20  and  C_21
REMARK    6  A    between atoms: C_21  and  C_22
REMARK    7  A    between atoms: C_25  and  N_26
REMARK                            x       y       z     vdW  Elec       q    Type
REMARK                         _______ _______ _______ _____ _____    ______ ____
ROOT
ATOM      1  C   UNL     1       0.815  10.348  19.725  0.00  0.00    +0.000 A 
ATOM      2  C   UNL     1       1.360  10.488  18.446  0.00  0.00    +0.000 A 
ATOM      3  C   UNL     1       2.020   9.426  17.830  0.00  0.00    +0.000 A 
ATOM      4  C   UNL     1       2.165   8.205  18.495  0.00  0.00    +0.000 A 
ATOM      5  C   UNL     1       2.815   7.125  17.886  0.00  0.00    +0.000 A 
ATOM      6  C   UNL     1       2.966   5.914  18.572  0.00  0.00    +0.000 A 
ATOM      7  C   UNL     1       3.650   4.818  18.016  0.00  0.00    +0.000 A 
ATOM      8  C   UNL     1       3.792   3.636  18.741  0.00  0.00    +0.000 A 
ATOM      9  C   UNL     1       3.232   3.537  20.009  0.00  0.00    +0.000 A 
ATOM     10  C   UNL     1       2.545   4.628  20.550  0.00  0.00    +0.000 A 
ATOM     11  C   UNL     1       2.413   5.827  19.859  0.00  0.00    +0.000 A 
ATOM     12  N   UNL     1       1.781   6.860  20.441  0.00  0.00    +0.000 NA
ATOM     13  C   UNL     1       1.660   8.043  19.799  0.00  0.00    +0.000 A 
ATOM     14  C   UNL     1       1.019   9.131  20.426  0.00  0.00    +0.000 A 
ENDROOT
BRANCH   1  17
ATOM     15  O   UNL     1      -2.009  11.168  19.268  0.00  0.00    +0.000 OA
ATOM     16  C   UNL     1      -1.254  11.736  20.030  0.00  0.00    +0.000 C 
ATOM     17  N   UNL     1       0.051  11.385  20.322  0.00  0.00    +0.000 N 
ATOM     18  H   UNL     1       0.490  11.875  21.098  0.00  0.00    +0.000 HD
BRANCH  16  19
ATOM     19  O   UNL     1      -1.595  12.859  20.727  0.00  0.00    +0.000 OA
BRANCH  19  20
ATOM     20  C   UNL     1      -1.668  12.738  22.165  0.00  0.00    +0.000 C 
BRANCH  20  21
ATOM     21  C   UNL     1      -3.102  12.777  22.649  0.00  0.00    +0.000 A 
ATOM     22  C   UNL     1      -3.402  12.580  24.008  0.00  0.00    +0.000 A 
ATOM     23  C   UNL     1      -4.730  12.518  24.445  0.00  0.00    +0.000 A 
ATOM     24  C   UNL     1      -5.767  12.671  23.519  0.00  0.00    +0.000 A 
ATOM     25  C   UNL     1      -5.484  12.904  22.165  0.00  0.00    +0.000 A 
ATOM     26  C   UNL     1      -4.154  12.960  21.739  0.00  0.00    +0.000 A 
BRANCH  24  27
ATOM     27  N   UNL     1      -7.164  12.566  23.962  0.00  0.00    +0.000 N 
ATOM     28  O   UNL     1      -7.761  11.503  23.740  0.00  0.00    +0.000 OA
ATOM     29  O   UNL     1      -7.664  13.546  24.532  0.00  0.00    +0.000 OA
ENDBRANCH  24  27
ENDBRANCH  20  21
ENDBRANCH  19  20
ENDBRANCH  16  19
ENDBRANCH   1  17
BRANCH  14  30
ATOM     30  C   UNL     1       0.467   8.877  21.813  0.00  0.00    +0.000 C 
BRANCH  30  31
ATOM     31  O   UNL     1      -0.711   8.069  21.784  0.00  0.00    +0.000 OA
ATOM     32  H   UNL     1      -1.103   8.148  22.673  0.00  0.00    +0.000 HD
ENDBRANCH  30  31
ENDBRANCH  14  30
TORSDOF 7
ENDMDL
MODEL 6
REMARK VINA RESULT:      -8.4      1.807      2.260
REMARK  Name = 
REMARK  7 active torsions:
REMARK  status: ('A' for Active; 'I' for Inactive)
REMARK    1  A    between atoms: C_2  and  O_20
REMARK    2  A    between atoms: N_3  and  C_4
REMARK    3  A    between atoms: C_17  and  C_18
REMARK    4  A    between atoms: C_18  and  O_19
REMARK    5  A    between atoms: O_20  and  C_21
REMARK    6  A    between atoms: C_21  and  C_22
REMARK    7  A    between atoms: C_25  and  N_26
REMARK                            x       y       z     vdW  Elec       q    Type
REMARK                         _______ _______ _______ _____ _____    ______ ____
ROOT
ATOM      1  C   UNL     1       2.018   8.035  19.366  0.00  0.00    +0.000 A 
ATOM      2  C   UNL     1       1.755   8.483  18.068  0.00  0.00    +0.000 A 
ATOM      3  C   UNL     1       0.871   9.536  17.841  0.00  0.00    +0.000 A 
ATOM      4  C   UNL     1       0.216  10.150  18.913  0.00  0.00    +0.000 A 
ATOM      5  C   UNL     1      -0.667  11.217  18.703  0.00  0.00    +0.000 A 
ATOM      6  C   UNL     1      -1.327  11.810  19.784  0.00  0.00    +0.000 A 
ATOM      7  C   UNL     1      -2.255  12.854  19.616  0.00  0.00    +0.000 A 
ATOM      8  C   UNL     1      -2.902  13.405  20.720  0.00  0.00    +0.000 A 
ATOM      9  C   UNL     1      -2.610  12.932  21.994  0.00  0.00    +0.000 A 
ATOM     10  C   UNL     1      -1.680  11.901  22.154  0.00  0.00    +0.000 A 
ATOM     11  C   UNL     1      -1.040  11.316  21.067  0.00  0.00    +0.000 A 
ATOM     12  N   UNL     1      -0.187  10.299  21.271  0.00  0.00    +0.000 NA
ATOM     13  C   UNL     1       0.430   9.699  20.228  0.00  0.00    +0.000 A 
ATOM     14  C   UNL     1       1.304   8.613  20.447  0.00  0.00    +0.000 A 
ENDROOT
BRANCH   1  17
ATOM     15  O   UNL     1       1.845   5.074  19.131  0.00  0.00    +0.000 OA
ATOM     16  C   UNL     1       2.830   5.666  19.526  0.00  0.00    +0.000 C 
ATOM     17  N   UNL     1       2.993   7.035  19.620  0.00  0.00    +0.000 N 
ATOM     18  H   UNL     1       3.933   7.367  19.824  0.00  0.00    +0.000 HD
BRANCH  16  19
ATOM     19  O   UNL     1       3.958   5.036  19.968  0.00  0.00    +0.000 OA
BRANCH  19  20
ATOM     20  C   UNL     1       4.361   3.844  19.257  0.00  0.00    +0.000 C 
BRANCH  20  21
ATOM     21  C   UNL     1       5.054   4.186  17.956  0.00  0.00    +0.000 A 
ATOM     22  C   UNL     1       4.408   3.974  16.726  0.00  0.00    +0.000 A 
ATOM     23  C   UNL     1       5.080   4.198  15.519  0.00  0.00    +0.000 A 
ATOM     24  C   UNL     1       6.403   4.650  15.540  0.00  0.00    +0.000 A 
ATOM     25  C   UNL     1       7.050   4.899  16.759  0.00  0.00    +0.000 A 
ATOM     26  C   UNL     1       6.371   4.670  17.959  0.00  0.00    +0.000 A 
BRANCH  24  27
ATOM     27  N   UNL     1       7.128   4.846  14.278  0.00  0.00    +0.000 N 
ATOM     28  O   UNL     1       8.087   5.631  14.280  0.00  0.00    +0.000 OA
ATOM     29  O   UNL     1       6.739   4.216  13.284  0.00  0.00    +0.000 OA
ENDBRANCH  24  27
ENDBRANCH  20  21
ENDBRANCH  19  20
ENDBRANCH  16  19
ENDBRANCH   1  17
BRANCH  14  30
ATOM     30  C   UNL     1       1.518   8.203  21.888  0.00  0.00    +0.000 C 
BRANCH  30  31
ATOM     31  O   UNL     1       2.068   9.263  22.674  0.00  0.00    +0.000 OA
ATOM     32  H   UNL     1       2.931   8.935  22.986  0.00  0.00    +0.000 HD
ENDBRANCH  30  31
ENDBRANCH  14  30
TORSDOF 7
ENDMDL
MODEL 7
REMARK VINA RESULT:      -8.3      4.980     10.831
REMARK  Name = 
REMARK  7 active torsions:
REMARK  status: ('A' for Active; 'I' for Inactive)
REMARK    1  A    between atoms: C_2  and  O_20
REMARK    2  A    between atoms: N_3  and  C_4
REMARK    3  A    between atoms: C_17  and  C_18
REMARK    4  A    between atoms: C_18  and  O_19
REMARK    5  A    between atoms: O_20  and  C_21
REMARK    6  A    between atoms: C_21  and  C_22
REMARK    7  A    between atoms: C_25  and  N_26
REMARK                            x       y       z     vdW  Elec       q    Type
REMARK                         _______ _______ _______ _____ _____    ______ ____
ROOT
ATOM      1  C   UNL     1       1.013   9.918  19.503  0.00  0.00    +0.000 A 
ATOM      2  C   UNL     1       1.612   9.889  18.241  0.00  0.00    +0.000 A 
ATOM      3  C   UNL     1       2.236   8.734  17.771  0.00  0.00    +0.000 A 
ATOM      4  C   UNL     1       2.287   7.587  18.570  0.00  0.00    +0.000 A 
ATOM      5  C   UNL     1       2.900   6.415  18.109  0.00  0.00    +0.000 A 
ATOM      6  C   UNL     1       2.958   5.281  18.927  0.00  0.00    +0.000 A 
ATOM      7  C   UNL     1       3.601   4.097  18.522  0.00  0.00    +0.000 A 
ATOM      8  C   UNL     1       3.650   2.996  19.375  0.00  0.00    +0.000 A 
ATOM      9  C   UNL     1       3.039   3.066  20.621  0.00  0.00    +0.000 A 
ATOM     10  C   UNL     1       2.393   4.243  21.012  0.00  0.00    +0.000 A 
ATOM     11  C   UNL     1       2.354   5.363  20.191  0.00  0.00    +0.000 A 
ATOM     12  N   UNL     1       1.758   6.485  20.631  0.00  0.00    +0.000 NA
ATOM     13  C   UNL     1       1.726   7.595  19.860  0.00  0.00    +0.000 A 
ATOM     14  C   UNL     1       1.123   8.777  20.339  0.00  0.00    +0.000 A 
ENDROOT
BRANCH   1  17
ATOM     15  O   UNL     1      -1.783  10.761  18.935  0.00  0.00    +0.000 OA
ATOM     16  C   UNL     1      -1.008  11.403  19.613  0.00  0.00    +0.000 C 
ATOM     17  N   UNL     1       0.286  11.052  19.951  0.00  0.00    +0.000 N 
ATOM     18  H   UNL     1       0.744  11.629  20.653  0.00  0.00    +0.000 HD
BRANCH  16  19
ATOM     19  O   UNL     1      -1.309  12.622  20.149  0.00  0.00    +0.000 OA
BRANCH  19  20
ATOM     20  C   UNL     1      -1.289  12.723  21.591  0.00  0.00    +0.000 C 
BRANCH  20  21
ATOM     21  C   UNL     1      -2.688  12.675  22.165  0.00  0.00    +0.000 A 
ATOM     22  C   UNL     1      -3.809  12.817  21.329  0.00  0.00    +0.000 A 
ATOM     23  C   UNL     1      -5.100  12.870  21.866  0.00  0.00    +0.000 A 
ATOM     24  C   UNL     1      -5.274  12.766  23.250  0.00  0.00    +0.000 A 
ATOM     25  C   UNL     1      -4.169  12.589  24.095  0.00  0.00    +0.000 A 
ATOM     26  C   UNL     1      -2.884  12.541  23.548  0.00  0.00    +0.000 A 
BRANCH  24  27
ATOM     27  N   UNL     1      -6.622  12.863  23.825  0.00  0.00    +0.000 N 
ATOM     28  O   UNL     1      -7.031  13.987  24.149  0.00  0.00    +0.000 OA
ATOM     29  O   UNL     1      -7.272  11.816  23.955  0.00  0.00    +0.000 OA
ENDBRANCH  24  27
ENDBRANCH  20  21
ENDBRANCH  19  20
ENDBRANCH  16  19
ENDBRANCH   1  17
BRANCH  14  30
ATOM     30  C   UNL     1       0.507   8.705  21.720  0.00  0.00    +0.000 C 
BRANCH  30  31
ATOM     31  O   UNL     1       1.062   9.677  22.609  0.00  0.00    +0.000 OA
ATOM     32  H   UNL     1       2.008   9.731  22.379  0.00  0.00    +0.000 HD
ENDBRANCH  30  31
ENDBRANCH  14  30
TORSDOF 7
ENDMDL
MODEL 8
REMARK VINA RESULT:      -8.3      4.871     11.130
REMARK  Name = 
REMARK  7 active torsions:
REMARK  status: ('A' for Active; 'I' for Inactive)
REMARK    1  A    between atoms: C_2  and  O_20
REMARK    2  A    between atoms: N_3  and  C_4
REMARK    3  A    between atoms: C_17  and  C_18
REMARK    4  A    between atoms: C_18  and  O_19
REMARK    5  A    between atoms: O_20  and  C_21
REMARK    6  A    between atoms: C_21  and  C_22
REMARK    7  A    between atoms: C_25  and  N_26
REMARK                            x       y       z     vdW  Elec       q    Type
REMARK                         _______ _______ _______ _____ _____    ______ ____
ROOT
ATOM      1  C   UNL     1       0.637  10.359  19.803  0.00  0.00    +0.000 A 
ATOM      2  C   UNL     1       1.136  10.646  18.529  0.00  0.00    +0.000 A 
ATOM      3  C   UNL     1       1.877   9.701  17.822  0.00  0.00    +0.000 A 
ATOM      4  C   UNL     1       2.150   8.452  18.388  0.00  0.00    +0.000 A 
ATOM      5  C   UNL     1       2.883   7.487  17.687  0.00  0.00    +0.000 A 
ATOM      6  C   UNL     1       3.161   6.248  18.274  0.00  0.00    +0.000 A 
ATOM      7  C   UNL     1       3.931   5.266  17.624  0.00  0.00    +0.000 A 
ATOM      8  C   UNL     1       4.199   4.051  18.252  0.00  0.00    +0.000 A 
ATOM      9  C   UNL     1       3.681   3.805  19.518  0.00  0.00    +0.000 A 
ATOM     10  C   UNL     1       2.909   4.782  20.153  0.00  0.00    +0.000 A 
ATOM     11  C   UNL     1       2.650   6.011  19.560  0.00  0.00    +0.000 A 
ATOM     12  N   UNL     1       1.939   6.933  20.230  0.00  0.00    +0.000 NA
ATOM     13  C   UNL     1       1.694   8.145  19.683  0.00  0.00    +0.000 A 
ATOM     14  C   UNL     1       0.969   9.118  20.404  0.00  0.00    +0.000 A 
ENDROOT
BRANCH   1  17
ATOM     15  O   UNL     1       1.312  12.791  21.377  0.00  0.00    +0.000 OA
ATOM     16  C   UNL     1       0.183  12.366  21.239  0.00  0.00    +0.000 C 
ATOM     17  N   UNL     1      -0.205  11.271  20.490  0.00  0.00    +0.000 N 
ATOM     18  H   UNL     1      -1.206  11.145  20.357  0.00  0.00    +0.000 HD
BRANCH  16  19
ATOM     19  O   UNL     1      -0.908  12.923  21.842  0.00  0.00    +0.000 OA
BRANCH  19  20
ATOM     20  C   UNL     1      -2.051  13.194  21.000  0.00  0.00    +0.000 C 
BRANCH  20  21
ATOM     21  C   UNL     1      -3.343  13.123  21.786  0.00  0.00    +0.000 A 
ATOM     22  C   UNL     1      -3.327  12.832  23.161  0.00  0.00    +0.000 A 
ATOM     23  C   UNL     1      -4.522  12.670  23.870  0.00  0.00    +0.000 A 
ATOM     24  C   UNL     1      -5.743  12.815  23.204  0.00  0.00    +0.000 A 
ATOM     25  C   UNL     1      -5.776  13.141  21.841  0.00  0.00    +0.000 A 
ATOM     26  C   UNL     1      -4.577  13.297  21.141  0.00  0.00    +0.000 A 
BRANCH  24  27
ATOM     27  N   UNL     1      -7.002  12.605  23.933  0.00  0.00    +0.000 N 
ATOM     28  O   UNL     1      -7.545  13.595  24.442  0.00  0.00    +0.000 OA
ATOM     29  O   UNL     1      -7.447  11.450  23.998  0.00  0.00    +0.000 OA
ENDBRANCH  24  27
ENDBRANCH  20  21
ENDBRANCH  19  20
ENDBRANCH  16  19
ENDBRANCH   1  17
BRANCH  14  30
ATOM     30  C   UNL     1       0.477   8.709  21.776  0.00  0.00    +0.000 C 
BRANCH  30  31
ATOM     31  O   UNL     1       1.107   9.456  22.819  0.00  0.00    +0.000 OA
ATOM     32  H   UNL     1       0.777  10.367  22.723  0.00  0.00    +0.000 HD
ENDBRANCH  30  31
ENDBRANCH  14  30
TORSDOF 7
ENDMDL
MODEL 9
REMARK VINA RESULT:      -8.3      4.228      5.704
REMARK  Name = 
REMARK  7 active torsions:
REMARK  status: ('A' for Active; 'I' for Inactive)
REMARK    1  A    between atoms: C_2  and  O_20
REMARK    2  A    between atoms: N_3  and  C_4
REMARK    3  A    between atoms: C_17  and  C_18
REMARK    4  A    between atoms: C_18  and  O_19
REMARK    5  A    between atoms: O_20  and  C_21
REMARK    6  A    between atoms: C_21  and  C_22
REMARK    7  A    between atoms: C_25  and  N_26
REMARK                            x       y       z     vdW  Elec       q    Type
REMARK                         _______ _______ _______ _____ _____    ______ ____
ROOT
ATOM      1  C   UNL     1      -0.456  10.804  18.576  0.00  0.00    +0.000 A 
ATOM      2  C   UNL     1      -0.242  11.651  19.666  0.00  0.00    +0.000 A 
ATOM      3  C   UNL     1      -1.298  12.356  20.242  0.00  0.00    +0.000 A 
ATOM      4  C   UNL     1      -2.590  12.240  19.720  0.00  0.00    +0.000 A 
ATOM      5  C   UNL     1      -3.664  12.933  20.293  0.00  0.00    +0.000 A 
ATOM      6  C   UNL     1      -4.948  12.818  19.749  0.00  0.00    +0.000 A 
ATOM      7  C   UNL     1      -6.047  13.530  20.264  0.00  0.00    +0.000 A 
ATOM      8  C   UNL     1      -7.306  13.399  19.681  0.00  0.00    +0.000 A 
ATOM      9  C   UNL     1      -7.476  12.544  18.599  0.00  0.00    +0.000 A 
ATOM     10  C   UNL     1      -6.380  11.833  18.099  0.00  0.00    +0.000 A 
ATOM     11  C   UNL     1      -5.110  11.966  18.645  0.00  0.00    +0.000 A 
ATOM     12  N   UNL     1      -4.082  11.294  18.100  0.00  0.00    +0.000 NA
ATOM     13  C   UNL     1      -2.832  11.424  18.599  0.00  0.00    +0.000 A 
ATOM     14  C   UNL     1      -1.753  10.737  18.005  0.00  0.00    +0.000 A 
ENDROOT
BRANCH   1  17
ATOM     15  O   UNL     1       1.297   8.801  19.906  0.00  0.00    +0.000 OA
ATOM     16  C   UNL     1       1.393   9.114  18.736  0.00  0.00    +0.000 C 
ATOM     17  N   UNL     1       0.589  10.002  18.047  0.00  0.00    +0.000 N 
ATOM     18  H   UNL     1       0.709  10.032  17.037  0.00  0.00    +0.000 HD
BRANCH  16  19
ATOM     19  O   UNL     1       2.359   8.625  17.904  0.00  0.00    +0.000 OA
BRANCH  19  20
ATOM     20  C   UNL     1       2.399   7.192  17.721  0.00  0.00    +0.000 C 
BRANCH  20  21
ATOM     21  C   UNL     1       3.800   6.652  17.908  0.00  0.00    +0.000 A 
ATOM     22  C   UNL     1       4.842   7.060  17.057  0.00  0.00    +0.000 A 
ATOM     23  C   UNL     1       6.116   6.491  17.165  0.00  0.00    +0.000 A 
ATOM     24  C   UNL     1       6.356   5.518  18.140  0.00  0.00    +0.000 A 
ATOM     25  C   UNL     1       5.337   5.126  19.020  0.00  0.00    +0.000 A 
ATOM     26  C   UNL     1       4.067   5.698  18.901  0.00  0.00    +0.000 A 
BRANCH  24  27
ATOM     27  N   UNL     1       7.679   4.886  18.231  0.00  0.00    +0.000 N 
ATOM     28  O   UNL     1       8.323   5.045  19.277  0.00  0.00    +0.000 OA
ATOM     29  O   UNL     1       8.075   4.231  17.256  0.00  0.00    +0.000 OA
ENDBRANCH  24  27
ENDBRANCH  20  21
ENDBRANCH  19  20
ENDBRANCH  16  19
ENDBRANCH   1  17
BRANCH  14  30
ATOM     30  C   UNL     1      -2.090   9.848  16.827  0.00  0.00    +0.000 C 
BRANCH  30  31
ATOM     31  O   UNL     1      -2.336  10.601  15.637  0.00  0.00    +0.000 OA
ATOM     32  H   UNL     1      -1.650  11.294  15.620  0.00  0.00    +0.000 HD
ENDBRANCH  30  31
ENDBRANCH  14  30
TORSDOF 7
ENDMDL
