MODEL 1
REMARK VINA RESULT:      -8.1      0.000      0.000
REMARK  Name = 
REMARK  4 active torsions:
REMARK  status: ('A' for Active; 'I' for Inactive)
REMARK    1  A    between atoms: C_2  and  C_3
REMARK    2  A    between atoms: C_2  and  C_10
REMARK    3  A    between atoms: C_12  and  N_13
REMARK    4  A    between atoms: C_18  and  N_19
REMARK                            x       y       z     vdW  Elec       q    Type
REMARK                         _______ _______ _______ _____ _____    ______ ____
ROOT
ATOM      1  C   UNL     1       3.962   5.650  18.274  0.00  0.00    +0.000 A 
ATOM      2  C   UNL     1       4.960   6.408  17.625  0.00  0.00    +0.000 A 
ATOM      3  C   UNL     1       6.299   6.024  17.673  0.00  0.00    +0.000 A 
ATOM      4  C   UNL     1       6.685   4.959  18.474  0.00  0.00    +0.000 A 
ATOM      5  C   UNL     1       5.708   4.253  19.184  0.00  0.00    +0.000 A 
ATOM      6  C   UNL     1       4.325   4.542  19.090  0.00  0.00    +0.000 A 
ENDROOT
BRANCH   6   7
ATOM      7  N   UNL     1       3.440   3.713  19.753  0.00  0.00    +0.000 N 
ATOM      8  C   UNL     1       3.016   2.388  19.256  0.00  0.00    +0.000 C 
ATOM      9  C   UNL     1       1.484   2.328  19.117  0.00  0.00    +0.000 C 
ATOM     10  O   UNL     1       0.810   2.727  20.322  0.00  0.00    +0.000 OA
ATOM     11  C   UNL     1       1.202   4.058  20.694  0.00  0.00    +0.000 C 
ATOM     12  C   UNL     1       2.711   4.145  20.958  0.00  0.00    +0.000 C 
ENDBRANCH   6   7
BRANCH   3  13
ATOM     13  N   UNL     1       7.277   6.717  16.828  0.00  0.00    +0.000 N 
ATOM     14  O   UNL     1       7.645   7.846  17.182  0.00  0.00    +0.000 OA
ATOM     15  O   UNL     1       7.652   6.148  15.791  0.00  0.00    +0.000 OA
ENDBRANCH   3  13
BRANCH   1  17
ATOM     16  O   UNL     1       1.687   5.459  17.578  0.00  0.00    +0.000 OA
ATOM     17  C   UNL     1       2.548   6.148  18.117  0.00  0.00    +0.000 C 
BRANCH  17  18
ATOM     18  C   UNL     1       2.108   7.454  18.701  0.00  0.00    +0.000 A 
ATOM     19  C   UNL     1       1.876   8.507  17.806  0.00  0.00    +0.000 A 
ATOM     20  C   UNL     1       1.318   9.706  18.254  0.00  0.00    +0.000 A 
ATOM     21  C   UNL     1       0.995   9.857  19.600  0.00  0.00    +0.000 A 
ATOM     22 CL   UNL     1       0.245  11.307  20.139  0.00  0.00    +0.000 Cl
ATOM     23  C   UNL     1       1.269   8.836  20.510  0.00  0.00    +0.000 A 
ATOM     24  C   UNL     1       1.852   7.644  20.067  0.00  0.00    +0.000 A 
ENDBRANCH  17  18
ENDBRANCH   1  17
TORSDOF 4
ENDMDL
MODEL 2
REMARK VINA RESULT:      -7.7      0.226      1.013
REMARK  Name = 
REMARK  4 active torsions:
REMARK  status: ('A' for Active; 'I' for Inactive)
REMARK    1  A    between atoms: C_2  and  C_3
REMARK    2  A    between atoms: C_2  and  C_10
REMARK    3  A    between atoms: C_12  and  N_13
REMARK    4  A    between atoms: C_18  and  N_19
REMARK                            x       y       z     vdW  Elec       q    Type
REMARK                         _______ _______ _______ _____ _____    ______ ____
ROOT
ATOM      1  C   UNL     1       3.944   5.641  18.308  0.00  0.00    +0.000 A 
ATOM      2  C   UNL     1       4.918   6.440  17.671  0.00  0.00    +0.000 A 
ATOM      3  C   UNL     1       6.275   6.136  17.770  0.00  0.00    +0.000 A 
ATOM      4  C   UNL     1       6.694   5.115  18.610  0.00  0.00    +0.000 A 
ATOM      5  C   UNL     1       5.737   4.370  19.307  0.00  0.00    +0.000 A 
ATOM      6  C   UNL     1       4.343   4.575  19.164  0.00  0.00    +0.000 A 
ENDROOT
BRANCH   6   7
ATOM      7  N   UNL     1       3.486   3.713  19.819  0.00  0.00    +0.000 N 
ATOM      8  C   UNL     1       3.142   2.361  19.335  0.00  0.00    +0.000 C 
ATOM      9  C   UNL     1       1.618   2.221  19.162  0.00  0.00    +0.000 C 
ATOM     10  O   UNL     1       0.897   2.603  20.345  0.00  0.00    +0.000 OA
ATOM     11  C   UNL     1       1.213   3.957  20.704  0.00  0.00    +0.000 C 
ATOM     12  C   UNL     1       2.709   4.125  21.001  0.00  0.00    +0.000 C 
ENDBRANCH   6   7
BRANCH   3  13
ATOM     13  N   UNL     1       7.238   6.864  16.939  0.00  0.00    +0.000 N 
ATOM     14  O   UNL     1       7.511   8.029  17.261  0.00  0.00    +0.000 OA
ATOM     15  O   UNL     1       7.696   6.284  15.942  0.00  0.00    +0.000 OA
ENDBRANCH   3  13
BRANCH   1  17
ATOM     16  O   UNL     1       1.695   5.283  17.593  0.00  0.00    +0.000 OA
ATOM     17  C   UNL     1       2.510   6.052  18.094  0.00  0.00    +0.000 C 
BRANCH  17  18
ATOM     18  C   UNL     1       1.992   7.371  18.576  0.00  0.00    +0.000 A 
ATOM     19  C   UNL     1       1.762   7.502  19.952  0.00  0.00    +0.000 A 
ATOM     20  C   UNL     1       1.428   8.743  20.498  0.00  0.00    +0.000 A 
ATOM     21  C   UNL     1       1.316   9.855  19.668  0.00  0.00    +0.000 A 
ATOM     22 CL   UNL     1       0.972  11.396  20.349  0.00  0.00    +0.000 Cl
ATOM     23  C   UNL     1       1.493   9.728  18.290  0.00  0.00    +0.000 A 
ATOM     24  C   UNL     1       1.802   8.481  17.738  0.00  0.00    +0.000 A 
ENDBRANCH  17  18
ENDBRANCH   1  17
TORSDOF 4
ENDMDL
MODEL 3
REMARK VINA RESULT:      -7.6      1.760      4.932
REMARK  Name = 
REMARK  4 active torsions:
REMARK  status: ('A' for Active; 'I' for Inactive)
REMARK    1  A    between atoms: C_2  and  C_3
REMARK    2  A    between atoms: C_2  and  C_10
REMARK    3  A    between atoms: C_12  and  N_13
REMARK    4  A    between atoms: C_18  and  N_19
REMARK                            x       y       z     vdW  Elec       q    Type
REMARK                         _______ _______ _______ _____ _____    ______ ____
ROOT
ATOM      1  C   UNL     1       3.078   5.499  17.932  0.00  0.00    +0.000 A 
ATOM      2  C   UNL     1       1.970   4.886  18.556  0.00  0.00    +0.000 A 
ATOM      3  C   UNL     1       1.875   3.498  18.650  0.00  0.00    +0.000 A 
ATOM      4  C   UNL     1       2.810   2.696  18.012  0.00  0.00    +0.000 A 
ATOM      5  C   UNL     1       3.867   3.299  17.323  0.00  0.00    +0.000 A 
ATOM      6  C   UNL     1       4.063   4.702  17.282  0.00  0.00    +0.000 A 
ENDROOT
BRANCH   6   7
ATOM      7  N   UNL     1       5.200   5.183  16.662  0.00  0.00    +0.000 N 
ATOM      8  C   UNL     1       5.353   5.311  15.198  0.00  0.00    +0.000 C 
ATOM      9  C   UNL     1       6.579   4.517  14.712  0.00  0.00    +0.000 C 
ATOM     10  O   UNL     1       7.771   4.853  15.441  0.00  0.00    +0.000 OA
ATOM     11  C   UNL     1       7.578   4.618  16.845  0.00  0.00    +0.000 C 
ATOM     12  C   UNL     1       6.436   5.476  17.406  0.00  0.00    +0.000 C 
ENDBRANCH   6   7
BRANCH   3  13
ATOM     13  N   UNL     1       0.817   2.905  19.474  0.00  0.00    +0.000 N 
ATOM     14  O   UNL     1       0.018   2.138  18.919  0.00  0.00    +0.000 OA
ATOM     15  O   UNL     1       0.763   3.232  20.670  0.00  0.00    +0.000 OA
ENDBRANCH   3  13
BRANCH   1  17
ATOM     16  O   UNL     1       3.654   7.638  17.042  0.00  0.00    +0.000 OA
ATOM     17  C   UNL     1       3.083   7.006  17.927  0.00  0.00    +0.000 C 
BRANCH  17  18
ATOM     18  C   UNL     1       2.308   7.795  18.935  0.00  0.00    +0.000 A 
ATOM     19  C   UNL     1       1.705   8.980  18.491  0.00  0.00    +0.000 A 
ATOM     20  C   UNL     1       0.841   9.690  19.327  0.00  0.00    +0.000 A 
ATOM     21  C   UNL     1       0.583   9.220  20.612  0.00  0.00    +0.000 A 
ATOM     22 CL   UNL     1      -0.534  10.057  21.617  0.00  0.00    +0.000 Cl
ATOM     23  C   UNL     1       1.216   8.071  21.084  0.00  0.00    +0.000 A 
ATOM     24  C   UNL     1       2.103   7.373  20.257  0.00  0.00    +0.000 A 
ENDBRANCH  17  18
ENDBRANCH   1  17
TORSDOF 4
ENDMDL
MODEL 4
REMARK VINA RESULT:      -7.6      1.421      4.856
REMARK  Name = 
REMARK  4 active torsions:
REMARK  status: ('A' for Active; 'I' for Inactive)
REMARK    1  A    between atoms: C_2  and  C_3
REMARK    2  A    between atoms: C_2  and  C_10
REMARK    3  A    between atoms: C_12  and  N_13
REMARK    4  A    between atoms: C_18  and  N_19
REMARK                            x       y       z     vdW  Elec       q    Type
REMARK                         _______ _______ _______ _____ _____    ______ ____
ROOT
ATOM      1  C   UNL     1       3.509   5.088  18.190  0.00  0.00    +0.000 A 
ATOM      2  C   UNL     1       2.275   4.531  18.588  0.00  0.00    +0.000 A 
ATOM      3  C   UNL     1       2.197   3.223  19.063  0.00  0.00    +0.000 A 
ATOM      4  C   UNL     1       3.316   2.405  19.026  0.00  0.00    +0.000 A 
ATOM      5  C   UNL     1       4.526   2.929  18.556  0.00  0.00    +0.000 A 
ATOM      6  C   UNL     1       4.680   4.279  18.156  0.00  0.00    +0.000 A 
ENDROOT
BRANCH   6   7
ATOM      7  N   UNL     1       5.944   4.715  17.810  0.00  0.00    +0.000 N 
ATOM      8  C   UNL     1       6.727   5.691  18.595  0.00  0.00    +0.000 C 
ATOM      9  C   UNL     1       7.109   6.903  17.725  0.00  0.00    +0.000 C 
ATOM     10  O   UNL     1       7.749   6.514  16.499  0.00  0.00    +0.000 OA
ATOM     11  C   UNL     1       6.894   5.639  15.747  0.00  0.00    +0.000 C 
ATOM     12  C   UNL     1       6.575   4.357  16.528  0.00  0.00    +0.000 C 
ENDBRANCH   6   7
BRANCH   3  13
ATOM     13  N   UNL     1       0.941   2.745  19.651  0.00  0.00    +0.000 N 
ATOM     14  O   UNL     1       0.777   2.908  20.867  0.00  0.00    +0.000 OA
ATOM     15  O   UNL     1       0.132   2.175  18.901  0.00  0.00    +0.000 OA
ENDBRANCH   3  13
BRANCH   1  17
ATOM     16  O   UNL     1       4.017   6.874  16.691  0.00  0.00    +0.000 OA
ATOM     17  C   UNL     1       3.469   6.523  17.731  0.00  0.00    +0.000 C 
BRANCH  17  18
ATOM     18  C   UNL     1       2.673   7.558  18.463  0.00  0.00    +0.000 A 
ATOM     19  C   UNL     1       2.234   8.665  17.725  0.00  0.00    +0.000 A 
ATOM     20  C   UNL     1       1.361   9.594  18.296  0.00  0.00    +0.000 A 
ATOM     21  C   UNL     1       0.929   9.420  19.608  0.00  0.00    +0.000 A 
ATOM     22 CL   UNL     1      -0.200  10.525  20.287  0.00  0.00    +0.000 Cl
ATOM     23  C   UNL     1       1.399   8.350  20.370  0.00  0.00    +0.000 A 
ATOM     24  C   UNL     1       2.295   7.434  19.809  0.00  0.00    +0.000 A 
ENDBRANCH  17  18
ENDBRANCH   1  17
TORSDOF 4
ENDMDL
MODEL 5
REMARK VINA RESULT:      -7.6      1.754      5.005
REMARK  Name = 
REMARK  4 active torsions:
REMARK  status: ('A' for Active; 'I' for Inactive)
REMARK    1  A    between atoms: C_2  and  C_3
REMARK    2  A    between atoms: C_2  and  C_10
REMARK    3  A    between atoms: C_12  and  N_13
REMARK    4  A    between atoms: C_18  and  N_19
REMARK                            x       y       z     vdW  Elec       q    Type
REMARK                         _______ _______ _______ _____ _____    ______ ____
ROOT
ATOM      1  C   UNL     1       3.141   5.519  17.920  0.00  0.00    +0.000 A 
ATOM      2  C   UNL     1       2.002   4.929  18.510  0.00  0.00    +0.000 A 
ATOM      3  C   UNL     1       1.876   3.544  18.602  0.00  0.00    +0.000 A 
ATOM      4  C   UNL     1       2.813   2.723  17.992  0.00  0.00    +0.000 A 
ATOM      5  C   UNL     1       3.902   3.303  17.335  0.00  0.00    +0.000 A 
ATOM      6  C   UNL     1       4.128   4.701  17.300  0.00  0.00    +0.000 A 
ENDROOT
BRANCH   6   7
ATOM      7  N   UNL     1       5.292   5.159  16.713  0.00  0.00    +0.000 N 
ATOM      8  C   UNL     1       5.486   5.299  15.256  0.00  0.00    +0.000 C 
ATOM      9  C   UNL     1       6.702   4.477  14.791  0.00  0.00    +0.000 C 
ATOM     10  O   UNL     1       7.884   4.773  15.553  0.00  0.00    +0.000 OA
ATOM     11  C   UNL     1       7.650   4.528  16.949  0.00  0.00    +0.000 C 
ATOM     12  C   UNL     1       6.517   5.410  17.491  0.00  0.00    +0.000 C 
ENDBRANCH   6   7
BRANCH   3  13
ATOM     13  N   UNL     1       0.782   2.973  19.393  0.00  0.00    +0.000 N 
ATOM     14  O   UNL     1       0.046   2.142  18.843  0.00  0.00    +0.000 OA
ATOM     15  O   UNL     1       0.636   3.381  20.557  0.00  0.00    +0.000 OA
ENDBRANCH   3  13
BRANCH   1  17
ATOM     16  O   UNL     1       3.947   7.642  17.183  0.00  0.00    +0.000 OA
ATOM     17  C   UNL     1       3.177   7.025  17.915  0.00  0.00    +0.000 C 
BRANCH  17  18
ATOM     18  C   UNL     1       2.208   7.835  18.719  0.00  0.00    +0.000 A 
ATOM     19  C   UNL     1       2.072   7.506  20.074  0.00  0.00    +0.000 A 
ATOM     20  C   UNL     1       1.308   8.308  20.923  0.00  0.00    +0.000 A 
ATOM     21  C   UNL     1       0.672   9.440  20.418  0.00  0.00    +0.000 A 
ATOM     22 CL   UNL     1      -0.212  10.465  21.477  0.00  0.00    +0.000 Cl
ATOM     23  C   UNL     1       0.758   9.750  19.060  0.00  0.00    +0.000 A 
ATOM     24  C   UNL     1       1.502   8.932  18.203  0.00  0.00    +0.000 A 
ENDBRANCH  17  18
ENDBRANCH   1  17
TORSDOF 4
ENDMDL
MODEL 6
REMARK VINA RESULT:      -7.6      1.420      2.028
REMARK  Name = 
REMARK  4 active torsions:
REMARK  status: ('A' for Active; 'I' for Inactive)
REMARK    1  A    between atoms: C_2  and  C_3
REMARK    2  A    between atoms: C_2  and  C_10
REMARK    3  A    between atoms: C_12  and  N_13
REMARK    4  A    between atoms: C_18  and  N_19
REMARK                            x       y       z     vdW  Elec       q    Type
REMARK                         _______ _______ _______ _____ _____    ______ ____
ROOT
ATOM      1  C   UNL     1       4.294   5.354  18.658  0.00  0.00    +0.000 A 
ATOM      2  C   UNL     1       5.457   6.154  18.674  0.00  0.00    +0.000 A 
ATOM      3  C   UNL     1       6.537   5.868  17.840  0.00  0.00    +0.000 A 
ATOM      4  C   UNL     1       6.534   4.710  17.077  0.00  0.00    +0.000 A 
ATOM      5  C   UNL     1       5.416   3.870  17.119  0.00  0.00    +0.000 A 
ATOM      6  C   UNL     1       4.254   4.167  17.873  0.00  0.00    +0.000 A 
ENDROOT
BRANCH   6   7
ATOM      7  N   UNL     1       3.169   3.320  17.758  0.00  0.00    +0.000 N 
ATOM      8  C   UNL     1       1.829   3.748  17.308  0.00  0.00    +0.000 C 
ATOM      9  C   UNL     1       0.768   3.412  18.373  0.00  0.00    +0.000 C 
ATOM     10  O   UNL     1       0.820   2.035  18.778  0.00  0.00    +0.000 OA
ATOM     11  C   UNL     1       2.124   1.715  19.288  0.00  0.00    +0.000 C 
ATOM     12  C   UNL     1       3.210   1.923  18.224  0.00  0.00    +0.000 C 
ENDBRANCH   6   7
BRANCH   3  13
ATOM     13  N   UNL     1       7.640   6.828  17.739  0.00  0.00    +0.000 N 
ATOM     14  O   UNL     1       7.877   7.317  16.626  0.00  0.00    +0.000 OA
ATOM     15  O   UNL     1       8.295   7.068  18.766  0.00  0.00    +0.000 OA
ENDBRANCH   3  13
BRANCH   1  17
ATOM     16  O   UNL     1       2.933   5.174  20.611  0.00  0.00    +0.000 OA
ATOM     17  C   UNL     1       3.181   5.788  19.577  0.00  0.00    +0.000 C 
BRANCH  17  18
ATOM     18  C   UNL     1       2.401   7.041  19.326  0.00  0.00    +0.000 A 
ATOM     19  C   UNL     1       1.772   7.632  20.430  0.00  0.00    +0.000 A 
ATOM     20  C   UNL     1       1.156   8.879  20.308  0.00  0.00    +0.000 A 
ATOM     21  C   UNL     1       1.164   9.537  19.080  0.00  0.00    +0.000 A 
ATOM     22 CL   UNL     1       0.467  11.103  18.948  0.00  0.00    +0.000 Cl
ATOM     23  C   UNL     1       1.743   8.936  17.962  0.00  0.00    +0.000 A 
ATOM     24  C   UNL     1       2.336   7.675  18.076  0.00  0.00    +0.000 A 
ENDBRANCH  17  18
ENDBRANCH   1  17
TORSDOF 4
ENDMDL
MODEL 7
REMARK VINA RESULT:      -7.5      1.469      1.792
REMARK  Name = 
REMARK  4 active torsions:
REMARK  status: ('A' for Active; 'I' for Inactive)
REMARK    1  A    between atoms: C_2  and  C_3
REMARK    2  A    between atoms: C_2  and  C_10
REMARK    3  A    between atoms: C_12  and  N_13
REMARK    4  A    between atoms: C_18  and  N_19
REMARK                            x       y       z     vdW  Elec       q    Type
REMARK                         _______ _______ _______ _____ _____    ______ ____
ROOT
ATOM      1  C   UNL     1       4.211   5.377  18.641  0.00  0.00    +0.000 A 
ATOM      2  C   UNL     1       5.415   6.114  18.655  0.00  0.00    +0.000 A 
ATOM      3  C   UNL     1       6.455   5.808  17.780  0.00  0.00    +0.000 A 
ATOM      4  C   UNL     1       6.370   4.685  16.970  0.00  0.00    +0.000 A 
ATOM      5  C   UNL     1       5.210   3.904  17.010  0.00  0.00    +0.000 A 
ATOM      6  C   UNL     1       4.087   4.229  17.808  0.00  0.00    +0.000 A 
ENDROOT
BRANCH   6   7
ATOM      7  N   UNL     1       2.955   3.445  17.690  0.00  0.00    +0.000 N 
ATOM      8  C   UNL     1       1.601   3.979  17.439  0.00  0.00    +0.000 C 
ATOM      9  C   UNL     1       0.631   3.538  18.550  0.00  0.00    +0.000 C 
ATOM     10  O   UNL     1       0.653   2.117  18.760  0.00  0.00    +0.000 OA
ATOM     11  C   UNL     1       1.982   1.682  19.089  0.00  0.00    +0.000 C 
ATOM     12  C   UNL     1       2.971   1.997  17.959  0.00  0.00    +0.000 C 
ENDBRANCH   6   7
BRANCH   3  13
ATOM     13  N   UNL     1       7.605   6.713  17.686  0.00  0.00    +0.000 N 
ATOM     14  O   UNL     1       8.222   6.970  18.729  0.00  0.00    +0.000 OA
ATOM     15  O   UNL     1       7.872   7.195  16.574  0.00  0.00    +0.000 OA
ENDBRANCH   3  13
BRANCH   1  17
ATOM     16  O   UNL     1       2.873   5.167  20.607  0.00  0.00    +0.000 OA
ATOM     17  C   UNL     1       3.149   5.829  19.610  0.00  0.00    +0.000 C 
BRANCH  17  18
ATOM     18  C   UNL     1       2.459   7.149  19.457  0.00  0.00    +0.000 A 
ATOM     19  C   UNL     1       2.420   7.703  18.171  0.00  0.00    +0.000 A 
ATOM     20  C   UNL     1       1.666   8.851  17.919  0.00  0.00    +0.000 A 
ATOM     21  C   UNL     1       0.954   9.451  18.954  0.00  0.00    +0.000 A 
ATOM     22 CL   UNL     1      -0.029  10.824  18.629  0.00  0.00    +0.000 Cl
ATOM     23  C   UNL     1       1.026   8.938  20.250  0.00  0.00    +0.000 A 
ATOM     24  C   UNL     1       1.802   7.804  20.510  0.00  0.00    +0.000 A 
ENDBRANCH  17  18
ENDBRANCH   1  17
TORSDOF 4
ENDMDL
MODEL 8
REMARK VINA RESULT:      -7.5      1.401      4.978
REMARK  Name = 
REMARK  4 active torsions:
REMARK  status: ('A' for Active; 'I' for Inactive)
REMARK    1  A    between atoms: C_2  and  C_3
REMARK    2  A    between atoms: C_2  and  C_10
REMARK    3  A    between atoms: C_12  and  N_13
REMARK    4  A    between atoms: C_18  and  N_19
REMARK                            x       y       z     vdW  Elec       q    Type
REMARK                         _______ _______ _______ _____ _____    ______ ____
ROOT
ATOM      1  C   UNL     1       3.537   5.047  18.293  0.00  0.00    +0.000 A 
ATOM      2  C   UNL     1       2.315   4.478  18.712  0.00  0.00    +0.000 A 
ATOM      3  C   UNL     1       2.264   3.185  19.231  0.00  0.00    +0.000 A 
ATOM      4  C   UNL     1       3.401   2.390  19.219  0.00  0.00    +0.000 A 
ATOM      5  C   UNL     1       4.599   2.923  18.730  0.00  0.00    +0.000 A 
ATOM      6  C   UNL     1       4.725   4.261  18.285  0.00  0.00    +0.000 A 
ENDROOT
BRANCH   6   7
ATOM      7  N   UNL     1       5.979   4.712  17.921  0.00  0.00    +0.000 N 
ATOM      8  C   UNL     1       6.756   5.705  18.691  0.00  0.00    +0.000 C 
ATOM      9  C   UNL     1       7.113   6.915  17.807  0.00  0.00    +0.000 C 
ATOM     10  O   UNL     1       7.745   6.524  16.577  0.00  0.00    +0.000 OA
ATOM     11  C   UNL     1       6.894   5.632  15.841  0.00  0.00    +0.000 C 
ATOM     12  C   UNL     1       6.601   4.352  16.636  0.00  0.00    +0.000 C 
ENDBRANCH   6   7
BRANCH   3  13
ATOM     13  N   UNL     1       1.020   2.702  19.836  0.00  0.00    +0.000 N 
ATOM     14  O   UNL     1       0.136   2.282  19.077  0.00  0.00    +0.000 OA
ATOM     15  O   UNL     1       0.911   2.774  21.071  0.00  0.00    +0.000 OA
ENDBRANCH   3  13
BRANCH   1  17
ATOM     16  O   UNL     1       4.098   6.818  16.795  0.00  0.00    +0.000 OA
ATOM     17  C   UNL     1       3.466   6.464  17.787  0.00  0.00    +0.000 C 
BRANCH  17  18
ATOM     18  C   UNL     1       2.546   7.472  18.403  0.00  0.00    +0.000 A 
ATOM     19  C   UNL     1       2.249   7.316  19.763  0.00  0.00    +0.000 A 
ATOM     20  C   UNL     1       1.525   8.297  20.445  0.00  0.00    +0.000 A 
ATOM     21  C   UNL     1       1.093   9.433  19.767  0.00  0.00    +0.000 A 
ATOM     22 CL   UNL     1       0.263  10.672  20.623  0.00  0.00    +0.000 Cl
ATOM     23  C   UNL     1       1.339   9.576  18.401  0.00  0.00    +0.000 A 
ATOM     24  C   UNL     1       2.040   8.582  17.710  0.00  0.00    +0.000 A 
ENDBRANCH  17  18
ENDBRANCH   1  17
TORSDOF 4
ENDMDL
MODEL 9
REMARK VINA RESULT:      -7.3      1.517      1.977
REMARK  Name = 
REMARK  4 active torsions:
REMARK  status: ('A' for Active; 'I' for Inactive)
REMARK    1  A    between atoms: C_2  and  C_3
REMARK    2  A    between atoms: C_2  and  C_10
REMARK    3  A    between atoms: C_12  and  N_13
REMARK    4  A    between atoms: C_18  and  N_19
REMARK                            x       y       z     vdW  Elec       q    Type
REMARK                         _______ _______ _______ _____ _____    ______ ____
ROOT
ATOM      1  C   UNL     1       3.651   5.265  18.460  0.00  0.00    +0.000 A 
ATOM      2  C   UNL     1       4.504   5.980  17.591  0.00  0.00    +0.000 A 
ATOM      3  C   UNL     1       5.156   5.341  16.538  0.00  0.00    +0.000 A 
ATOM      4  C   UNL     1       5.078   3.962  16.410  0.00  0.00    +0.000 A 
ATOM      5  C   UNL     1       4.297   3.238  17.317  0.00  0.00    +0.000 A 
ATOM      6  C   UNL     1       3.536   3.850  18.343  0.00  0.00    +0.000 A 
ENDROOT
BRANCH   6   7
ATOM      7  N   UNL     1       2.719   3.048  19.115  0.00  0.00    +0.000 N 
ATOM      8  C   UNL     1       1.249   2.992  18.982  0.00  0.00    +0.000 C 
ATOM      9  C   UNL     1       0.571   3.336  20.321  0.00  0.00    +0.000 C 
ATOM     10  O   UNL     1       1.075   2.541  21.407  0.00  0.00    +0.000 OA
ATOM     11  C   UNL     1       2.495   2.715  21.534  0.00  0.00    +0.000 C 
ATOM     12  C   UNL     1       3.231   2.276  20.260  0.00  0.00    +0.000 C 
ENDBRANCH   6   7
BRANCH   3  13
ATOM     13  N   UNL     1       5.872   6.145  15.543  0.00  0.00    +0.000 N 
ATOM     14  O   UNL     1       5.225   6.995  14.916  0.00  0.00    +0.000 OA
ATOM     15  O   UNL     1       7.077   5.905  15.363  0.00  0.00    +0.000 OA
ENDBRANCH   3  13
BRANCH   1  17
ATOM     16  O   UNL     1       3.061   5.759  20.719  0.00  0.00    +0.000 OA
ATOM     17  C   UNL     1       2.975   6.075  19.536  0.00  0.00    +0.000 C 
BRANCH  17  18
ATOM     18  C   UNL     1       2.259   7.352  19.223  0.00  0.00    +0.000 A 
ATOM     19  C   UNL     1       1.612   7.997  20.285  0.00  0.00    +0.000 A 
ATOM     20  C   UNL     1       1.055   9.265  20.108  0.00  0.00    +0.000 A 
ATOM     21  C   UNL     1       1.140   9.889  18.866  0.00  0.00    +0.000 A 
ATOM     22 CL   UNL     1       0.515  11.479  18.667  0.00  0.00    +0.000 Cl
ATOM     23  C   UNL     1       1.736   9.236  17.788  0.00  0.00    +0.000 A 
ATOM     24  C   UNL     1       2.271   7.955  17.956  0.00  0.00    +0.000 A 
ENDBRANCH  17  18
ENDBRANCH   1  17
TORSDOF 4
ENDMDL
