MODEL 1
REMARK VINA RESULT:      -7.4      0.000      0.000
REMARK  Name = 
REMARK  6 active torsions:
REMARK  status: ('A' for Active; 'I' for Inactive)
REMARK    1  A    between atoms: C_2  and  C_3
REMARK    2  A    between atoms: C_7  and  O_8
REMARK    3  A    between atoms: O_8  and  C_9
REMARK    4  A    between atoms: C_9  and  C_10
REMARK    5  A    between atoms: C_10  and  N_11
REMARK    6  A    between atoms: C_14  and  C_15
REMARK                            x       y       z     vdW  Elec       q    Type
REMARK                         _______ _______ _______ _____ _____    ______ ____
ROOT
ATOM      1  N   UNL     1       2.754   5.282  19.132  0.00  0.00    +0.000 NA
ATOM      2  C   UNL     1       2.470   4.951  17.728  0.00  0.00    +0.000 C 
ATOM      3  C   UNL     1       2.945   3.555  17.320  0.00  0.00    +0.000 C 
ATOM      4  C   UNL     1       4.428   3.322  17.632  0.00  0.00    +0.000 C 
ATOM      5  C   UNL     1       4.632   3.647  19.126  0.00  0.00    +0.000 C 
ATOM      6  C   UNL     1       4.165   5.062  19.479  0.00  0.00    +0.000 C 
ENDROOT
BRANCH   4   7
ATOM      7  C   UNL     1       5.426   4.026  16.721  0.00  0.00    +0.000 A 
ATOM      8  C   UNL     1       5.212   4.295  15.370  0.00  0.00    +0.000 A 
ATOM      9  C   UNL     1       6.192   4.953  14.648  0.00  0.00    +0.000 A 
ATOM     10  N   UNL     1       7.367   5.329  15.187  0.00  0.00    +0.000 NA
ATOM     11  N   UNL     1       7.613   5.041  16.486  0.00  0.00    +0.000 NA
ATOM     12  C   UNL     1       6.670   4.405  17.217  0.00  0.00    +0.000 A 
ENDBRANCH   4   7
BRANCH   1  13
ATOM     13  C   UNL     1       2.371   6.684  19.439  0.00  0.00    +0.000 C 
BRANCH  13  14
ATOM     14  C   UNL     1       2.304   7.550  18.175  0.00  0.00    +0.000 C 
BRANCH  14  15
ATOM     15  O   UNL     1       2.426   8.943  18.470  0.00  0.00    +0.000 OA
BRANCH  15  20
ATOM     16  C   UNL     1      -0.204  10.469  20.628  0.00  0.00    +0.000 A 
ATOM     17  C   UNL     1      -1.162  10.734  19.648  0.00  0.00    +0.000 A 
ATOM     18  C   UNL     1      -0.910  10.393  18.319  0.00  0.00    +0.000 A 
ATOM     19  C   UNL     1       0.300   9.790  17.966  0.00  0.00    +0.000 A 
ATOM     20  C   UNL     1       1.269   9.526  18.935  0.00  0.00    +0.000 A 
ATOM     21  C   UNL     1       1.008   9.866  20.269  0.00  0.00    +0.000 A 
BRANCH  16  23
ATOM     22  N   UNL     1      -0.636  11.083  23.113  0.00  0.00    +0.000 NA
ATOM     23  C   UNL     1      -0.453  10.810  22.001  0.00  0.00    +0.000 C 
ENDBRANCH  16  23
ENDBRANCH  15  20
ENDBRANCH  14  15
ENDBRANCH  13  14
ENDBRANCH   1  13
TORSDOF 6
ENDMDL
MODEL 2
REMARK VINA RESULT:      -7.2      0.860      1.023
REMARK  Name = 
REMARK  6 active torsions:
REMARK  status: ('A' for Active; 'I' for Inactive)
REMARK    1  A    between atoms: C_2  and  C_3
REMARK    2  A    between atoms: C_7  and  O_8
REMARK    3  A    between atoms: O_8  and  C_9
REMARK    4  A    between atoms: C_9  and  C_10
REMARK    5  A    between atoms: C_10  and  N_11
REMARK    6  A    between atoms: C_14  and  C_15
REMARK                            x       y       z     vdW  Elec       q    Type
REMARK                         _______ _______ _______ _____ _____    ______ ____
ROOT
ATOM      1  N   UNL     1       2.818   5.568  19.153  0.00  0.00    +0.000 NA
ATOM      2  C   UNL     1       2.520   5.217  17.757  0.00  0.00    +0.000 C 
ATOM      3  C   UNL     1       2.936   3.794  17.383  0.00  0.00    +0.000 C 
ATOM      4  C   UNL     1       4.408   3.505  17.702  0.00  0.00    +0.000 C 
ATOM      5  C   UNL     1       4.624   3.856  19.189  0.00  0.00    +0.000 C 
ATOM      6  C   UNL     1       4.218   5.297  19.508  0.00  0.00    +0.000 C 
ENDROOT
BRANCH   4   7
ATOM      7  C   UNL     1       5.435   4.145  16.778  0.00  0.00    +0.000 A 
ATOM      8  C   UNL     1       5.252   4.346  15.410  0.00  0.00    +0.000 A 
ATOM      9  C   UNL     1       6.258   4.949  14.675  0.00  0.00    +0.000 A 
ATOM     10  N   UNL     1       7.428   5.335  15.218  0.00  0.00    +0.000 NA
ATOM     11  N   UNL     1       7.643   5.112  16.535  0.00  0.00    +0.000 NA
ATOM     12  C   UNL     1       6.675   4.530  17.278  0.00  0.00    +0.000 A 
ENDBRANCH   4   7
BRANCH   1  13
ATOM     13  C   UNL     1       2.494   6.993  19.428  0.00  0.00    +0.000 C 
BRANCH  13  14
ATOM     14  C   UNL     1       2.578   7.853  18.161  0.00  0.00    +0.000 C 
BRANCH  14  15
ATOM     15  O   UNL     1       1.381   8.601  17.938  0.00  0.00    +0.000 OA
BRANCH  15  20
ATOM     16  C   UNL     1       0.550  10.877  20.771  0.00  0.00    +0.000 A 
ATOM     17  C   UNL     1       1.081  12.063  20.260  0.00  0.00    +0.000 A 
ATOM     18  C   UNL     1       1.682  12.070  19.001  0.00  0.00    +0.000 A 
ATOM     19  C   UNL     1       1.759  10.892  18.253  0.00  0.00    +0.000 A 
ATOM     20  C   UNL     1       1.238   9.698  18.755  0.00  0.00    +0.000 A 
ATOM     21  C   UNL     1       0.630   9.699  20.018  0.00  0.00    +0.000 A 
BRANCH  16  23
ATOM     22  N   UNL     1      -0.571  10.832  23.112  0.00  0.00    +0.000 NA
ATOM     23  C   UNL     1      -0.078  10.858  22.063  0.00  0.00    +0.000 C 
ENDBRANCH  16  23
ENDBRANCH  15  20
ENDBRANCH  14  15
ENDBRANCH  13  14
ENDBRANCH   1  13
TORSDOF 6
ENDMDL
MODEL 3
REMARK VINA RESULT:      -7.1      1.901      2.111
REMARK  Name = 
REMARK  6 active torsions:
REMARK  status: ('A' for Active; 'I' for Inactive)
REMARK    1  A    between atoms: C_2  and  C_3
REMARK    2  A    between atoms: C_7  and  O_8
REMARK    3  A    between atoms: O_8  and  C_9
REMARK    4  A    between atoms: C_9  and  C_10
REMARK    5  A    between atoms: C_10  and  N_11
REMARK    6  A    between atoms: C_14  and  C_15
REMARK                            x       y       z     vdW  Elec       q    Type
REMARK                         _______ _______ _______ _____ _____    ______ ____
ROOT
ATOM      1  N   UNL     1       2.778   5.659  19.194  0.00  0.00    +0.000 NA
ATOM      2  C   UNL     1       2.472   5.257  17.814  0.00  0.00    +0.000 C 
ATOM      3  C   UNL     1       2.898   3.825  17.486  0.00  0.00    +0.000 C 
ATOM      4  C   UNL     1       4.375   3.561  17.802  0.00  0.00    +0.000 C 
ATOM      5  C   UNL     1       4.600   3.965  19.274  0.00  0.00    +0.000 C 
ATOM      6  C   UNL     1       4.183   5.413  19.547  0.00  0.00    +0.000 C 
ENDROOT
BRANCH   4   7
ATOM      7  C   UNL     1       5.389   4.177  16.847  0.00  0.00    +0.000 A 
ATOM      8  C   UNL     1       5.173   4.376  15.484  0.00  0.00    +0.000 A 
ATOM      9  C   UNL     1       6.169   4.957  14.720  0.00  0.00    +0.000 A 
ATOM     10  N   UNL     1       7.360   5.322  15.229  0.00  0.00    +0.000 NA
ATOM     11  N   UNL     1       7.607   5.101  16.541  0.00  0.00    +0.000 NA
ATOM     12  C   UNL     1       6.649   4.541  17.313  0.00  0.00    +0.000 A 
ENDBRANCH   4   7
BRANCH   1  13
ATOM     13  C   UNL     1       2.443   7.089  19.422  0.00  0.00    +0.000 C 
BRANCH  13  14
ATOM     14  C   UNL     1       2.738   7.950  18.187  0.00  0.00    +0.000 C 
BRANCH  14  15
ATOM     15  O   UNL     1       1.550   8.508  17.624  0.00  0.00    +0.000 OA
BRANCH  15  20
ATOM     16  C   UNL     1       1.760  12.115  18.545  0.00  0.00    +0.000 A 
ATOM     17  C   UNL     1       0.443  12.310  18.962  0.00  0.00    +0.000 A 
ATOM     18  C   UNL     1      -0.461  11.247  18.933  0.00  0.00    +0.000 A 
ATOM     19  C   UNL     1      -0.050   9.989  18.483  0.00  0.00    +0.000 A 
ATOM     20  C   UNL     1       1.263   9.782  18.057  0.00  0.00    +0.000 A 
ATOM     21  C   UNL     1       2.166  10.853  18.095  0.00  0.00    +0.000 A 
BRANCH  16  23
ATOM     22  N   UNL     1       3.473  14.064  18.611  0.00  0.00    +0.000 NA
ATOM     23  C   UNL     1       2.702  13.199  18.576  0.00  0.00    +0.000 C 
ENDBRANCH  16  23
ENDBRANCH  15  20
ENDBRANCH  14  15
ENDBRANCH  13  14
ENDBRANCH   1  13
TORSDOF 6
ENDMDL
MODEL 4
REMARK VINA RESULT:      -7.1      1.383      1.647
REMARK  Name = 
REMARK  6 active torsions:
REMARK  status: ('A' for Active; 'I' for Inactive)
REMARK    1  A    between atoms: C_2  and  C_3
REMARK    2  A    between atoms: C_7  and  O_8
REMARK    3  A    between atoms: O_8  and  C_9
REMARK    4  A    between atoms: C_9  and  C_10
REMARK    5  A    between atoms: C_10  and  N_11
REMARK    6  A    between atoms: C_14  and  C_15
REMARK                            x       y       z     vdW  Elec       q    Type
REMARK                         _______ _______ _______ _____ _____    ______ ____
ROOT
ATOM      1  N   UNL     1       2.794   5.686  19.204  0.00  0.00    +0.000 NA
ATOM      2  C   UNL     1       2.487   5.285  17.824  0.00  0.00    +0.000 C 
ATOM      3  C   UNL     1       2.903   3.850  17.497  0.00  0.00    +0.000 C 
ATOM      4  C   UNL     1       4.378   3.575  17.814  0.00  0.00    +0.000 C 
ATOM      5  C   UNL     1       4.605   3.978  19.286  0.00  0.00    +0.000 C 
ATOM      6  C   UNL     1       4.198   5.430  19.558  0.00  0.00    +0.000 C 
ENDROOT
BRANCH   4   7
ATOM      7  C   UNL     1       5.397   4.184  16.860  0.00  0.00    +0.000 A 
ATOM      8  C   UNL     1       5.189   4.369  15.493  0.00  0.00    +0.000 A 
ATOM      9  C   UNL     1       6.189   4.944  14.730  0.00  0.00    +0.000 A 
ATOM     10  N   UNL     1       7.377   5.317  15.243  0.00  0.00    +0.000 NA
ATOM     11  N   UNL     1       7.616   5.108  16.558  0.00  0.00    +0.000 NA
ATOM     12  C   UNL     1       6.653   4.554  17.330  0.00  0.00    +0.000 A 
ENDBRANCH   4   7
BRANCH   1  13
ATOM     13  C   UNL     1       2.470   7.118  19.431  0.00  0.00    +0.000 C 
BRANCH  13  14
ATOM     14  C   UNL     1       2.609   7.947  18.147  0.00  0.00    +0.000 C 
BRANCH  14  15
ATOM     15  O   UNL     1       1.348   8.432  17.682  0.00  0.00    +0.000 OA
BRANCH  15  20
ATOM     16  C   UNL     1      -0.388  11.502  18.889  0.00  0.00    +0.000 A 
ATOM     17  C   UNL     1       0.694  12.384  18.876  0.00  0.00    +0.000 A 
ATOM     18  C   UNL     1       1.949  11.937  18.463  0.00  0.00    +0.000 A 
ATOM     19  C   UNL     1       2.127  10.609  18.065  0.00  0.00    +0.000 A 
ATOM     20  C   UNL     1       1.054   9.716  18.081  0.00  0.00    +0.000 A 
ATOM     21  C   UNL     1      -0.206  10.172  18.492  0.00  0.00    +0.000 A 
BRANCH  16  23
ATOM     22  N   UNL     1      -2.741  12.296  19.648  0.00  0.00    +0.000 NA
ATOM     23  C   UNL     1      -1.687  11.951  19.307  0.00  0.00    +0.000 C 
ENDBRANCH  16  23
ENDBRANCH  15  20
ENDBRANCH  14  15
ENDBRANCH  13  14
ENDBRANCH   1  13
TORSDOF 6
ENDMDL
MODEL 5
REMARK VINA RESULT:      -7.1      5.556      7.706
REMARK  Name = 
REMARK  6 active torsions:
REMARK  status: ('A' for Active; 'I' for Inactive)
REMARK    1  A    between atoms: C_2  and  C_3
REMARK    2  A    between atoms: C_7  and  O_8
REMARK    3  A    between atoms: O_8  and  C_9
REMARK    4  A    between atoms: C_9  and  C_10
REMARK    5  A    between atoms: C_10  and  N_11
REMARK    6  A    between atoms: C_14  and  C_15
REMARK                            x       y       z     vdW  Elec       q    Type
REMARK                         _______ _______ _______ _____ _____    ______ ____
ROOT
ATOM      1  N   UNL     1       6.869   6.998  16.911  0.00  0.00    +0.000 NA
ATOM      2  C   UNL     1       7.322   5.866  17.733  0.00  0.00    +0.000 C 
ATOM      3  C   UNL     1       7.222   4.516  17.022  0.00  0.00    +0.000 C 
ATOM      4  C   UNL     1       5.819   4.243  16.466  0.00  0.00    +0.000 C 
ATOM      5  C   UNL     1       5.441   5.450  15.584  0.00  0.00    +0.000 C 
ATOM      6  C   UNL     1       5.531   6.775  16.347  0.00  0.00    +0.000 C 
ENDROOT
BRANCH   4   7
ATOM      7  C   UNL     1       4.748   3.884  17.488  0.00  0.00    +0.000 A 
ATOM      8  C   UNL     1       4.971   3.761  18.859  0.00  0.00    +0.000 A 
ATOM      9  C   UNL     1       3.912   3.441  19.690  0.00  0.00    +0.000 A 
ATOM     10  N   UNL     1       2.667   3.217  19.231  0.00  0.00    +0.000 NA
ATOM     11  N   UNL     1       2.436   3.290  17.900  0.00  0.00    +0.000 NA
ATOM     12  C   UNL     1       3.451   3.607  17.065  0.00  0.00    +0.000 A 
ENDBRANCH   4   7
BRANCH   1  13
ATOM     13  C   UNL     1       6.885   8.264  17.689  0.00  0.00    +0.000 C 
BRANCH  13  14
ATOM     14  C   UNL     1       8.268   8.927  17.676  0.00  0.00    +0.000 C 
BRANCH  14  15
ATOM     15  O   UNL     1       8.767   9.156  18.995  0.00  0.00    +0.000 OA
BRANCH  15  20
ATOM     16  C   UNL     1      10.709  12.275  18.370  0.00  0.00    +0.000 A 
ATOM     17  C   UNL     1      10.800  12.742  19.682  0.00  0.00    +0.000 A 
ATOM     18  C   UNL     1      10.228  12.008  20.722  0.00  0.00    +0.000 A 
ATOM     19  C   UNL     1       9.561  10.810  20.452  0.00  0.00    +0.000 A 
ATOM     20  C   UNL     1       9.456  10.337  19.143  0.00  0.00    +0.000 A 
ATOM     21  C   UNL     1      10.038  11.076  18.104  0.00  0.00    +0.000 A 
BRANCH  16  23
ATOM     22  N   UNL     1      11.759  13.622  16.414  0.00  0.00    +0.000 NA
ATOM     23  C   UNL     1      11.299  13.018  17.291  0.00  0.00    +0.000 C 
ENDBRANCH  16  23
ENDBRANCH  15  20
ENDBRANCH  14  15
ENDBRANCH  13  14
ENDBRANCH   1  13
TORSDOF 6
ENDMDL
MODEL 6
REMARK VINA RESULT:      -7.1      1.753      2.274
REMARK  Name = 
REMARK  6 active torsions:
REMARK  status: ('A' for Active; 'I' for Inactive)
REMARK    1  A    between atoms: C_2  and  C_3
REMARK    2  A    between atoms: C_7  and  O_8
REMARK    3  A    between atoms: O_8  and  C_9
REMARK    4  A    between atoms: C_9  and  C_10
REMARK    5  A    between atoms: C_10  and  N_11
REMARK    6  A    between atoms: C_14  and  C_15
REMARK                            x       y       z     vdW  Elec       q    Type
REMARK                         _______ _______ _______ _____ _____    ______ ____
ROOT
ATOM      1  N   UNL     1       2.033   3.808  19.483  0.00  0.00    +0.000 NA
ATOM      2  C   UNL     1       1.858   4.223  18.083  0.00  0.00    +0.000 C 
ATOM      3  C   UNL     1       2.617   3.346  17.087  0.00  0.00    +0.000 C 
ATOM      4  C   UNL     1       4.109   3.225  17.423  0.00  0.00    +0.000 C 
ATOM      5  C   UNL     1       4.204   2.745  18.886  0.00  0.00    +0.000 C 
ATOM      6  C   UNL     1       3.450   3.668  19.848  0.00  0.00    +0.000 C 
ENDROOT
BRANCH   4   7
ATOM      7  C   UNL     1       4.966   4.451  17.135  0.00  0.00    +0.000 A 
ATOM      8  C   UNL     1       4.474   5.751  17.016  0.00  0.00    +0.000 A 
ATOM      9  C   UNL     1       5.356   6.786  16.763  0.00  0.00    +0.000 A 
ATOM     10  N   UNL     1       6.679   6.596  16.602  0.00  0.00    +0.000 NA
ATOM     11  N   UNL     1       7.172   5.337  16.672  0.00  0.00    +0.000 NA
ATOM     12  C   UNL     1       6.334   4.307  16.925  0.00  0.00    +0.000 A 
ENDBRANCH   4   7
BRANCH   1  13
ATOM     13  C   UNL     1       1.365   4.758  20.410  0.00  0.00    +0.000 C 
BRANCH  13  14
ATOM     14  C   UNL     1       2.208   6.018  20.646  0.00  0.00    +0.000 C 
BRANCH  14  15
ATOM     15  O   UNL     1       1.399   7.159  20.936  0.00  0.00    +0.000 OA
BRANCH  15  20
ATOM     16  C   UNL     1       1.028  10.371  19.081  0.00  0.00    +0.000 A 
ATOM     17  C   UNL     1       1.776  10.055  17.946  0.00  0.00    +0.000 A 
ATOM     18  C   UNL     1       2.365   8.796  17.831  0.00  0.00    +0.000 A 
ATOM     19  C   UNL     1       2.212   7.852  18.850  0.00  0.00    +0.000 A 
ATOM     20  C   UNL     1       1.472   8.159  19.994  0.00  0.00    +0.000 A 
ATOM     21  C   UNL     1       0.878   9.424  20.100  0.00  0.00    +0.000 A 
BRANCH  16  23
ATOM     22  N   UNL     1      -0.104  12.697  19.308  0.00  0.00    +0.000 NA
ATOM     23  C   UNL     1       0.411  11.662  19.209  0.00  0.00    +0.000 C 
ENDBRANCH  16  23
ENDBRANCH  15  20
ENDBRANCH  14  15
ENDBRANCH  13  14
ENDBRANCH   1  13
TORSDOF 6
ENDMDL
MODEL 7
REMARK VINA RESULT:      -7.1      2.011      2.774
REMARK  Name = 
REMARK  6 active torsions:
REMARK  status: ('A' for Active; 'I' for Inactive)
REMARK    1  A    between atoms: C_2  and  C_3
REMARK    2  A    between atoms: C_7  and  O_8
REMARK    3  A    between atoms: O_8  and  C_9
REMARK    4  A    between atoms: C_9  and  C_10
REMARK    5  A    between atoms: C_10  and  N_11
REMARK    6  A    between atoms: C_14  and  C_15
REMARK                            x       y       z     vdW  Elec       q    Type
REMARK                         _______ _______ _______ _____ _____    ______ ____
ROOT
ATOM      1  N   UNL     1       2.065   2.519  20.039  0.00  0.00    +0.000 NA
ATOM      2  C   UNL     1       1.741   2.964  18.676  0.00  0.00    +0.000 C 
ATOM      3  C   UNL     1       2.601   2.304  17.597  0.00  0.00    +0.000 C 
ATOM      4  C   UNL     1       4.103   2.458  17.864  0.00  0.00    +0.000 C 
ATOM      5  C   UNL     1       4.364   1.930  19.289  0.00  0.00    +0.000 C 
ATOM      6  C   UNL     1       3.499   2.638  20.336  0.00  0.00    +0.000 C 
ENDROOT
BRANCH   4   7
ATOM      7  C   UNL     1       4.694   3.840  17.616  0.00  0.00    +0.000 A 
ATOM      8  C   UNL     1       4.484   4.595  16.462  0.00  0.00    +0.000 A 
ATOM      9  C   UNL     1       5.067   5.845  16.359  0.00  0.00    +0.000 A 
ATOM     10  N   UNL     1       5.855   6.366  17.318  0.00  0.00    +0.000 NA
ATOM     11  N   UNL     1       6.105   5.633  18.428  0.00  0.00    +0.000 NA
ATOM     12  C   UNL     1       5.543   4.410  18.558  0.00  0.00    +0.000 A 
ENDBRANCH   4   7
BRANCH   1  13
ATOM     13  C   UNL     1       1.276   3.271  21.049  0.00  0.00    +0.000 C 
BRANCH  13  14
ATOM     14  C   UNL     1       0.938   4.689  20.572  0.00  0.00    +0.000 C 
BRANCH  14  15
ATOM     15  O   UNL     1       2.011   5.604  20.800  0.00  0.00    +0.000 OA
BRANCH  15  20
ATOM     16  C   UNL     1       1.361   9.112  19.719  0.00  0.00    +0.000 A 
ATOM     17  C   UNL     1       1.871   9.038  18.422  0.00  0.00    +0.000 A 
ATOM     18  C   UNL     1       2.400   7.837  17.951  0.00  0.00    +0.000 A 
ATOM     19  C   UNL     1       2.424   6.708  18.775  0.00  0.00    +0.000 A 
ATOM     20  C   UNL     1       1.923   6.771  20.076  0.00  0.00    +0.000 A 
ATOM     21  C   UNL     1       1.388   7.980  20.542  0.00  0.00    +0.000 A 
BRANCH  16  23
ATOM     22  N   UNL     1       0.377  11.339  20.621  0.00  0.00    +0.000 NA
ATOM     23  C   UNL     1       0.808  10.342  20.215  0.00  0.00    +0.000 C 
ENDBRANCH  16  23
ENDBRANCH  15  20
ENDBRANCH  14  15
ENDBRANCH  13  14
ENDBRANCH   1  13
TORSDOF 6
ENDMDL
MODEL 8
REMARK VINA RESULT:      -7.0      5.501      7.189
REMARK  Name = 
REMARK  6 active torsions:
REMARK  status: ('A' for Active; 'I' for Inactive)
REMARK    1  A    between atoms: C_2  and  C_3
REMARK    2  A    between atoms: C_7  and  O_8
REMARK    3  A    between atoms: O_8  and  C_9
REMARK    4  A    between atoms: C_9  and  C_10
REMARK    5  A    between atoms: C_10  and  N_11
REMARK    6  A    between atoms: C_14  and  C_15
REMARK                            x       y       z     vdW  Elec       q    Type
REMARK                         _______ _______ _______ _____ _____    ______ ____
ROOT
ATOM      1  N   UNL     1       7.289   6.665  17.159  0.00  0.00    +0.000 NA
ATOM      2  C   UNL     1       7.352   5.219  17.421  0.00  0.00    +0.000 C 
ATOM      3  C   UNL     1       6.533   4.384  16.436  0.00  0.00    +0.000 C 
ATOM      4  C   UNL     1       5.074   4.844  16.341  0.00  0.00    +0.000 C 
ATOM      5  C   UNL     1       5.096   6.353  16.022  0.00  0.00    +0.000 C 
ATOM      6  C   UNL     1       5.906   7.150  17.049  0.00  0.00    +0.000 C 
ENDROOT
BRANCH   4   7
ATOM      7  C   UNL     1       4.179   4.492  17.523  0.00  0.00    +0.000 A 
ATOM      8  C   UNL     1       4.371   3.395  18.362  0.00  0.00    +0.000 A 
ATOM      9  C   UNL     1       3.494   3.187  19.412  0.00  0.00    +0.000 A 
ATOM     10  N   UNL     1       2.438   3.986  19.651  0.00  0.00    +0.000 NA
ATOM     11  N   UNL     1       2.208   5.033  18.825  0.00  0.00    +0.000 NA
ATOM     12  C   UNL     1       3.054   5.264  17.795  0.00  0.00    +0.000 A 
ENDBRANCH   4   7
BRANCH   1  13
ATOM     13  C   UNL     1       8.010   7.431  18.208  0.00  0.00    +0.000 C 
BRANCH  13  14
ATOM     14  C   UNL     1       8.117   8.921  17.858  0.00  0.00    +0.000 C 
BRANCH  14  15
ATOM     15  O   UNL     1       8.972   9.625  18.760  0.00  0.00    +0.000 OA
BRANCH  15  20
ATOM     16  C   UNL     1       8.895  13.249  17.889  0.00  0.00    +0.000 A 
ATOM     17  C   UNL     1      10.223  13.404  17.487  0.00  0.00    +0.000 A 
ATOM     18  C   UNL     1      11.088  12.310  17.509  0.00  0.00    +0.000 A 
ATOM     19  C   UNL     1      10.630  11.061  17.937  0.00  0.00    +0.000 A 
ATOM     20  C   UNL     1       9.307  10.894  18.348  0.00  0.00    +0.000 A 
ATOM     21  C   UNL     1       8.441  11.996  18.318  0.00  0.00    +0.000 A 
BRANCH  16  23
ATOM     22  N   UNL     1       7.253  15.258  17.834  0.00  0.00    +0.000 NA
ATOM     23  C   UNL     1       7.993  14.366  17.865  0.00  0.00    +0.000 C 
ENDBRANCH  16  23
ENDBRANCH  15  20
ENDBRANCH  14  15
ENDBRANCH  13  14
ENDBRANCH   1  13
TORSDOF 6
ENDMDL
MODEL 9
REMARK VINA RESULT:      -6.9      1.363      2.000
REMARK  Name = 
REMARK  6 active torsions:
REMARK  status: ('A' for Active; 'I' for Inactive)
REMARK    1  A    between atoms: C_2  and  C_3
REMARK    2  A    between atoms: C_7  and  O_8
REMARK    3  A    between atoms: O_8  and  C_9
REMARK    4  A    between atoms: C_9  and  C_10
REMARK    5  A    between atoms: C_10  and  N_11
REMARK    6  A    between atoms: C_14  and  C_15
REMARK                            x       y       z     vdW  Elec       q    Type
REMARK                         _______ _______ _______ _____ _____    ______ ____
ROOT
ATOM      1  N   UNL     1       3.072   5.701  18.908  0.00  0.00    +0.000 NA
ATOM      2  C   UNL     1       2.834   4.685  17.871  0.00  0.00    +0.000 C 
ATOM      3  C   UNL     1       3.756   3.470  17.982  0.00  0.00    +0.000 C 
ATOM      4  C   UNL     1       5.240   3.856  18.018  0.00  0.00    +0.000 C 
ATOM      5  C   UNL     1       5.411   4.884  19.155  0.00  0.00    +0.000 C 
ATOM      6  C   UNL     1       4.487   6.093  18.986  0.00  0.00    +0.000 C 
ENDROOT
BRANCH   4   7
ATOM      7  C   UNL     1       5.849   4.310  16.698  0.00  0.00    +0.000 A 
ATOM      8  C   UNL     1       5.392   3.921  15.440  0.00  0.00    +0.000 A 
ATOM      9  C   UNL     1       6.024   4.411  14.310  0.00  0.00    +0.000 A 
ATOM     10  N   UNL     1       7.085   5.237  14.368  0.00  0.00    +0.000 NA
ATOM     11  N   UNL     1       7.572   5.595  15.579  0.00  0.00    +0.000 NA
ATOM     12  C   UNL     1       6.969   5.136  16.699  0.00  0.00    +0.000 A 
ENDBRANCH   4   7
BRANCH   1  13
ATOM     13  C   UNL     1       2.226   6.902  18.685  0.00  0.00    +0.000 C 
BRANCH  13  14
ATOM     14  C   UNL     1       1.964   7.667  19.989  0.00  0.00    +0.000 C 
BRANCH  14  15
ATOM     15  O   UNL     1       1.521   9.004  19.748  0.00  0.00    +0.000 OA
BRANCH  15  20
ATOM     16  C   UNL     1      -0.875  11.063  21.727  0.00  0.00    +0.000 A 
ATOM     17  C   UNL     1      -0.715  10.448  22.969  0.00  0.00    +0.000 A 
ATOM     18  C   UNL     1       0.180   9.388  23.110  0.00  0.00    +0.000 A 
ATOM     19  C   UNL     1       0.914   8.937  22.010  0.00  0.00    +0.000 A 
ATOM     20  C   UNL     1       0.758   9.538  20.760  0.00  0.00    +0.000 A 
ATOM     21  C   UNL     1      -0.139  10.607  20.626  0.00  0.00    +0.000 A 
BRANCH  16  23
ATOM     22  N   UNL     1      -2.514  13.055  21.432  0.00  0.00    +0.000 NA
ATOM     23  C   UNL     1      -1.789  12.160  21.569  0.00  0.00    +0.000 C 
ENDBRANCH  16  23
ENDBRANCH  15  20
ENDBRANCH  14  15
ENDBRANCH  13  14
ENDBRANCH   1  13
TORSDOF 6
ENDMDL
