MODEL 1
REMARK VINA RESULT:      -8.7      0.000      0.000
REMARK  Name = 
REMARK  11 active torsions:
REMARK  status: ('A' for Active; 'I' for Inactive)
REMARK    1  A    between atoms: C_2  and  C_29
REMARK    2  A    between atoms: N_3  and  C_4
REMARK    3  A    between atoms: C_4  and  C_5
REMARK    4  A    between atoms: C_5  and  O_6
REMARK    5  A    between atoms: C_5  and  C_7
REMARK    6  A    between atoms: C_7  and  C_8
REMARK    7  A    between atoms: C_8  and  C_9
REMARK    8  A    between atoms: C_8  and  C_16
REMARK    9  A    between atoms: C_9  and  C_10
REMARK   10  A    between atoms: N_18  and  C_19
REMARK   11  A    between atoms: C_27  and  O_28
REMARK                            x       y       z     vdW  Elec       q    Type
REMARK                         _______ _______ _______ _____ _____    ______ ____
ROOT
ATOM      1  C   UNL     1       6.002   5.807  16.962  0.00  0.00    +0.000 C 
ENDROOT
BRANCH   1   2
ATOM      2  C   UNL     1       4.553   5.227  17.080  0.00  0.00    +0.000 C 
ATOM      3  O   UNL     1       4.244   4.104  16.689  0.00  0.00    +0.000 OA
ATOM      4  N   UNL     1       3.641   6.071  17.638  0.00  0.00    +0.000 N 
ATOM      5  H   UNL     1       3.777   7.039  17.379  0.00  0.00    +0.000 HD
BRANCH   4   6
ATOM      6  C   UNL     1       2.213   5.820  17.917  0.00  0.00    +0.000 C 
ATOM      7  C   UNL     1       1.863   4.647  18.805  0.00  0.00    +0.000 A 
ATOM      8  C   UNL     1       1.228   3.454  18.486  0.00  0.00    +0.000 A 
ATOM      9  C   UNL     1       0.902   2.560  19.520  0.00  0.00    +0.000 A 
ATOM     10  C   UNL     1       1.255   2.837  20.848  0.00  0.00    +0.000 A 
ATOM     11  C   UNL     1       1.825   4.064  21.177  0.00  0.00    +0.000 A 
ATOM     12  C   UNL     1       2.032   4.980  20.157  0.00  0.00    +0.000 A 
ATOM     13  C   UNL     1       2.280   6.447  20.298  0.00  0.00    +0.000 C 
ATOM     14  C   UNL     1       1.815   6.958  18.905  0.00  0.00    +0.000 C 
BRANCH  14  15
ATOM     15  O   UNL     1       2.450   8.195  18.551  0.00  0.00    +0.000 OA
ATOM     16  H   UNL     1       1.991   8.911  19.024  0.00  0.00    +0.000 HD
ENDBRANCH  14  15
ENDBRANCH   4   6
ENDBRANCH   1   2
BRANCH   1  17
ATOM     17  C   UNL     1       6.664   6.420  18.251  0.00  0.00    +0.000 C 
BRANCH  17  18
ATOM     18  C   UNL     1       7.908   7.315  17.982  0.00  0.00    +0.000 C 
BRANCH  18  19
ATOM     19  O   UNL     1       8.784   7.330  19.110  0.00  0.00    +0.000 OA
ATOM     20  H   UNL     1       9.586   7.826  18.861  0.00  0.00    +0.000 HD
ENDBRANCH  18  19
BRANCH  18  21
ATOM     21  C   UNL     1       7.595   8.792  17.653  0.00  0.00    +0.000 C 
BRANCH  21  24
ATOM     22  O   UNL     1       7.788  11.611  17.284  0.00  0.00    +0.000 OA
ATOM     23  C   UNL     1       8.652  11.034  17.942  0.00  0.00    +0.000 C 
ATOM     24  N   UNL     1       8.644   9.675  18.155  0.00  0.00    +0.000 N 
ATOM     25  H   UNL     1       9.300   9.316  18.855  0.00  0.00    +0.000 HD
BRANCH  23  26
ATOM     26  C   UNL     1       9.800  11.789  18.573  0.00  0.00    +0.000 A 
ATOM     27  C   UNL     1      10.080  13.088  18.136  0.00  0.00    +0.000 A 
ATOM     28  C   UNL     1      11.185  13.743  18.666  0.00  0.00    +0.000 A 
ATOM     29  C   UNL     1      11.972  13.101  19.616  0.00  0.00    +0.000 A 
ATOM     30  C   UNL     1      11.610  11.816  20.010  0.00  0.00    +0.000 A 
ATOM     31  N   UNL     1      10.537  11.138  19.518  0.00  0.00    +0.000 NA
ENDBRANCH  23  26
ENDBRANCH  21  24
ENDBRANCH  18  21
ENDBRANCH  17  18
ENDBRANCH   1  17
BRANCH   1  32
ATOM     32  C   UNL     1       6.888   4.744  16.264  0.00  0.00    +0.000 C 
BRANCH  32  33
ATOM     33  C   UNL     1       6.886   4.702  14.744  0.00  0.00    +0.000 A 
ATOM     34  C   UNL     1       7.760   5.465  13.956  0.00  0.00    +0.000 A 
ATOM     35  C   UNL     1       7.872   5.255  12.582  0.00  0.00    +0.000 A 
ATOM     36  C   UNL     1       7.094   4.286  11.963  0.00  0.00    +0.000 A 
ATOM     37  C   UNL     1       6.179   3.554  12.716  0.00  0.00    +0.000 A 
ATOM     38  C   UNL     1       6.075   3.758  14.095  0.00  0.00    +0.000 A 
ENDBRANCH  32  33
ENDBRANCH   1  32
TORSDOF 11
ENDMDL
MODEL 2
REMARK VINA RESULT:      -8.5      5.411      8.834
REMARK  Name = 
REMARK  11 active torsions:
REMARK  status: ('A' for Active; 'I' for Inactive)
REMARK    1  A    between atoms: C_2  and  C_29
REMARK    2  A    between atoms: N_3  and  C_4
REMARK    3  A    between atoms: C_4  and  C_5
REMARK    4  A    between atoms: C_5  and  O_6
REMARK    5  A    between atoms: C_5  and  C_7
REMARK    6  A    between atoms: C_7  and  C_8
REMARK    7  A    between atoms: C_8  and  C_9
REMARK    8  A    between atoms: C_8  and  C_16
REMARK    9  A    between atoms: C_9  and  C_10
REMARK   10  A    between atoms: N_18  and  C_19
REMARK   11  A    between atoms: C_27  and  O_28
REMARK                            x       y       z     vdW  Elec       q    Type
REMARK                         _______ _______ _______ _____ _____    ______ ____
ROOT
ATOM      1  C   UNL     1       1.113   9.758  18.878  0.00  0.00    +0.000 C 
ENDROOT
BRANCH   1   2
ATOM      2  C   UNL     1       1.617   8.530  19.708  0.00  0.00    +0.000 C 
ATOM      3  O   UNL     1       1.281   8.321  20.872  0.00  0.00    +0.000 OA
ATOM      4  N   UNL     1       2.479   7.707  19.050  0.00  0.00    +0.000 N 
ATOM      5  H   UNL     1       3.117   8.200  18.439  0.00  0.00    +0.000 HD
BRANCH   4   6
ATOM      6  C   UNL     1       3.106   6.462  19.534  0.00  0.00    +0.000 C 
ATOM      7  C   UNL     1       2.222   5.246  19.699  0.00  0.00    +0.000 A 
ATOM      8  C   UNL     1       1.817   4.597  20.858  0.00  0.00    +0.000 A 
ATOM      9  C   UNL     1       1.087   3.401  20.748  0.00  0.00    +0.000 A 
ATOM     10  C   UNL     1       0.724   2.893  19.492  0.00  0.00    +0.000 A 
ATOM     11  C   UNL     1       1.191   3.503  18.331  0.00  0.00    +0.000 A 
ATOM     12  C   UNL     1       2.009   4.616  18.464  0.00  0.00    +0.000 A 
ATOM     13  C   UNL     1       2.902   5.209  17.424  0.00  0.00    +0.000 C 
ATOM     14  C   UNL     1       3.934   5.956  18.315  0.00  0.00    +0.000 C 
BRANCH  14  15
ATOM     15  O   UNL     1       4.548   7.050  17.617  0.00  0.00    +0.000 OA
ATOM     16  H   UNL     1       5.044   7.576  18.268  0.00  0.00    +0.000 HD
ENDBRANCH  14  15
ENDBRANCH   4   6
ENDBRANCH   1   2
BRANCH   1  17
ATOM     17  C   UNL     1       2.188  10.714  18.239  0.00  0.00    +0.000 C 
BRANCH  17  18
ATOM     18  C   UNL     1       1.815  12.224  18.266  0.00  0.00    +0.000 C 
BRANCH  18  19
ATOM     19  O   UNL     1       2.520  12.946  17.255  0.00  0.00    +0.000 OA
ATOM     20  H   UNL     1       2.099  13.821  17.161  0.00  0.00    +0.000 HD
ENDBRANCH  18  19
BRANCH  18  21
ATOM     21  C   UNL     1       2.104  12.947  19.601  0.00  0.00    +0.000 C 
BRANCH  21  24
ATOM     22  O   UNL     1       1.765  14.319  22.075  0.00  0.00    +0.000 OA
ATOM     23  C   UNL     1       0.865  13.586  21.671  0.00  0.00    +0.000 C 
ATOM     24  N   UNL     1       0.953  12.876  20.497  0.00  0.00    +0.000 N 
ATOM     25  H   UNL     1       0.091  12.436  20.160  0.00  0.00    +0.000 HD
BRANCH  23  26
ATOM     26  C   UNL     1      -0.421  13.414  22.446  0.00  0.00    +0.000 A 
ATOM     27  C   UNL     1      -1.187  12.260  22.244  0.00  0.00    +0.000 A 
ATOM     28  C   UNL     1      -2.406  12.149  22.901  0.00  0.00    +0.000 A 
ATOM     29  C   UNL     1      -2.827  13.173  23.743  0.00  0.00    +0.000 A 
ATOM     30  C   UNL     1      -1.994  14.277  23.904  0.00  0.00    +0.000 A 
ATOM     31  N   UNL     1      -0.793  14.426  23.281  0.00  0.00    +0.000 NA
ENDBRANCH  23  26
ENDBRANCH  21  24
ENDBRANCH  18  21
ENDBRANCH  17  18
ENDBRANCH   1  17
BRANCH   1  32
ATOM     32  C   UNL     1       0.064   9.249  17.858  0.00  0.00    +0.000 C 
BRANCH  32  33
ATOM     33  C   UNL     1      -1.290   9.942  17.824  0.00  0.00    +0.000 A 
ATOM     34  C   UNL     1      -1.691  10.885  18.782  0.00  0.00    +0.000 A 
ATOM     35  C   UNL     1      -2.846  11.648  18.613  0.00  0.00    +0.000 A 
ATOM     36  C   UNL     1      -3.637  11.467  17.486  0.00  0.00    +0.000 A 
ATOM     37  C   UNL     1      -3.289  10.497  16.549  0.00  0.00    +0.000 A 
ATOM     38  C   UNL     1      -2.125   9.741  16.715  0.00  0.00    +0.000 A 
ENDBRANCH  32  33
ENDBRANCH   1  32
TORSDOF 11
ENDMDL
MODEL 3
REMARK VINA RESULT:      -8.4      1.152      1.366
REMARK  Name = 
REMARK  11 active torsions:
REMARK  status: ('A' for Active; 'I' for Inactive)
REMARK    1  A    between atoms: C_2  and  C_29
REMARK    2  A    between atoms: N_3  and  C_4
REMARK    3  A    between atoms: C_4  and  C_5
REMARK    4  A    between atoms: C_5  and  O_6
REMARK    5  A    between atoms: C_5  and  C_7
REMARK    6  A    between atoms: C_7  and  C_8
REMARK    7  A    between atoms: C_8  and  C_9
REMARK    8  A    between atoms: C_8  and  C_16
REMARK    9  A    between atoms: C_9  and  C_10
REMARK   10  A    between atoms: N_18  and  C_19
REMARK   11  A    between atoms: C_27  and  O_28
REMARK                            x       y       z     vdW  Elec       q    Type
REMARK                         _______ _______ _______ _____ _____    ______ ____
ROOT
ATOM      1  C   UNL     1       5.964   4.464  16.666  0.00  0.00    +0.000 C 
ENDROOT
BRANCH   1   2
ATOM      2  C   UNL     1       4.517   4.164  17.184  0.00  0.00    +0.000 C 
ATOM      3  O   UNL     1       4.101   3.027  17.395  0.00  0.00    +0.000 OA
ATOM      4  N   UNL     1       3.736   5.263  17.372  0.00  0.00    +0.000 N 
ATOM      5  H   UNL     1       3.884   5.985  16.679  0.00  0.00    +0.000 HD
BRANCH   4   6
ATOM      6  C   UNL     1       2.349   5.325  17.875  0.00  0.00    +0.000 C 
ATOM      7  C   UNL     1       1.955   4.364  18.974  0.00  0.00    +0.000 A 
ATOM      8  C   UNL     1       1.086   3.281  18.933  0.00  0.00    +0.000 A 
ATOM      9  C   UNL     1       0.784   2.606  20.128  0.00  0.00    +0.000 A 
ATOM     10  C   UNL     1       1.387   2.980  21.337  0.00  0.00    +0.000 A 
ATOM     11  C   UNL     1       2.200   4.110  21.392  0.00  0.00    +0.000 A 
ATOM     12  C   UNL     1       2.391   4.831  20.222  0.00  0.00    +0.000 A 
ATOM     13  C   UNL     1       2.901   6.229  20.099  0.00  0.00    +0.000 C 
ATOM     14  C   UNL     1       2.311   6.635  18.718  0.00  0.00    +0.000 C 
BRANCH  14  15
ATOM     15  O   UNL     1       3.080   7.674  18.094  0.00  0.00    +0.000 OA
ATOM     16  H   UNL     1       2.555   8.029  17.356  0.00  0.00    +0.000 HD
ENDBRANCH  14  15
ENDBRANCH   4   6
ENDBRANCH   1   2
BRANCH   1  17
ATOM     17  C   UNL     1       7.130   4.540  17.721  0.00  0.00    +0.000 C 
BRANCH  17  18
ATOM     18  C   UNL     1       7.248   5.903  18.462  0.00  0.00    +0.000 C 
BRANCH  18  19
ATOM     19  O   UNL     1       6.091   6.156  19.260  0.00  0.00    +0.000 OA
ATOM     20  H   UNL     1       6.312   5.947  20.186  0.00  0.00    +0.000 HD
ENDBRANCH  18  19
BRANCH  18  21
ATOM     21  C   UNL     1       7.425   7.135  17.546  0.00  0.00    +0.000 C 
BRANCH  21  24
ATOM     22  O   UNL     1       7.262   9.971  17.327  0.00  0.00    +0.000 OA
ATOM     23  C   UNL     1       8.157   9.475  18.009  0.00  0.00    +0.000 C 
ATOM     24  N   UNL     1       8.317   8.118  18.155  0.00  0.00    +0.000 N 
ATOM     25  H   UNL     1       8.975   7.808  18.876  0.00  0.00    +0.000 HD
BRANCH  23  26
ATOM     26  C   UNL     1       9.156  10.337  18.747  0.00  0.00    +0.000 A 
ATOM     27  C   UNL     1      10.213  10.914  18.033  0.00  0.00    +0.000 A 
ATOM     28  C   UNL     1      11.170  11.637  18.734  0.00  0.00    +0.000 A 
ATOM     29  C   UNL     1      11.051  11.777  20.113  0.00  0.00    +0.000 A 
ATOM     30  C   UNL     1       9.957  11.187  20.741  0.00  0.00    +0.000 A 
ATOM     31  N   UNL     1       8.997  10.472  20.094  0.00  0.00    +0.000 NA
ENDBRANCH  23  26
ENDBRANCH  21  24
ENDBRANCH  18  21
ENDBRANCH  17  18
ENDBRANCH   1  17
BRANCH   1  32
ATOM     32  C   UNL     1       6.263   3.496  15.493  0.00  0.00    +0.000 C 
BRANCH  32  33
ATOM     33  C   UNL     1       6.617   4.102  14.143  0.00  0.00    +0.000 A 
ATOM     34  C   UNL     1       7.512   5.171  13.997  0.00  0.00    +0.000 A 
ATOM     35  C   UNL     1       7.970   5.570  12.741  0.00  0.00    +0.000 A 
ATOM     36  C   UNL     1       7.526   4.914  11.601  0.00  0.00    +0.000 A 
ATOM     37  C   UNL     1       6.595   3.884  11.718  0.00  0.00    +0.000 A 
ATOM     38  C   UNL     1       6.145   3.480  12.978  0.00  0.00    +0.000 A 
ENDBRANCH  32  33
ENDBRANCH   1  32
TORSDOF 11
ENDMDL
MODEL 4
REMARK VINA RESULT:      -8.3      5.228      9.513
REMARK  Name = 
REMARK  11 active torsions:
REMARK  status: ('A' for Active; 'I' for Inactive)
REMARK    1  A    between atoms: C_2  and  C_29
REMARK    2  A    between atoms: N_3  and  C_4
REMARK    3  A    between atoms: C_4  and  C_5
REMARK    4  A    between atoms: C_5  and  O_6
REMARK    5  A    between atoms: C_5  and  C_7
REMARK    6  A    between atoms: C_7  and  C_8
REMARK    7  A    between atoms: C_8  and  C_9
REMARK    8  A    between atoms: C_8  and  C_16
REMARK    9  A    between atoms: C_9  and  C_10
REMARK   10  A    between atoms: N_18  and  C_19
REMARK   11  A    between atoms: C_27  and  O_28
REMARK                            x       y       z     vdW  Elec       q    Type
REMARK                         _______ _______ _______ _____ _____    ______ ____
ROOT
ATOM      1  C   UNL     1       1.147   8.575  19.401  0.00  0.00    +0.000 C 
ENDROOT
BRANCH   1   2
ATOM      2  C   UNL     1       2.142   8.120  18.281  0.00  0.00    +0.000 C 
ATOM      3  O   UNL     1       2.490   8.847  17.354  0.00  0.00    +0.000 OA
ATOM      4  N   UNL     1       2.589   6.838  18.397  0.00  0.00    +0.000 N 
ATOM      5  H   UNL     1       1.886   6.197  18.739  0.00  0.00    +0.000 HD
BRANCH   4   6
ATOM      6  C   UNL     1       3.548   6.122  17.533  0.00  0.00    +0.000 C 
ATOM      7  C   UNL     1       5.022   6.291  17.824  0.00  0.00    +0.000 A 
ATOM      8  C   UNL     1       6.002   6.938  17.083  0.00  0.00    +0.000 A 
ATOM      9  C   UNL     1       7.340   6.854  17.505  0.00  0.00    +0.000 A 
ATOM     10  C   UNL     1       7.681   6.174  18.683  0.00  0.00    +0.000 A 
ATOM     11  C   UNL     1       6.710   5.464  19.385  0.00  0.00    +0.000 A 
ATOM     12  C   UNL     1       5.416   5.464  18.886  0.00  0.00    +0.000 A 
ATOM     13  C   UNL     1       4.314   4.518  19.238  0.00  0.00    +0.000 C 
ATOM     14  C   UNL     1       3.416   4.633  17.974  0.00  0.00    +0.000 C 
BRANCH  14  15
ATOM     15  O   UNL     1       2.049   4.298  18.259  0.00  0.00    +0.000 OA
ATOM     16  H   UNL     1       2.049   3.620  18.957  0.00  0.00    +0.000 HD
ENDBRANCH  14  15
ENDBRANCH   4   6
ENDBRANCH   1   2
BRANCH   1  17
ATOM     17  C   UNL     1       1.460   8.160  20.886  0.00  0.00    +0.000 C 
BRANCH  17  18
ATOM     18  C   UNL     1       1.122   9.244  21.949  0.00  0.00    +0.000 C 
BRANCH  18  19
ATOM     19  O   UNL     1       2.266   9.559  22.744  0.00  0.00    +0.000 OA
ATOM     20  H   UNL     1       2.861  10.115  22.208  0.00  0.00    +0.000 HD
ENDBRANCH  18  19
BRANCH  18  21
ATOM     21  C   UNL     1      -0.005   8.865  22.938  0.00  0.00    +0.000 C 
BRANCH  21  24
ATOM     22  O   UNL     1       0.359  11.621  22.312  0.00  0.00    +0.000 OA
ATOM     23  C   UNL     1      -0.745  11.235  22.691  0.00  0.00    +0.000 C 
ATOM     24  N   UNL     1      -1.003   9.927  23.028  0.00  0.00    +0.000 N 
ATOM     25  H   UNL     1      -1.986   9.672  23.161  0.00  0.00    +0.000 HD
BRANCH  23  26
ATOM     26  C   UNL     1      -1.915  12.186  22.812  0.00  0.00    +0.000 A 
ATOM     27  C   UNL     1      -1.825  13.450  22.220  0.00  0.00    +0.000 A 
ATOM     28  C   UNL     1      -2.873  14.345  22.405  0.00  0.00    +0.000 A 
ATOM     29  C   UNL     1      -3.978  13.961  23.158  0.00  0.00    +0.000 A 
ATOM     30  C   UNL     1      -3.994  12.676  23.694  0.00  0.00    +0.000 A 
ATOM     31  N   UNL     1      -2.992  11.769  23.537  0.00  0.00    +0.000 NA
ENDBRANCH  23  26
ENDBRANCH  21  24
ENDBRANCH  18  21
ENDBRANCH  17  18
ENDBRANCH   1  17
BRANCH   1  32
ATOM     32  C   UNL     1       0.895  10.094  19.230  0.00  0.00    +0.000 C 
BRANCH  32  33
ATOM     33  C   UNL     1      -0.422  10.532  18.607  0.00  0.00    +0.000 A 
ATOM     34  C   UNL     1      -1.066   9.808  17.594  0.00  0.00    +0.000 A 
ATOM     35  C   UNL     1      -2.363  10.122  17.187  0.00  0.00    +0.000 A 
ATOM     36  C   UNL     1      -3.036  11.183  17.777  0.00  0.00    +0.000 A 
ATOM     37  C   UNL     1      -2.396  11.950  18.747  0.00  0.00    +0.000 A 
ATOM     38  C   UNL     1      -1.100  11.628  19.160  0.00  0.00    +0.000 A 
ENDBRANCH  32  33
ENDBRANCH   1  32
TORSDOF 11
ENDMDL
MODEL 5
REMARK VINA RESULT:      -8.3      4.557      7.851
REMARK  Name = 
REMARK  11 active torsions:
REMARK  status: ('A' for Active; 'I' for Inactive)
REMARK    1  A    between atoms: C_2  and  C_29
REMARK    2  A    between atoms: N_3  and  C_4
REMARK    3  A    between atoms: C_4  and  C_5
REMARK    4  A    between atoms: C_5  and  O_6
REMARK    5  A    between atoms: C_5  and  C_7
REMARK    6  A    between atoms: C_7  and  C_8
REMARK    7  A    between atoms: C_8  and  C_9
REMARK    8  A    between atoms: C_8  and  C_16
REMARK    9  A    between atoms: C_9  and  C_10
REMARK   10  A    between atoms: N_18  and  C_19
REMARK   11  A    between atoms: C_27  and  O_28
REMARK                            x       y       z     vdW  Elec       q    Type
REMARK                         _______ _______ _______ _____ _____    ______ ____
ROOT
ATOM      1  C   UNL     1       1.953   6.809  18.732  0.00  0.00    +0.000 C 
ENDROOT
BRANCH   1   2
ATOM      2  C   UNL     1       2.075   8.370  18.751  0.00  0.00    +0.000 C 
ATOM      3  O   UNL     1       2.647   9.011  17.872  0.00  0.00    +0.000 OA
ATOM      4  N   UNL     1       1.510   8.977  19.831  0.00  0.00    +0.000 N 
ATOM      5  H   UNL     1       1.618   8.452  20.689  0.00  0.00    +0.000 HD
BRANCH   4   6
ATOM      6  C   UNL     1       1.427  10.420  20.130  0.00  0.00    +0.000 C 
ATOM      7  C   UNL     1       0.292  11.205  19.510  0.00  0.00    +0.000 A 
ATOM      8  C   UNL     1       0.329  12.184  18.527  0.00  0.00    +0.000 A 
ATOM      9  C   UNL     1      -0.857  12.862  18.198  0.00  0.00    +0.000 A 
ATOM     10  C   UNL     1      -2.072  12.524  18.810  0.00  0.00    +0.000 A 
ATOM     11  C   UNL     1      -2.096  11.594  19.846  0.00  0.00    +0.000 A 
ATOM     12  C   UNL     1      -0.893  11.022  20.235  0.00  0.00    +0.000 A 
ATOM     13  C   UNL     1      -0.610  10.300  21.512  0.00  0.00    +0.000 C 
ATOM     14  C   UNL     1       0.933  10.472  21.608  0.00  0.00    +0.000 C 
BRANCH  14  15
ATOM     15  O   UNL     1       1.538   9.432  22.392  0.00  0.00    +0.000 OA
ATOM     16  H   UNL     1       2.202   9.845  22.970  0.00  0.00    +0.000 HD
ENDBRANCH  14  15
ENDBRANCH   4   6
ENDBRANCH   1   2
BRANCH   1  17
ATOM     17  C   UNL     1       2.922   6.001  17.791  0.00  0.00    +0.000 C 
BRANCH  17  18
ATOM     18  C   UNL     1       4.399   5.943  18.275  0.00  0.00    +0.000 C 
BRANCH  18  19
ATOM     19  O   UNL     1       5.166   7.009  17.713  0.00  0.00    +0.000 OA
ATOM     20  H   UNL     1       4.553   7.733  17.485  0.00  0.00    +0.000 HD
ENDBRANCH  18  19
BRANCH  18  21
ATOM     21  C   UNL     1       5.152   4.637  17.931  0.00  0.00    +0.000 C 
BRANCH  21  24
ATOM     22  O   UNL     1       7.640   5.271  16.696  0.00  0.00    +0.000 OA
ATOM     23  C   UNL     1       6.707   4.885  15.995  0.00  0.00    +0.000 C 
ATOM     24  N   UNL     1       5.469   4.573  16.507  0.00  0.00    +0.000 N 
ATOM     25  H   UNL     1       4.817   4.097  15.876  0.00  0.00    +0.000 HD
BRANCH  23  26
ATOM     26  C   UNL     1       6.858   4.720  14.500  0.00  0.00    +0.000 A 
ATOM     27  C   UNL     1       6.087   3.755  13.842  0.00  0.00    +0.000 A 
ATOM     28  C   UNL     1       6.291   3.556  12.482  0.00  0.00    +0.000 A 
ATOM     29  C   UNL     1       7.241   4.321  11.812  0.00  0.00    +0.000 A 
ATOM     30  C   UNL     1       7.949   5.274  12.539  0.00  0.00    +0.000 A 
ATOM     31  N   UNL     1       7.781   5.502  13.871  0.00  0.00    +0.000 NA
ENDBRANCH  23  26
ENDBRANCH  21  24
ENDBRANCH  18  21
ENDBRANCH  17  18
ENDBRANCH   1  17
BRANCH   1  32
ATOM     32  C   UNL     1       1.967   6.310  20.199  0.00  0.00    +0.000 C 
BRANCH  32  33
ATOM     33  C   UNL     1       1.738   4.827  20.448  0.00  0.00    +0.000 A 
ATOM     34  C   UNL     1       0.923   4.032  19.630  0.00  0.00    +0.000 A 
ATOM     35  C   UNL     1       0.893   2.643  19.762  0.00  0.00    +0.000 A 
ATOM     36  C   UNL     1       1.669   2.023  20.732  0.00  0.00    +0.000 A 
ATOM     37  C   UNL     1       2.444   2.797  21.592  0.00  0.00    +0.000 A 
ATOM     38  C   UNL     1       2.481   4.188  21.452  0.00  0.00    +0.000 A 
ENDBRANCH  32  33
ENDBRANCH   1  32
TORSDOF 11
ENDMDL
MODEL 6
REMARK VINA RESULT:      -8.3      5.218      9.537
REMARK  Name = 
REMARK  11 active torsions:
REMARK  status: ('A' for Active; 'I' for Inactive)
REMARK    1  A    between atoms: C_2  and  C_29
REMARK    2  A    between atoms: N_3  and  C_4
REMARK    3  A    between atoms: C_4  and  C_5
REMARK    4  A    between atoms: C_5  and  O_6
REMARK    5  A    between atoms: C_5  and  C_7
REMARK    6  A    between atoms: C_7  and  C_8
REMARK    7  A    between atoms: C_8  and  C_9
REMARK    8  A    between atoms: C_8  and  C_16
REMARK    9  A    between atoms: C_9  and  C_10
REMARK   10  A    between atoms: N_18  and  C_19
REMARK   11  A    between atoms: C_27  and  O_28
REMARK                            x       y       z     vdW  Elec       q    Type
REMARK                         _______ _______ _______ _____ _____    ______ ____
ROOT
ATOM      1  C   UNL     1       1.101   8.936  19.272  0.00  0.00    +0.000 C 
ENDROOT
BRANCH   1   2
ATOM      2  C   UNL     1       2.037   8.351  18.163  0.00  0.00    +0.000 C 
ATOM      3  O   UNL     1       2.382   8.986  17.169  0.00  0.00    +0.000 OA
ATOM      4  N   UNL     1       2.436   7.064  18.368  0.00  0.00    +0.000 N 
ATOM      5  H   UNL     1       1.719   6.484  18.783  0.00  0.00    +0.000 HD
BRANCH   4   6
ATOM      6  C   UNL     1       3.333   6.241  17.535  0.00  0.00    +0.000 C 
ATOM      7  C   UNL     1       4.819   6.318  17.811  0.00  0.00    +0.000 A 
ATOM      8  C   UNL     1       5.835   6.856  17.034  0.00  0.00    +0.000 A 
ATOM      9  C   UNL     1       7.168   6.697  17.452  0.00  0.00    +0.000 A 
ATOM     10  C   UNL     1       7.470   6.053  18.660  0.00  0.00    +0.000 A 
ATOM     11  C   UNL     1       6.457   5.449  19.402  0.00  0.00    +0.000 A 
ATOM     12  C   UNL     1       5.162   5.517  18.910  0.00  0.00    +0.000 A 
ATOM     13  C   UNL     1       3.999   4.671  19.313  0.00  0.00    +0.000 C 
ATOM     14  C   UNL     1       3.100   4.788  18.050  0.00  0.00    +0.000 C 
BRANCH  14  15
ATOM     15  O   UNL     1       1.715   4.565  18.358  0.00  0.00    +0.000 OA
ATOM     16  H   UNL     1       1.629   4.524  19.326  0.00  0.00    +0.000 HD
ENDBRANCH  14  15
ENDBRANCH   4   6
ENDBRANCH   1   2
BRANCH   1  17
ATOM     17  C   UNL     1       1.628   8.954  20.755  0.00  0.00    +0.000 C 
BRANCH  17  18
ATOM     18  C   UNL     1       0.569   8.567  21.827  0.00  0.00    +0.000 C 
BRANCH  18  19
ATOM     19  O   UNL     1      -0.749   8.581  21.276  0.00  0.00    +0.000 OA
ATOM     20  H   UNL     1      -0.972   7.671  21.005  0.00  0.00    +0.000 HD
ENDBRANCH  18  19
BRANCH  18  21
ATOM     21  C   UNL     1       0.530   9.481  23.072  0.00  0.00    +0.000 C 
BRANCH  21  24
ATOM     22  O   UNL     1       0.494  12.092  21.932  0.00  0.00    +0.000 OA
ATOM     23  C   UNL     1      -0.537  11.643  22.430  0.00  0.00    +0.000 C 
ATOM     24  N   UNL     1      -0.603  10.400  23.014  0.00  0.00    +0.000 N 
ATOM     25  H   UNL     1      -1.538  10.047  23.240  0.00  0.00    +0.000 HD
BRANCH  23  26
ATOM     26  C   UNL     1      -1.824  12.436  22.430  0.00  0.00    +0.000 A 
ATOM     27  C   UNL     1      -2.866  12.039  23.275  0.00  0.00    +0.000 A 
ATOM     28  C   UNL     1      -4.072  12.726  23.210  0.00  0.00    +0.000 A 
ATOM     29  C   UNL     1      -4.209  13.788  22.321  0.00  0.00    +0.000 A 
ATOM     30  C   UNL     1      -3.115  14.130  21.531  0.00  0.00    +0.000 A 
ATOM     31  N   UNL     1      -1.917  13.485  21.563  0.00  0.00    +0.000 NA
ENDBRANCH  23  26
ENDBRANCH  21  24
ENDBRANCH  18  21
ENDBRANCH  17  18
ENDBRANCH   1  17
BRANCH   1  32
ATOM     32  C   UNL     1       0.590  10.317  18.788  0.00  0.00    +0.000 C 
BRANCH  32  33
ATOM     33  C   UNL     1      -0.869  10.430  18.372  0.00  0.00    +0.000 A 
ATOM     34  C   UNL     1      -1.769  11.323  18.972  0.00  0.00    +0.000 A 
ATOM     35  C   UNL     1      -3.037  11.547  18.437  0.00  0.00    +0.000 A 
ATOM     36  C   UNL     1      -3.438  10.865  17.296  0.00  0.00    +0.000 A 
ATOM     37  C   UNL     1      -2.582   9.933  16.715  0.00  0.00    +0.000 A 
ATOM     38  C   UNL     1      -1.307   9.717  17.246  0.00  0.00    +0.000 A 
ENDBRANCH  32  33
ENDBRANCH   1  32
TORSDOF 11
ENDMDL
MODEL 7
REMARK VINA RESULT:      -8.3      6.043     10.881
REMARK  Name = 
REMARK  11 active torsions:
REMARK  status: ('A' for Active; 'I' for Inactive)
REMARK    1  A    between atoms: C_2  and  C_29
REMARK    2  A    between atoms: N_3  and  C_4
REMARK    3  A    between atoms: C_4  and  C_5
REMARK    4  A    between atoms: C_5  and  O_6
REMARK    5  A    between atoms: C_5  and  C_7
REMARK    6  A    between atoms: C_7  and  C_8
REMARK    7  A    between atoms: C_8  and  C_9
REMARK    8  A    between atoms: C_8  and  C_16
REMARK    9  A    between atoms: C_9  and  C_10
REMARK   10  A    between atoms: N_18  and  C_19
REMARK   11  A    between atoms: C_27  and  O_28
REMARK                            x       y       z     vdW  Elec       q    Type
REMARK                         _______ _______ _______ _____ _____    ______ ____
ROOT
ATOM      1  C   UNL     1       0.662   9.738  19.850  0.00  0.00    +0.000 C 
ENDROOT
BRANCH   1   2
ATOM      2  C   UNL     1       1.460   8.520  20.426  0.00  0.00    +0.000 C 
ATOM      3  O   UNL     1       1.491   8.241  21.623  0.00  0.00    +0.000 OA
ATOM      4  N   UNL     1       2.142   7.790  19.500  0.00  0.00    +0.000 N 
ATOM      5  H   UNL     1       2.543   8.353  18.761  0.00  0.00    +0.000 HD
BRANCH   4   6
ATOM      6  C   UNL     1       2.957   6.578  19.710  0.00  0.00    +0.000 C 
ATOM      7  C   UNL     1       2.232   5.283  20.001  0.00  0.00    +0.000 A 
ATOM      8  C   UNL     1       2.191   4.537  21.171  0.00  0.00    +0.000 A 
ATOM      9  C   UNL     1       1.541   3.291  21.161  0.00  0.00    +0.000 A 
ATOM     10  C   UNL     1       0.896   2.826  20.005  0.00  0.00    +0.000 A 
ATOM     11  C   UNL     1       1.000   3.539  18.814  0.00  0.00    +0.000 A 
ATOM     12  C   UNL     1       1.746   4.709  18.818  0.00  0.00    +0.000 A 
ATOM     13  C   UNL     1       2.292   5.434  17.632  0.00  0.00    +0.000 C 
ATOM     14  C   UNL     1       3.469   6.215  18.283  0.00  0.00    +0.000 C 
BRANCH  14  15
ATOM     15  O   UNL     1       3.802   7.396  17.537  0.00  0.00    +0.000 OA
ATOM     16  H   UNL     1       3.324   8.143  17.935  0.00  0.00    +0.000 HD
ENDBRANCH  14  15
ENDBRANCH   4   6
ENDBRANCH   1   2
BRANCH   1  17
ATOM     17  C   UNL     1       0.303   9.732  18.318  0.00  0.00    +0.000 C 
BRANCH  17  18
ATOM     18  C   UNL     1      -1.155  10.163  17.990  0.00  0.00    +0.000 C 
BRANCH  18  19
ATOM     19  O   UNL     1      -1.556   9.686  16.705  0.00  0.00    +0.000 OA
ATOM     20  H   UNL     1      -0.780   9.274  16.281  0.00  0.00    +0.000 HD
ENDBRANCH  18  19
BRANCH  18  21
ATOM     21  C   UNL     1      -1.403  11.689  17.985  0.00  0.00    +0.000 C 
BRANCH  21  24
ATOM     22  O   UNL     1      -4.157  11.407  17.310  0.00  0.00    +0.000 OA
ATOM     23  C   UNL     1      -3.856  11.854  18.415  0.00  0.00    +0.000 C 
ATOM     24  N   UNL     1      -2.553  12.037  18.815  0.00  0.00    +0.000 N 
ATOM     25  H   UNL     1      -2.402  12.246  19.807  0.00  0.00    +0.000 HD
BRANCH  23  26
ATOM     26  C   UNL     1      -4.912  12.236  19.426  0.00  0.00    +0.000 A 
ATOM     27  C   UNL     1      -4.513  12.781  20.652  0.00  0.00    +0.000 A 
ATOM     28  C   UNL     1      -5.486  13.054  21.605  0.00  0.00    +0.000 A 
ATOM     29  C   UNL     1      -6.821  12.791  21.317  0.00  0.00    +0.000 A 
ATOM     30  C   UNL     1      -7.133  12.268  20.065  0.00  0.00    +0.000 A 
ATOM     31  N   UNL     1      -6.213  11.986  19.103  0.00  0.00    +0.000 NA
ENDBRANCH  23  26
ENDBRANCH  21  24
ENDBRANCH  18  21
ENDBRANCH  17  18
ENDBRANCH   1  17
BRANCH   1  32
ATOM     32  C   UNL     1      -0.564   9.984  20.766  0.00  0.00    +0.000 C 
BRANCH  32  33
ATOM     33  C   UNL     1      -0.590  11.260  21.592  0.00  0.00    +0.000 A 
ATOM     34  C   UNL     1       0.179  12.391  21.278  0.00  0.00    +0.000 A 
ATOM     35  C   UNL     1      -0.017  13.608  21.930  0.00  0.00    +0.000 A 
ATOM     36  C   UNL     1      -0.977  13.713  22.927  0.00  0.00    +0.000 A 
ATOM     37  C   UNL     1      -1.715  12.590  23.294  0.00  0.00    +0.000 A 
ATOM     38  C   UNL     1      -1.525  11.373  22.632  0.00  0.00    +0.000 A 
ENDBRANCH  32  33
ENDBRANCH   1  32
TORSDOF 11
ENDMDL
MODEL 8
REMARK VINA RESULT:      -8.3      5.564      9.913
REMARK  Name = 
REMARK  11 active torsions:
REMARK  status: ('A' for Active; 'I' for Inactive)
REMARK    1  A    between atoms: C_2  and  C_29
REMARK    2  A    between atoms: N_3  and  C_4
REMARK    3  A    between atoms: C_4  and  C_5
REMARK    4  A    between atoms: C_5  and  O_6
REMARK    5  A    between atoms: C_5  and  C_7
REMARK    6  A    between atoms: C_7  and  C_8
REMARK    7  A    between atoms: C_8  and  C_9
REMARK    8  A    between atoms: C_8  and  C_16
REMARK    9  A    between atoms: C_9  and  C_10
REMARK   10  A    between atoms: N_18  and  C_19
REMARK   11  A    between atoms: C_27  and  O_28
REMARK                            x       y       z     vdW  Elec       q    Type
REMARK                         _______ _______ _______ _____ _____    ______ ____
ROOT
ATOM      1  C   UNL     1       1.063   8.792  19.081  0.00  0.00    +0.000 C 
ENDROOT
BRANCH   1   2
ATOM      2  C   UNL     1       2.126   8.129  18.143  0.00  0.00    +0.000 C 
ATOM      3  O   UNL     1       2.794   8.764  17.330  0.00  0.00    +0.000 OA
ATOM      4  N   UNL     1       2.250   6.780  18.279  0.00  0.00    +0.000 N 
ATOM      5  H   UNL     1       1.372   6.311  18.456  0.00  0.00    +0.000 HD
BRANCH   4   6
ATOM      6  C   UNL     1       3.173   5.870  17.572  0.00  0.00    +0.000 C 
ATOM      7  C   UNL     1       4.657   6.059  17.794  0.00  0.00    +0.000 A 
ATOM      8  C   UNL     1       5.633   6.506  16.913  0.00  0.00    +0.000 A 
ATOM      9  C   UNL     1       6.979   6.480  17.319  0.00  0.00    +0.000 A 
ATOM     10  C   UNL     1       7.332   6.061  18.609  0.00  0.00    +0.000 A 
ATOM     11  C   UNL     1       6.363   5.545  19.466  0.00  0.00    +0.000 A 
ATOM     12  C   UNL     1       5.058   5.470  19.002  0.00  0.00    +0.000 A 
ATOM     13  C   UNL     1       3.945   4.651  19.569  0.00  0.00    +0.000 C 
ATOM     14  C   UNL     1       3.020   4.515  18.327  0.00  0.00    +0.000 C 
BRANCH  14  15
ATOM     15  O   UNL     1       1.653   4.284  18.702  0.00  0.00    +0.000 OA
ATOM     16  H   UNL     1       1.634   4.103  19.658  0.00  0.00    +0.000 HD
ENDBRANCH  14  15
ENDBRANCH   4   6
ENDBRANCH   1   2
BRANCH   1  17
ATOM     17  C   UNL     1       1.402   8.923  20.613  0.00  0.00    +0.000 C 
BRANCH  17  18
ATOM     18  C   UNL     1       0.710  10.115  21.333  0.00  0.00    +0.000 C 
BRANCH  18  19
ATOM     19  O   UNL     1       1.623  11.196  21.531  0.00  0.00    +0.000 OA
ATOM     20  H   UNL     1       2.282  11.169  20.812  0.00  0.00    +0.000 HD
ENDBRANCH  18  19
BRANCH  18  21
ATOM     21  C   UNL     1       0.115   9.787  22.721  0.00  0.00    +0.000 C 
BRANCH  21  24
ATOM     22  O   UNL     1      -0.517  12.548  23.033  0.00  0.00    +0.000 OA
ATOM     23  C   UNL     1      -1.431  11.726  23.006  0.00  0.00    +0.000 C 
ATOM     24  N   UNL     1      -1.214  10.374  22.875  0.00  0.00    +0.000 N 
ATOM     25  H   UNL     1      -2.036   9.793  22.687  0.00  0.00    +0.000 HD
BRANCH  23  26
ATOM     26  C   UNL     1      -2.878  12.149  23.113  0.00  0.00    +0.000 A 
ATOM     27  C   UNL     1      -3.489  12.764  22.014  0.00  0.00    +0.000 A 
ATOM     28  C   UNL     1      -4.794  13.221  22.150  0.00  0.00    +0.000 A 
ATOM     29  C   UNL     1      -5.458  13.050  23.360  0.00  0.00    +0.000 A 
ATOM     30  C   UNL     1      -4.783  12.410  24.396  0.00  0.00    +0.000 A 
ATOM     31  N   UNL     1      -3.506  11.946  24.306  0.00  0.00    +0.000 NA
ENDBRANCH  23  26
ENDBRANCH  21  24
ENDBRANCH  18  21
ENDBRANCH  17  18
ENDBRANCH   1  17
BRANCH   1  32
ATOM     32  C   UNL     1       0.622  10.130  18.436  0.00  0.00    +0.000 C 
BRANCH  32  33
ATOM     33  C   UNL     1      -0.868  10.366  18.236  0.00  0.00    +0.000 A 
ATOM     34  C   UNL     1      -1.597  11.313  18.969  0.00  0.00    +0.000 A 
ATOM     35  C   UNL     1      -2.907  11.648  18.626  0.00  0.00    +0.000 A 
ATOM     36  C   UNL     1      -3.521  11.026  17.547  0.00  0.00    +0.000 A 
ATOM     37  C   UNL     1      -2.835  10.043  16.838  0.00  0.00    +0.000 A 
ATOM     38  C   UNL     1      -1.519   9.715  17.177  0.00  0.00    +0.000 A 
ENDBRANCH  32  33
ENDBRANCH   1  32
TORSDOF 11
ENDMDL
MODEL 9
REMARK VINA RESULT:      -8.2      5.509      9.368
REMARK  Name = 
REMARK  11 active torsions:
REMARK  status: ('A' for Active; 'I' for Inactive)
REMARK    1  A    between atoms: C_2  and  C_29
REMARK    2  A    between atoms: N_3  and  C_4
REMARK    3  A    between atoms: C_4  and  C_5
REMARK    4  A    between atoms: C_5  and  O_6
REMARK    5  A    between atoms: C_5  and  C_7
REMARK    6  A    between atoms: C_7  and  C_8
REMARK    7  A    between atoms: C_8  and  C_9
REMARK    8  A    between atoms: C_8  and  C_16
REMARK    9  A    between atoms: C_9  and  C_10
REMARK   10  A    between atoms: N_18  and  C_19
REMARK   11  A    between atoms: C_27  and  O_28
REMARK                            x       y       z     vdW  Elec       q    Type
REMARK                         _______ _______ _______ _____ _____    ______ ____
ROOT
ATOM      1  C   UNL     1       1.144   8.645  19.339  0.00  0.00    +0.000 C 
ENDROOT
BRANCH   1   2
ATOM      2  C   UNL     1       2.135   8.110  18.252  0.00  0.00    +0.000 C 
ATOM      3  O   UNL     1       2.554   8.800  17.326  0.00  0.00    +0.000 OA
ATOM      4  N   UNL     1       2.494   6.804  18.395  0.00  0.00    +0.000 N 
ATOM      5  H   UNL     1       1.741   6.215  18.726  0.00  0.00    +0.000 HD
BRANCH   4   6
ATOM      6  C   UNL     1       3.425   6.014  17.566  0.00  0.00    +0.000 C 
ATOM      7  C   UNL     1       4.908   6.198  17.801  0.00  0.00    +0.000 A 
ATOM      8  C   UNL     1       5.868   6.777  16.981  0.00  0.00    +0.000 A 
ATOM      9  C   UNL     1       7.217   6.720  17.370  0.00  0.00    +0.000 A 
ATOM     10  C   UNL     1       7.590   6.137  18.590  0.00  0.00    +0.000 A 
ATOM     11  C   UNL     1       6.637   5.493  19.375  0.00  0.00    +0.000 A 
ATOM     12  C   UNL     1       5.329   5.459  18.915  0.00  0.00    +0.000 A 
ATOM     13  C   UNL     1       4.235   4.551  19.374  0.00  0.00    +0.000 C 
ATOM     14  C   UNL     1       3.301   4.567  18.131  0.00  0.00    +0.000 C 
BRANCH  14  15
ATOM     15  O   UNL     1       1.942   4.263  18.481  0.00  0.00    +0.000 OA
ATOM     16  H   UNL     1       1.495   3.937  17.681  0.00  0.00    +0.000 HD
ENDBRANCH  14  15
ENDBRANCH   4   6
ENDBRANCH   1   2
BRANCH   1  17
ATOM     17  C   UNL     1       1.434   8.294  20.846  0.00  0.00    +0.000 C 
BRANCH  17  18
ATOM     18  C   UNL     1       1.345   9.500  21.823  0.00  0.00    +0.000 C 
BRANCH  18  19
ATOM     19  O   UNL     1       2.234   9.333  22.929  0.00  0.00    +0.000 OA
ATOM     20  H   UNL     1       2.568  10.213  23.183  0.00  0.00    +0.000 HD
ENDBRANCH  18  19
BRANCH  18  21
ATOM     21  C   UNL     1      -0.056   9.756  22.425  0.00  0.00    +0.000 C 
BRANCH  21  24
ATOM     22  O   UNL     1      -2.404  10.988  23.468  0.00  0.00    +0.000 OA
ATOM     23  C   UNL     1      -1.516  11.697  22.998  0.00  0.00    +0.000 C 
ATOM     24  N   UNL     1      -0.359  11.185  22.460  0.00  0.00    +0.000 N 
ATOM     25  H   UNL     1       0.390  11.854  22.257  0.00  0.00    +0.000 HD
BRANCH  23  26
ATOM     26  C   UNL     1      -1.635  13.204  22.981  0.00  0.00    +0.000 A 
ATOM     27  C   UNL     1      -2.898  13.784  22.817  0.00  0.00    +0.000 A 
ATOM     28  C   UNL     1      -2.986  15.167  22.723  0.00  0.00    +0.000 A 
ATOM     29  C   UNL     1      -1.829  15.935  22.802  0.00  0.00    +0.000 A 
ATOM     30  C   UNL     1      -0.615  15.279  22.986  0.00  0.00    +0.000 A 
ATOM     31  N   UNL     1      -0.484  13.928  23.085  0.00  0.00    +0.000 NA
ENDBRANCH  23  26
ENDBRANCH  21  24
ENDBRANCH  18  21
ENDBRANCH  17  18
ENDBRANCH   1  17
BRANCH   1  32
ATOM     32  C   UNL     1       0.935  10.161  19.093  0.00  0.00    +0.000 C 
BRANCH  32  33
ATOM     33  C   UNL     1      -0.433  10.622  18.614  0.00  0.00    +0.000 A 
ATOM     34  C   UNL     1      -1.179   9.929  17.650  0.00  0.00    +0.000 A 
ATOM     35  C   UNL     1      -2.507  10.261  17.381  0.00  0.00    +0.000 A 
ATOM     36  C   UNL     1      -3.110  11.310  18.062  0.00  0.00    +0.000 A 
ATOM     37  C   UNL     1      -2.372  12.047  18.984  0.00  0.00    +0.000 A 
ATOM     38  C   UNL     1      -1.045  11.707  19.260  0.00  0.00    +0.000 A 
ENDBRANCH  32  33
ENDBRANCH   1  32
TORSDOF 11
ENDMDL
