MODEL 1
REMARK VINA RESULT:      -8.0      0.000      0.000
REMARK  Name = 
REMARK  2 active torsions:
REMARK  status: ('A' for Active; 'I' for Inactive)
REMARK    1  A    between atoms: C_14  and  S_15
REMARK    2  A    between atoms: S_15  and  C_16
REMARK                            x       y       z     vdW  Elec       q    Type
REMARK                         _______ _______ _______ _____ _____    ______ ____
ROOT
ATOM      1  O   UNL     1       2.207  10.390  17.437  0.00  0.00    +0.000 OA
ATOM      2  C   UNL     1       1.734   9.866  18.438  0.00  0.00    +0.000 C 
ATOM      3  C   UNL     1       0.866  10.645  19.342  0.00  0.00    +0.000 A 
ATOM      4  C   UNL     1       0.586  11.988  19.048  0.00  0.00    +0.000 A 
ATOM      5  C   UNL     1      -0.235  12.734  19.895  0.00  0.00    +0.000 A 
ATOM      6  C   UNL     1      -0.778  12.145  21.038  0.00  0.00    +0.000 A 
ATOM      7  C   UNL     1      -0.497  10.809  21.331  0.00  0.00    +0.000 A 
ATOM      8  C   UNL     1       0.326  10.055  20.482  0.00  0.00    +0.000 A 
ATOM      9  C   UNL     1       0.615   8.644  20.805  0.00  0.00    +0.000 C 
ATOM     10  O   UNL     1       0.125   8.155  21.812  0.00  0.00    +0.000 OA
ATOM     11  C   UNL     1       1.488   7.867  19.904  0.00  0.00    +0.000 A 
ATOM     12  C   UNL     1       2.036   8.449  18.747  0.00  0.00    +0.000 A 
ATOM     13  C   UNL     1       2.893   7.747  17.855  0.00  0.00    +0.000 A 
ATOM     14  C   UNL     1       3.282   6.409  18.043  0.00  0.00    +0.000 A 
ATOM     15  C   UNL     1       2.762   5.761  19.198  0.00  0.00    +0.000 A 
ATOM     16  N   UNL     1       3.000   4.497  19.592  0.00  0.00    +0.000 NA
ATOM     17  S   UNL     1       2.162   4.257  20.996  0.00  0.00    +0.000 S 
ATOM     18  N   UNL     1       1.454   5.736  21.181  0.00  0.00    +0.000 NA
ATOM     19  C   UNL     1       1.838   6.508  20.151  0.00  0.00    +0.000 A 
ENDROOT
BRANCH  14  20
ATOM     20  S   UNL     1       4.437   5.596  16.975  0.00  0.00    +0.000 S 
BRANCH  20  21
ATOM     21  C   UNL     1       5.989   6.133  17.667  0.00  0.00    +0.000 A 
ATOM     22  C   UNL     1       6.593   7.307  17.206  0.00  0.00    +0.000 A 
ATOM     23  C   UNL     1       7.808   7.734  17.748  0.00  0.00    +0.000 A 
ATOM     24  C   UNL     1       8.417   6.997  18.763  0.00  0.00    +0.000 A 
ATOM     25  C   UNL     1       7.806   5.841  19.246  0.00  0.00    +0.000 A 
ATOM     26  C   UNL     1       6.592   5.411  18.702  0.00  0.00    +0.000 A 
ENDBRANCH  20  21
ENDBRANCH  14  20
TORSDOF 2
ENDMDL
MODEL 2
REMARK VINA RESULT:      -7.6      3.058      7.286
REMARK  Name = 
REMARK  2 active torsions:
REMARK  status: ('A' for Active; 'I' for Inactive)
REMARK    1  A    between atoms: C_14  and  S_15
REMARK    2  A    between atoms: S_15  and  C_16
REMARK                            x       y       z     vdW  Elec       q    Type
REMARK                         _______ _______ _______ _____ _____    ______ ____
ROOT
ATOM      1  O   UNL     1       3.386   7.965  16.550  0.00  0.00    +0.000 OA
ATOM      2  C   UNL     1       3.110   7.439  17.621  0.00  0.00    +0.000 C 
ATOM      3  C   UNL     1       3.615   6.089  17.935  0.00  0.00    +0.000 A 
ATOM      4  C   UNL     1       4.413   5.413  17.001  0.00  0.00    +0.000 A 
ATOM      5  C   UNL     1       4.898   4.136  17.288  0.00  0.00    +0.000 A 
ATOM      6  C   UNL     1       4.588   3.528  18.505  0.00  0.00    +0.000 A 
ATOM      7  C   UNL     1       3.791   4.201  19.434  0.00  0.00    +0.000 A 
ATOM      8  C   UNL     1       3.303   5.485  19.150  0.00  0.00    +0.000 A 
ATOM      9  C   UNL     1       2.461   6.184  20.141  0.00  0.00    +0.000 C 
ATOM     10  O   UNL     1       2.207   5.627  21.199  0.00  0.00    +0.000 OA
ATOM     11  C   UNL     1       1.951   7.532  19.824  0.00  0.00    +0.000 A 
ATOM     12  C   UNL     1       2.262   8.155  18.603  0.00  0.00    +0.000 A 
ATOM     13  C   UNL     1       1.784   9.446  18.244  0.00  0.00    +0.000 A 
ATOM     14  C   UNL     1       0.950  10.222  19.070  0.00  0.00    +0.000 A 
ATOM     15  C   UNL     1       0.597   9.648  20.323  0.00  0.00    +0.000 A 
ATOM     16  N   UNL     1      -0.192  10.190  21.267  0.00  0.00    +0.000 NA
ATOM     17  S   UNL     1      -0.281   9.106  22.511  0.00  0.00    +0.000 S 
ATOM     18  N   UNL     1       0.671   7.894  21.923  0.00  0.00    +0.000 NA
ATOM     19  C   UNL     1       1.113   8.268  20.711  0.00  0.00    +0.000 A 
ENDROOT
BRANCH  14  20
ATOM     20  S   UNL     1       0.283  11.777  18.551  0.00  0.00    +0.000 S 
BRANCH  20  21
ATOM     21  C   UNL     1      -1.403  11.330  18.188  0.00  0.00    +0.000 A 
ATOM     22  C   UNL     1      -1.674  10.256  17.334  0.00  0.00    +0.000 A 
ATOM     23  C   UNL     1      -2.995   9.898  17.049  0.00  0.00    +0.000 A 
ATOM     24  C   UNL     1      -4.049  10.603  17.627  0.00  0.00    +0.000 A 
ATOM     25  C   UNL     1      -3.785  11.657  18.501  0.00  0.00    +0.000 A 
ATOM     26  C   UNL     1      -2.465  12.017  18.784  0.00  0.00    +0.000 A 
ENDBRANCH  20  21
ENDBRANCH  14  20
TORSDOF 2
ENDMDL
MODEL 3
REMARK VINA RESULT:      -7.5      1.815      2.494
REMARK  Name = 
REMARK  2 active torsions:
REMARK  status: ('A' for Active; 'I' for Inactive)
REMARK    1  A    between atoms: C_14  and  S_15
REMARK    2  A    between atoms: S_15  and  C_16
REMARK                            x       y       z     vdW  Elec       q    Type
REMARK                         _______ _______ _______ _____ _____    ______ ____
ROOT
ATOM      1  O   UNL     1       2.957   8.094  16.732  0.00  0.00    +0.000 OA
ATOM      2  C   UNL     1       2.519   7.911  17.861  0.00  0.00    +0.000 C 
ATOM      3  C   UNL     1       1.947   9.036  18.625  0.00  0.00    +0.000 A 
ATOM      4  C   UNL     1       1.908  10.315  18.051  0.00  0.00    +0.000 A 
ATOM      5  C   UNL     1       1.369  11.387  18.764  0.00  0.00    +0.000 A 
ATOM      6  C   UNL     1       0.868  11.188  20.050  0.00  0.00    +0.000 A 
ATOM      7  C   UNL     1       0.909   9.915  20.623  0.00  0.00    +0.000 A 
ATOM      8  C   UNL     1       1.449   8.835  19.909  0.00  0.00    +0.000 A 
ATOM      9  C   UNL     1       1.487   7.494  20.527  0.00  0.00    +0.000 C 
ATOM     10  O   UNL     1       1.040   7.351  21.656  0.00  0.00    +0.000 OA
ATOM     11  C   UNL     1       2.065   6.371  19.765  0.00  0.00    +0.000 A 
ATOM     12  C   UNL     1       2.567   6.559  18.465  0.00  0.00    +0.000 A 
ATOM     13  C   UNL     1       3.145   5.512  17.696  0.00  0.00    +0.000 A 
ATOM     14  C   UNL     1       3.278   4.190  18.159  0.00  0.00    +0.000 A 
ATOM     15  C   UNL     1       2.788   3.932  19.469  0.00  0.00    +0.000 A 
ATOM     16  N   UNL     1       2.816   2.758  20.125  0.00  0.00    +0.000 NA
ATOM     17  S   UNL     1       2.132   3.012  21.609  0.00  0.00    +0.000 S 
ATOM     18  N   UNL     1       1.765   4.617  21.501  0.00  0.00    +0.000 NA
ATOM     19  C   UNL     1       2.163   5.050  20.293  0.00  0.00    +0.000 A 
ENDROOT
BRANCH  14  20
ATOM     20  S   UNL     1       4.100   2.934  17.221  0.00  0.00    +0.000 S 
BRANCH  20  21
ATOM     21  C   UNL     1       5.365   3.884  16.399  0.00  0.00    +0.000 A 
ATOM     22  C   UNL     1       6.378   4.494  17.145  0.00  0.00    +0.000 A 
ATOM     23  C   UNL     1       7.375   5.236  16.505  0.00  0.00    +0.000 A 
ATOM     24  C   UNL     1       7.370   5.359  15.116  0.00  0.00    +0.000 A 
ATOM     25  C   UNL     1       6.378   4.729  14.365  0.00  0.00    +0.000 A 
ATOM     26  C   UNL     1       5.380   3.990  15.005  0.00  0.00    +0.000 A 
ENDBRANCH  20  21
ENDBRANCH  14  20
TORSDOF 2
ENDMDL
MODEL 4
REMARK VINA RESULT:      -7.2      5.281      7.645
REMARK  Name = 
REMARK  2 active torsions:
REMARK  status: ('A' for Active; 'I' for Inactive)
REMARK    1  A    between atoms: C_14  and  S_15
REMARK    2  A    between atoms: S_15  and  C_16
REMARK                            x       y       z     vdW  Elec       q    Type
REMARK                         _______ _______ _______ _____ _____    ______ ____
ROOT
ATOM      1  O   UNL     1      -2.998  13.437  22.662  0.00  0.00    +0.000 OA
ATOM      2  C   UNL     1      -3.816  12.995  21.865  0.00  0.00    +0.000 C 
ATOM      3  C   UNL     1      -5.233  12.861  22.255  0.00  0.00    +0.000 A 
ATOM      4  C   UNL     1      -5.637  13.243  23.542  0.00  0.00    +0.000 A 
ATOM      5  C   UNL     1      -6.974  13.122  23.922  0.00  0.00    +0.000 A 
ATOM      6  C   UNL     1      -7.913  12.619  23.020  0.00  0.00    +0.000 A 
ATOM      7  C   UNL     1      -7.510  12.236  21.739  0.00  0.00    +0.000 A 
ATOM      8  C   UNL     1      -6.167  12.358  21.353  0.00  0.00    +0.000 A 
ATOM      9  C   UNL     1      -5.755  11.949  19.995  0.00  0.00    +0.000 C 
ATOM     10  O   UNL     1      -6.600  11.512  19.228  0.00  0.00    +0.000 OA
ATOM     11  C   UNL     1      -4.337  12.077  19.609  0.00  0.00    +0.000 A 
ATOM     12  C   UNL     1      -3.384  12.589  20.508  0.00  0.00    +0.000 A 
ATOM     13  C   UNL     1      -2.004  12.719  20.187  0.00  0.00    +0.000 A 
ATOM     14  C   UNL     1      -1.456  12.345  18.946  0.00  0.00    +0.000 A 
ATOM     15  C   UNL     1      -2.369  11.820  17.990  0.00  0.00    +0.000 A 
ATOM     16  N   UNL     1      -2.079  11.387  16.750  0.00  0.00    +0.000 NA
ATOM     17  S   UNL     1      -3.496  10.872  16.070  0.00  0.00    +0.000 S 
ATOM     18  N   UNL     1      -4.548  11.167  17.306  0.00  0.00    +0.000 NA
ATOM     19  C   UNL     1      -3.848  11.685  18.329  0.00  0.00    +0.000 A 
ENDROOT
BRANCH  14  20
ATOM     20  S   UNL     1       0.281  12.418  18.616  0.00  0.00    +0.000 S 
BRANCH  20  21
ATOM     21  C   UNL     1       0.788  10.765  19.047  0.00  0.00    +0.000 A 
ATOM     22  C   UNL     1       1.437   9.962  18.104  0.00  0.00    +0.000 A 
ATOM     23  C   UNL     1       1.841   8.667  18.439  0.00  0.00    +0.000 A 
ATOM     24  C   UNL     1       1.609   8.173  19.722  0.00  0.00    +0.000 A 
ATOM     25  C   UNL     1       0.988   8.979  20.675  0.00  0.00    +0.000 A 
ATOM     26  C   UNL     1       0.581  10.273  20.340  0.00  0.00    +0.000 A 
ENDBRANCH  20  21
ENDBRANCH  14  20
TORSDOF 2
ENDMDL
MODEL 5
REMARK VINA RESULT:      -7.0      3.047      6.458
REMARK  Name = 
REMARK  2 active torsions:
REMARK  status: ('A' for Active; 'I' for Inactive)
REMARK    1  A    between atoms: C_14  and  S_15
REMARK    2  A    between atoms: S_15  and  C_16
REMARK                            x       y       z     vdW  Elec       q    Type
REMARK                         _______ _______ _______ _____ _____    ______ ____
ROOT
ATOM      1  O   UNL     1       3.365   8.140  16.634  0.00  0.00    +0.000 OA
ATOM      2  C   UNL     1       3.028   7.608  17.685  0.00  0.00    +0.000 C 
ATOM      3  C   UNL     1       3.433   6.219  17.975  0.00  0.00    +0.000 A 
ATOM      4  C   UNL     1       4.206   5.513  17.042  0.00  0.00    +0.000 A 
ATOM      5  C   UNL     1       4.596   4.199  17.306  0.00  0.00    +0.000 A 
ATOM      6  C   UNL     1       4.217   3.585  18.499  0.00  0.00    +0.000 A 
ATOM      7  C   UNL     1       3.444   4.287  19.427  0.00  0.00    +0.000 A 
ATOM      8  C   UNL     1       3.052   5.608  19.166  0.00  0.00    +0.000 A 
ATOM      9  C   UNL     1       2.235   6.339  20.156  0.00  0.00    +0.000 C 
ATOM     10  O   UNL     1       1.918   5.774  21.193  0.00  0.00    +0.000 OA
ATOM     11  C   UNL     1       1.825   7.726  19.863  0.00  0.00    +0.000 A 
ATOM     12  C   UNL     1       2.208   8.356  18.665  0.00  0.00    +0.000 A 
ATOM     13  C   UNL     1       1.826   9.685  18.330  0.00  0.00    +0.000 A 
ATOM     14  C   UNL     1       1.027  10.495  19.157  0.00  0.00    +0.000 A 
ATOM     15  C   UNL     1       0.606   9.916  20.386  0.00  0.00    +0.000 A 
ATOM     16  N   UNL     1      -0.168  10.488  21.326  0.00  0.00    +0.000 NA
ATOM     17  S   UNL     1      -0.360   9.382  22.540  0.00  0.00    +0.000 S 
ATOM     18  N   UNL     1       0.522   8.122  21.941  0.00  0.00    +0.000 NA
ATOM     19  C   UNL     1       1.017   8.495  20.750  0.00  0.00    +0.000 A 
ENDROOT
BRANCH  14  20
ATOM     20  S   UNL     1       0.479  12.105  18.664  0.00  0.00    +0.000 S 
BRANCH  20  21
ATOM     21  C   UNL     1       1.871  13.109  19.143  0.00  0.00    +0.000 A 
ATOM     22  C   UNL     1       2.172  13.290  20.497  0.00  0.00    +0.000 A 
ATOM     23  C   UNL     1       3.265  14.073  20.878  0.00  0.00    +0.000 A 
ATOM     24  C   UNL     1       4.070  14.667  19.906  0.00  0.00    +0.000 A 
ATOM     25  C   UNL     1       3.792  14.467  18.555  0.00  0.00    +0.000 A 
ATOM     26  C   UNL     1       2.697  13.687  18.174  0.00  0.00    +0.000 A 
ENDBRANCH  20  21
ENDBRANCH  14  20
TORSDOF 2
ENDMDL
MODEL 6
REMARK VINA RESULT:      -7.0      4.534      6.195
REMARK  Name = 
REMARK  2 active torsions:
REMARK  status: ('A' for Active; 'I' for Inactive)
REMARK    1  A    between atoms: C_14  and  S_15
REMARK    2  A    between atoms: S_15  and  C_16
REMARK                            x       y       z     vdW  Elec       q    Type
REMARK                         _______ _______ _______ _____ _____    ______ ____
ROOT
ATOM      1  O   UNL     1      -3.370   9.772  17.211  0.00  0.00    +0.000 OA
ATOM      2  C   UNL     1      -3.348  10.668  18.046  0.00  0.00    +0.000 C 
ATOM      3  C   UNL     1      -4.603  11.319  18.468  0.00  0.00    +0.000 A 
ATOM      4  C   UNL     1      -5.820  10.907  17.906  0.00  0.00    +0.000 A 
ATOM      5  C   UNL     1      -7.014  11.515  18.297  0.00  0.00    +0.000 A 
ATOM      6  C   UNL     1      -6.998  12.536  19.248  0.00  0.00    +0.000 A 
ATOM      7  C   UNL     1      -5.786  12.948  19.805  0.00  0.00    +0.000 A 
ATOM      8  C   UNL     1      -4.584  12.338  19.416  0.00  0.00    +0.000 A 
ATOM      9  C   UNL     1      -3.309  12.784  20.013  0.00  0.00    +0.000 C 
ATOM     10  O   UNL     1      -3.327  13.680  20.844  0.00  0.00    +0.000 OA
ATOM     11  C   UNL     1      -2.054  12.136  19.587  0.00  0.00    +0.000 A 
ATOM     12  C   UNL     1      -2.059  11.102  18.634  0.00  0.00    +0.000 A 
ATOM     13  C   UNL     1      -0.876  10.456  18.181  0.00  0.00    +0.000 A 
ATOM     14  C   UNL     1       0.413  10.790  18.634  0.00  0.00    +0.000 A 
ATOM     15  C   UNL     1       0.489  11.830  19.602  0.00  0.00    +0.000 A 
ATOM     16  N   UNL     1       1.602  12.327  20.169  0.00  0.00    +0.000 NA
ATOM     17  S   UNL     1       1.129  13.521  21.210  0.00  0.00    +0.000 S 
ATOM     18  N   UNL     1      -0.507  13.474  20.998  0.00  0.00    +0.000 NA
ATOM     19  C   UNL     1      -0.778  12.519  20.093  0.00  0.00    +0.000 A 
ENDROOT
BRANCH  14  20
ATOM     20  S   UNL     1       1.875  10.043  17.972  0.00  0.00    +0.000 S 
BRANCH  20  21
ATOM     21  C   UNL     1       1.919   8.504  18.869  0.00  0.00    +0.000 A 
ATOM     22  C   UNL     1       2.461   7.361  18.273  0.00  0.00    +0.000 A 
ATOM     23  C   UNL     1       2.502   6.153  18.974  0.00  0.00    +0.000 A 
ATOM     24  C   UNL     1       2.013   6.086  20.278  0.00  0.00    +0.000 A 
ATOM     25  C   UNL     1       1.496   7.228  20.887  0.00  0.00    +0.000 A 
ATOM     26  C   UNL     1       1.453   8.436  20.185  0.00  0.00    +0.000 A 
ENDBRANCH  20  21
ENDBRANCH  14  20
TORSDOF 2
ENDMDL
MODEL 7
REMARK VINA RESULT:      -7.0      7.300     10.411
REMARK  Name = 
REMARK  2 active torsions:
REMARK  status: ('A' for Active; 'I' for Inactive)
REMARK    1  A    between atoms: C_14  and  S_15
REMARK    2  A    between atoms: S_15  and  C_16
REMARK                            x       y       z     vdW  Elec       q    Type
REMARK                         _______ _______ _______ _____ _____    ______ ____
ROOT
ATOM      1  O   UNL     1       7.726  12.462  16.986  0.00  0.00    +0.000 OA
ATOM      2  C   UNL     1       8.211  13.238  17.800  0.00  0.00    +0.000 C 
ATOM      3  C   UNL     1       9.580  13.023  18.306  0.00  0.00    +0.000 A 
ATOM      4  C   UNL     1      10.322  11.924  17.850  0.00  0.00    +0.000 A 
ATOM      5  C   UNL     1      11.619  11.711  18.321  0.00  0.00    +0.000 A 
ATOM      6  C   UNL     1      12.178  12.590  19.248  0.00  0.00    +0.000 A 
ATOM      7  C   UNL     1      11.437  13.683  19.704  0.00  0.00    +0.000 A 
ATOM      8  C   UNL     1      10.135  13.902  19.232  0.00  0.00    +0.000 A 
ATOM      9  C   UNL     1       9.363  15.061  19.723  0.00  0.00    +0.000 C 
ATOM     10  O   UNL     1       9.880  15.814  20.535  0.00  0.00    +0.000 OA
ATOM     11  C   UNL     1       7.992  15.272  19.221  0.00  0.00    +0.000 A 
ATOM     12  C   UNL     1       7.421  14.395  18.282  0.00  0.00    +0.000 A 
ATOM     13  C   UNL     1       6.099  14.548  17.779  0.00  0.00    +0.000 A 
ATOM     14  C   UNL     1       5.233  15.584  18.173  0.00  0.00    +0.000 A 
ATOM     15  C   UNL     1       5.751  16.508  19.123  0.00  0.00    +0.000 A 
ATOM     16  N   UNL     1       5.111  17.565  19.654  0.00  0.00    +0.000 NA
ATOM     17  S   UNL     1       6.159  18.292  20.706  0.00  0.00    +0.000 S 
ATOM     18  N   UNL     1       7.475  17.310  20.546  0.00  0.00    +0.000 NA
ATOM     19  C   UNL     1       7.168  16.350  19.659  0.00  0.00    +0.000 A 
ENDROOT
BRANCH  14  20
ATOM     20  S   UNL     1       3.557  15.686  17.612  0.00  0.00    +0.000 S 
BRANCH  20  21
ATOM     21  C   UNL     1       2.775  14.445  18.623  0.00  0.00    +0.000 A 
ATOM     22  C   UNL     1       2.521  14.700  19.975  0.00  0.00    +0.000 A 
ATOM     23  C   UNL     1       1.903  13.732  20.771  0.00  0.00    +0.000 A 
ATOM     24  C   UNL     1       1.524  12.511  20.217  0.00  0.00    +0.000 A 
ATOM     25  C   UNL     1       1.749  12.261  18.864  0.00  0.00    +0.000 A 
ATOM     26  C   UNL     1       2.369  13.227  18.068  0.00  0.00    +0.000 A 
ENDBRANCH  20  21
ENDBRANCH  14  20
TORSDOF 2
ENDMDL
MODEL 8
REMARK VINA RESULT:      -6.8      3.615      6.839
REMARK  Name = 
REMARK  2 active torsions:
REMARK  status: ('A' for Active; 'I' for Inactive)
REMARK    1  A    between atoms: C_14  and  S_15
REMARK    2  A    between atoms: S_15  and  C_16
REMARK                            x       y       z     vdW  Elec       q    Type
REMARK                         _______ _______ _______ _____ _____    ______ ____
ROOT
ATOM      1  O   UNL     1       2.446   9.106  17.070  0.00  0.00    +0.000 OA
ATOM      2  C   UNL     1       2.093   8.764  18.192  0.00  0.00    +0.000 C 
ATOM      3  C   UNL     1       2.418   7.414  18.691  0.00  0.00    +0.000 A 
ATOM      4  C   UNL     1       3.130   6.525  17.873  0.00  0.00    +0.000 A 
ATOM      5  C   UNL     1       3.444   5.245  18.335  0.00  0.00    +0.000 A 
ATOM      6  C   UNL     1       3.047   4.847  19.611  0.00  0.00    +0.000 A 
ATOM      7  C   UNL     1       2.334   5.732  20.425  0.00  0.00    +0.000 A 
ATOM      8  C   UNL     1       2.019   7.019  19.965  0.00  0.00    +0.000 A 
ATOM      9  C   UNL     1       1.265   7.943  20.836  0.00  0.00    +0.000 C 
ATOM     10  O   UNL     1       0.931   7.566  21.949  0.00  0.00    +0.000 OA
ATOM     11  C   UNL     1       0.936   9.291  20.334  0.00  0.00    +0.000 A 
ATOM     12  C   UNL     1       1.337   9.704  19.051  0.00  0.00    +0.000 A 
ATOM     13  C   UNL     1       1.032  10.987  18.517  0.00  0.00    +0.000 A 
ATOM     14  C   UNL     1       0.298  11.964  19.214  0.00  0.00    +0.000 A 
ATOM     15  C   UNL     1      -0.138  11.609  20.520  0.00  0.00    +0.000 A 
ATOM     16  N   UNL     1      -0.859  12.366  21.365  0.00  0.00    +0.000 NA
ATOM     17  S   UNL     1      -1.099  11.475  22.737  0.00  0.00    +0.000 S 
ATOM     18  N   UNL     1      -0.306  10.085  22.335  0.00  0.00    +0.000 NA
ATOM     19  C   UNL     1       0.192  10.238  21.097  0.00  0.00    +0.000 A 
ENDROOT
BRANCH  14  20
ATOM     20  S   UNL     1      -0.158  13.510  18.481  0.00  0.00    +0.000 S 
BRANCH  20  21
ATOM     21  C   UNL     1       1.346  14.446  18.675  0.00  0.00    +0.000 A 
ATOM     22  C   UNL     1       2.540  13.976  18.119  0.00  0.00    +0.000 A 
ATOM     23  C   UNL     1       3.721  14.709  18.264  0.00  0.00    +0.000 A 
ATOM     24  C   UNL     1       3.711  15.920  18.955  0.00  0.00    +0.000 A 
ATOM     25  C   UNL     1       2.518  16.407  19.488  0.00  0.00    +0.000 A 
ATOM     26  C   UNL     1       1.337  15.673  19.345  0.00  0.00    +0.000 A 
ENDBRANCH  20  21
ENDBRANCH  14  20
TORSDOF 2
ENDMDL
MODEL 9
REMARK VINA RESULT:      -6.8      4.109      7.079
REMARK  Name = 
REMARK  2 active torsions:
REMARK  status: ('A' for Active; 'I' for Inactive)
REMARK    1  A    between atoms: C_14  and  S_15
REMARK    2  A    between atoms: S_15  and  C_16
REMARK                            x       y       z     vdW  Elec       q    Type
REMARK                         _______ _______ _______ _____ _____    ______ ____
ROOT
ATOM      1  O   UNL     1       2.175   9.822  17.438  0.00  0.00    +0.000 OA
ATOM      2  C   UNL     1       1.775   9.568  18.567  0.00  0.00    +0.000 C 
ATOM      3  C   UNL     1       1.912   8.205  19.113  0.00  0.00    +0.000 A 
ATOM      4  C   UNL     1       2.503   7.201  18.332  0.00  0.00    +0.000 A 
ATOM      5  C   UNL     1       2.640   5.908  18.838  0.00  0.00    +0.000 A 
ATOM      6  C   UNL     1       2.186   5.610  20.124  0.00  0.00    +0.000 A 
ATOM      7  C   UNL     1       1.595   6.609  20.900  0.00  0.00    +0.000 A 
ATOM      8  C   UNL     1       1.457   7.911  20.396  0.00  0.00    +0.000 A 
ATOM      9  C   UNL     1       0.830   8.957  21.228  0.00  0.00    +0.000 C 
ATOM     10  O   UNL     1       0.442   8.666  22.350  0.00  0.00    +0.000 OA
ATOM     11  C   UNL     1       0.687  10.319  20.679  0.00  0.00    +0.000 A 
ATOM     12  C   UNL     1       1.147  10.631  19.387  0.00  0.00    +0.000 A 
ATOM     13  C   UNL     1       1.020  11.924  18.808  0.00  0.00    +0.000 A 
ATOM     14  C   UNL     1       0.420  13.013  19.465  0.00  0.00    +0.000 A 
ATOM     15  C   UNL     1      -0.067  12.764  20.778  0.00  0.00    +0.000 A 
ATOM     16  N   UNL     1      -0.684  13.640  21.592  0.00  0.00    +0.000 NA
ATOM     17  S   UNL     1      -1.049  12.835  22.989  0.00  0.00    +0.000 S 
ATOM     18  N   UNL     1      -0.447  11.339  22.641  0.00  0.00    +0.000 NA
ATOM     19  C   UNL     1       0.073  11.382  21.403  0.00  0.00    +0.000 A 
ENDROOT
BRANCH  14  20
ATOM     20  S   UNL     1       0.179  14.581  18.678  0.00  0.00    +0.000 S 
BRANCH  20  21
ATOM     21  C   UNL     1       1.822  15.266  18.755  0.00  0.00    +0.000 A 
ATOM     22  C   UNL     1       2.175  16.124  19.802  0.00  0.00    +0.000 A 
ATOM     23  C   UNL     1       3.464  16.660  19.869  0.00  0.00    +0.000 A 
ATOM     24  C   UNL     1       4.409  16.330  18.898  0.00  0.00    +0.000 A 
ATOM     25  C   UNL     1       4.071  15.453  17.869  0.00  0.00    +0.000 A 
ATOM     26  C   UNL     1       2.782  14.919  17.799  0.00  0.00    +0.000 A 
ENDBRANCH  20  21
ENDBRANCH  14  20
TORSDOF 2
ENDMDL
