MODEL 1
REMARK VINA RESULT:      -6.8      0.000      0.000
REMARK  Name = 
REMARK  3 active torsions:
REMARK  status: ('A' for Active; 'I' for Inactive)
REMARK    1  A    between atoms: C_1  and  O_2
REMARK    2  A    between atoms: O_2  and  C_3
REMARK    3  A    between atoms: C_7  and  C_8
REMARK                            x       y       z     vdW  Elec       q    Type
REMARK                         _______ _______ _______ _____ _____    ______ ____
ROOT
ATOM      1  C   UNL     1       5.964   4.471  18.163  0.00  0.00    +0.000 A 
ATOM      2  C   UNL     1       5.307   3.974  19.294  0.00  0.00    +0.000 A 
ATOM      3  C   UNL     1       3.923   3.793  19.291  0.00  0.00    +0.000 A 
ATOM      4  N   UNL     1       3.268   3.287  20.421  0.00  0.00    +0.000 N 
ATOM      5  C   UNL     1       1.903   3.114  20.459  0.00  0.00    +0.000 A 
ATOM      6  C   UNL     1       1.303   2.604  21.739  0.00  0.00    +0.000 C 
ATOM      7  C   UNL     1       1.117   3.389  19.404  0.00  0.00    +0.000 A 
ATOM      8  C   UNL     1       1.725   3.910  18.154  0.00  0.00    +0.000 A 
ATOM      9  O   UNL     1       1.029   4.155  17.176  0.00  0.00    +0.000 OA
ATOM     10  C   UNL     1       3.193   4.123  18.141  0.00  0.00    +0.000 A 
ATOM     11  C   UNL     1       3.827   4.646  17.012  0.00  0.00    +0.000 A 
ATOM     12  C   UNL     1       5.211   4.827  17.031  0.00  0.00    +0.000 A 
ATOM     13 CL   UNL     1       5.967   5.482  15.620  0.00  0.00    +0.000 Cl
ATOM     14  H   UNL     1       3.809   3.072  21.249  0.00  0.00    +0.000 HD
ENDROOT
BRANCH   1  16
ATOM     15  C   UNL     1       7.821   5.721  18.930  0.00  0.00    +0.000 C 
ATOM     16  O   UNL     1       7.323   4.664  18.115  0.00  0.00    +0.000 OA
ENDBRANCH   1  16
TORSDOF 1
ENDMDL
MODEL 2
REMARK VINA RESULT:      -6.6      1.940      2.085
REMARK  Name = 
REMARK  3 active torsions:
REMARK  status: ('A' for Active; 'I' for Inactive)
REMARK    1  A    between atoms: C_1  and  O_2
REMARK    2  A    between atoms: O_2  and  C_3
REMARK    3  A    between atoms: C_7  and  C_8
REMARK                            x       y       z     vdW  Elec       q    Type
REMARK                         _______ _______ _______ _____ _____    ______ ____
ROOT
ATOM      1  C   UNL     1       6.350   6.000  16.847  0.00  0.00    +0.000 A 
ATOM      2  C   UNL     1       5.554   6.266  17.968  0.00  0.00    +0.000 A 
ATOM      3  C   UNL     1       4.375   5.551  18.188  0.00  0.00    +0.000 A 
ATOM      4  N   UNL     1       3.585   5.811  19.315  0.00  0.00    +0.000 N 
ATOM      5  C   UNL     1       2.408   5.140  19.553  0.00  0.00    +0.000 A 
ATOM      6  C   UNL     1       1.619   5.531  20.772  0.00  0.00    +0.000 C 
ATOM      7  C   UNL     1       1.958   4.170  18.738  0.00  0.00    +0.000 A 
ATOM      8  C   UNL     1       2.741   3.810  17.530  0.00  0.00    +0.000 A 
ATOM      9  O   UNL     1       2.357   2.920  16.780  0.00  0.00    +0.000 OA
ATOM     10  C   UNL     1       3.990   4.566  17.268  0.00  0.00    +0.000 A 
ATOM     11  C   UNL     1       4.756   4.306  16.130  0.00  0.00    +0.000 A 
ATOM     12  C   UNL     1       5.929   5.032  15.918  0.00  0.00    +0.000 A 
ATOM     13 CL   UNL     1       6.854   4.692  14.498  0.00  0.00    +0.000 Cl
ATOM     14  H   UNL     1       3.869   6.540  19.959  0.00  0.00    +0.000 HD
ENDROOT
BRANCH   1  16
ATOM     15  C   UNL     1       7.834   7.727  17.492  0.00  0.00    +0.000 C 
ATOM     16  O   UNL     1       7.518   6.672  16.587  0.00  0.00    +0.000 OA
ENDBRANCH   1  16
TORSDOF 1
ENDMDL
MODEL 3
REMARK VINA RESULT:      -6.5      2.540      5.587
REMARK  Name = 
REMARK  3 active torsions:
REMARK  status: ('A' for Active; 'I' for Inactive)
REMARK    1  A    between atoms: C_1  and  O_2
REMARK    2  A    between atoms: O_2  and  C_3
REMARK    3  A    between atoms: C_7  and  C_8
REMARK                            x       y       z     vdW  Elec       q    Type
REMARK                         _______ _______ _______ _____ _____    ______ ____
ROOT
ATOM      1  C   UNL     1       2.407   3.954  18.518  0.00  0.00    +0.000 A 
ATOM      2  C   UNL     1       3.016   3.919  17.258  0.00  0.00    +0.000 A 
ATOM      3  C   UNL     1       4.380   4.184  17.120  0.00  0.00    +0.000 A 
ATOM      4  N   UNL     1       4.990   4.138  15.860  0.00  0.00    +0.000 N 
ATOM      5  C   UNL     1       6.327   4.413  15.685  0.00  0.00    +0.000 A 
ATOM      6  C   UNL     1       6.866   4.376  14.283  0.00  0.00    +0.000 C 
ATOM      7  C   UNL     1       7.138   4.710  16.715  0.00  0.00    +0.000 A 
ATOM      8  C   UNL     1       6.585   4.759  18.091  0.00  0.00    +0.000 A 
ATOM      9  O   UNL     1       7.309   5.015  19.046  0.00  0.00    +0.000 OA
ATOM     10  C   UNL     1       5.135   4.495  18.259  0.00  0.00    +0.000 A 
ATOM     11  C   UNL     1       4.540   4.563  19.521  0.00  0.00    +0.000 A 
ATOM     12  C   UNL     1       3.174   4.301  19.644  0.00  0.00    +0.000 A 
ATOM     13 CL   UNL     1       2.464   4.398  21.217  0.00  0.00    +0.000 Cl
ATOM     14  H   UNL     1       4.425   3.930  15.046  0.00  0.00    +0.000 HD
ENDROOT
BRANCH   1  16
ATOM     15  C   UNL     1       0.718   2.322  18.804  0.00  0.00    +0.000 C 
ATOM     16  O   UNL     1       1.072   3.699  18.707  0.00  0.00    +0.000 OA
ENDBRANCH   1  16
TORSDOF 1
ENDMDL
MODEL 4
REMARK VINA RESULT:      -6.4      2.171      2.611
REMARK  Name = 
REMARK  3 active torsions:
REMARK  status: ('A' for Active; 'I' for Inactive)
REMARK    1  A    between atoms: C_1  and  O_2
REMARK    2  A    between atoms: O_2  and  C_3
REMARK    3  A    between atoms: C_7  and  C_8
REMARK                            x       y       z     vdW  Elec       q    Type
REMARK                         _______ _______ _______ _____ _____    ______ ____
ROOT
ATOM      1  C   UNL     1       6.180   4.839  16.579  0.00  0.00    +0.000 A 
ATOM      2  C   UNL     1       5.151   3.900  16.720  0.00  0.00    +0.000 A 
ATOM      3  C   UNL     1       4.058   4.160  17.548  0.00  0.00    +0.000 A 
ATOM      4  N   UNL     1       3.026   3.224  17.681  0.00  0.00    +0.000 N 
ATOM      5  C   UNL     1       1.943   3.440  18.503  0.00  0.00    +0.000 A 
ATOM      6  C   UNL     1       0.916   2.348  18.601  0.00  0.00    +0.000 C 
ATOM      7  C   UNL     1       1.792   4.576  19.205  0.00  0.00    +0.000 A 
ATOM      8  C   UNL     1       2.827   5.637  19.110  0.00  0.00    +0.000 A 
ATOM      9  O   UNL     1       2.703   6.687  19.730  0.00  0.00    +0.000 OA
ATOM     10  C   UNL     1       4.004   5.375  18.246  0.00  0.00    +0.000 A 
ATOM     11  C   UNL     1       5.033   6.313  18.140  0.00  0.00    +0.000 A 
ATOM     12  C   UNL     1       6.123   6.036  17.313  0.00  0.00    +0.000 A 
ATOM     13 CL   UNL     1       7.385   7.214  17.206  0.00  0.00    +0.000 Cl
ATOM     14  H   UNL     1       3.091   2.344  17.184  0.00  0.00    +0.000 HD
ENDROOT
BRANCH   1  16
ATOM     15  C   UNL     1       7.039   4.754  14.376  0.00  0.00    +0.000 C 
ATOM     16  O   UNL     1       7.273   4.631  15.776  0.00  0.00    +0.000 OA
ENDBRANCH   1  16
TORSDOF 1
ENDMDL
MODEL 5
REMARK VINA RESULT:      -6.4      1.101      1.130
REMARK  Name = 
REMARK  3 active torsions:
REMARK  status: ('A' for Active; 'I' for Inactive)
REMARK    1  A    between atoms: C_1  and  O_2
REMARK    2  A    between atoms: O_2  and  C_3
REMARK    3  A    between atoms: C_7  and  C_8
REMARK                            x       y       z     vdW  Elec       q    Type
REMARK                         _______ _______ _______ _____ _____    ______ ____
ROOT
ATOM      1  C   UNL     1       6.527   4.969  17.971  0.00  0.00    +0.000 A 
ATOM      2  C   UNL     1       5.683   4.829  19.080  0.00  0.00    +0.000 A 
ATOM      3  C   UNL     1       4.413   4.267  18.940  0.00  0.00    +0.000 A 
ATOM      4  N   UNL     1       3.574   4.120  20.052  0.00  0.00    +0.000 N 
ATOM      5  C   UNL     1       2.309   3.588  19.947  0.00  0.00    +0.000 A 
ATOM      6  C   UNL     1       1.480   3.516  21.199  0.00  0.00    +0.000 C 
ATOM      7  C   UNL     1       1.811   3.148  18.779  0.00  0.00    +0.000 A 
ATOM      8  C   UNL     1       2.637   3.244  17.549  0.00  0.00    +0.000 A 
ATOM      9  O   UNL     1       2.208   2.837  16.476  0.00  0.00    +0.000 OA
ATOM     10  C   UNL     1       3.985   3.850  17.672  0.00  0.00    +0.000 A 
ATOM     11  C   UNL     1       4.801   4.007  16.550  0.00  0.00    +0.000 A 
ATOM     12  C   UNL     1       6.067   4.576  16.702  0.00  0.00    +0.000 A 
ATOM     13 CL   UNL     1       7.053   4.761  15.294  0.00  0.00    +0.000 Cl
ATOM     14  H   UNL     1       3.893   4.444  20.957  0.00  0.00    +0.000 HD
ENDROOT
BRANCH   1  16
ATOM     15  C   UNL     1       7.833   6.929  18.200  0.00  0.00    +0.000 C 
ATOM     16  O   UNL     1       7.785   5.512  18.056  0.00  0.00    +0.000 OA
ENDBRANCH   1  16
TORSDOF 1
ENDMDL
MODEL 6
REMARK VINA RESULT:      -6.4      2.005      2.138
REMARK  Name = 
REMARK  3 active torsions:
REMARK  status: ('A' for Active; 'I' for Inactive)
REMARK    1  A    between atoms: C_1  and  O_2
REMARK    2  A    between atoms: O_2  and  C_3
REMARK    3  A    between atoms: C_7  and  C_8
REMARK                            x       y       z     vdW  Elec       q    Type
REMARK                         _______ _______ _______ _____ _____    ______ ____
ROOT
ATOM      1  C   UNL     1       5.699   6.127  16.909  0.00  0.00    +0.000 A 
ATOM      2  C   UNL     1       4.683   6.245  17.866  0.00  0.00    +0.000 A 
ATOM      3  C   UNL     1       3.919   5.135  18.232  0.00  0.00    +0.000 A 
ATOM      4  N   UNL     1       2.910   5.252  19.196  0.00  0.00    +0.000 N 
ATOM      5  C   UNL     1       2.125   4.184  19.566  0.00  0.00    +0.000 A 
ATOM      6  C   UNL     1       1.043   4.434  20.579  0.00  0.00    +0.000 C 
ATOM      7  C   UNL     1       2.299   2.954  19.052  0.00  0.00    +0.000 A 
ATOM      8  C   UNL     1       3.361   2.729  18.039  0.00  0.00    +0.000 A 
ATOM      9  O   UNL     1       3.546   1.614  17.566  0.00  0.00    +0.000 OA
ATOM     10  C   UNL     1       4.176   3.898  17.625  0.00  0.00    +0.000 A 
ATOM     11  C   UNL     1       5.166   3.767  16.649  0.00  0.00    +0.000 A 
ATOM     12  C   UNL     1       5.918   4.886  16.287  0.00  0.00    +0.000 A 
ATOM     13 CL   UNL     1       7.133   4.694  15.073  0.00  0.00    +0.000 Cl
ATOM     14  H   UNL     1       2.726   6.158  19.610  0.00  0.00    +0.000 HD
ENDROOT
BRANCH   1  16
ATOM     15  C   UNL     1       7.497   7.572  17.436  0.00  0.00    +0.000 C 
ATOM     16  O   UNL     1       6.478   7.187  16.517  0.00  0.00    +0.000 OA
ENDBRANCH   1  16
TORSDOF 1
ENDMDL
MODEL 7
REMARK VINA RESULT:      -6.2      3.557      3.998
REMARK  Name = 
REMARK  3 active torsions:
REMARK  status: ('A' for Active; 'I' for Inactive)
REMARK    1  A    between atoms: C_1  and  O_2
REMARK    2  A    between atoms: O_2  and  C_3
REMARK    3  A    between atoms: C_7  and  C_8
REMARK                            x       y       z     vdW  Elec       q    Type
REMARK                         _______ _______ _______ _____ _____    ______ ____
ROOT
ATOM      1  C   UNL     1       3.787   4.427  18.924  0.00  0.00    +0.000 A 
ATOM      2  C   UNL     1       3.097   5.068  19.959  0.00  0.00    +0.000 A 
ATOM      3  C   UNL     1       2.568   6.347  19.777  0.00  0.00    +0.000 A 
ATOM      4  N   UNL     1       1.870   6.983  20.811  0.00  0.00    +0.000 N 
ATOM      5  C   UNL     1       1.353   8.251  20.672  0.00  0.00    +0.000 A 
ATOM      6  C   UNL     1       0.659   8.852  21.862  0.00  0.00    +0.000 C 
ATOM      7  C   UNL     1       1.457   8.945  19.526  0.00  0.00    +0.000 A 
ATOM      8  C   UNL     1       2.161   8.342  18.367  0.00  0.00    +0.000 A 
ATOM      9  O   UNL     1       2.256   8.952  17.308  0.00  0.00    +0.000 OA
ATOM     10  C   UNL     1       2.743   6.989  18.543  0.00  0.00    +0.000 A 
ATOM     11  C   UNL     1       3.452   6.377  17.507  0.00  0.00    +0.000 A 
ATOM     12  C   UNL     1       3.981   5.101  17.705  0.00  0.00    +0.000 A 
ATOM     13 CL   UNL     1       4.858   4.371  16.406  0.00  0.00    +0.000 Cl
ATOM     14  H   UNL     1       1.771   6.511  21.702  0.00  0.00    +0.000 HD
ENDROOT
BRANCH   1  16
ATOM     15  C   UNL     1       3.399   2.093  18.920  0.00  0.00    +0.000 C 
ATOM     16  O   UNL     1       4.323   3.169  19.052  0.00  0.00    +0.000 OA
ENDBRANCH   1  16
TORSDOF 1
ENDMDL
MODEL 8
REMARK VINA RESULT:      -6.2      2.048      2.243
REMARK  Name = 
REMARK  3 active torsions:
REMARK  status: ('A' for Active; 'I' for Inactive)
REMARK    1  A    between atoms: C_1  and  O_2
REMARK    2  A    between atoms: O_2  and  C_3
REMARK    3  A    between atoms: C_7  and  C_8
REMARK                            x       y       z     vdW  Elec       q    Type
REMARK                         _______ _______ _______ _____ _____    ______ ____
ROOT
ATOM      1  C   UNL     1       4.673   4.445  16.654  0.00  0.00    +0.000 A 
ATOM      2  C   UNL     1       4.158   3.575  17.623  0.00  0.00    +0.000 A 
ATOM      3  C   UNL     1       3.399   4.065  18.687  0.00  0.00    +0.000 A 
ATOM      4  N   UNL     1       2.877   3.192  19.651  0.00  0.00    +0.000 N 
ATOM      5  C   UNL     1       2.140   3.642  20.723  0.00  0.00    +0.000 A 
ATOM      6  C   UNL     1       1.666   2.621  21.718  0.00  0.00    +0.000 C 
ATOM      7  C   UNL     1       1.848   4.943  20.895  0.00  0.00    +0.000 A 
ATOM      8  C   UNL     1       2.340   5.940  19.911  0.00  0.00    +0.000 A 
ATOM      9  O   UNL     1       2.074   7.129  20.042  0.00  0.00    +0.000 OA
ATOM     10  C   UNL     1       3.161   5.443  18.780  0.00  0.00    +0.000 A 
ATOM     11  C   UNL     1       3.689   6.330  17.839  0.00  0.00    +0.000 A 
ATOM     12  C   UNL     1       4.452   5.827  16.784  0.00  0.00    +0.000 A 
ATOM     13 CL   UNL     1       5.096   6.949  15.637  0.00  0.00    +0.000 Cl
ATOM     14  H   UNL     1       3.075   2.202  19.577  0.00  0.00    +0.000 HD
ENDROOT
BRANCH   1  16
ATOM     15  C   UNL     1       6.835   4.087  15.762  0.00  0.00    +0.000 C 
ATOM     16  O   UNL     1       5.422   4.013  15.589  0.00  0.00    +0.000 OA
ENDBRANCH   1  16
TORSDOF 1
ENDMDL
MODEL 9
REMARK VINA RESULT:      -6.2      2.611      5.091
REMARK  Name = 
REMARK  3 active torsions:
REMARK  status: ('A' for Active; 'I' for Inactive)
REMARK    1  A    between atoms: C_1  and  O_2
REMARK    2  A    between atoms: O_2  and  C_3
REMARK    3  A    between atoms: C_7  and  C_8
REMARK                            x       y       z     vdW  Elec       q    Type
REMARK                         _______ _______ _______ _____ _____    ______ ____
ROOT
ATOM      1  C   UNL     1       2.814   4.234  19.454  0.00  0.00    +0.000 A 
ATOM      2  C   UNL     1       3.779   5.248  19.443  0.00  0.00    +0.000 A 
ATOM      3  C   UNL     1       4.767   5.279  18.458  0.00  0.00    +0.000 A 
ATOM      4  N   UNL     1       5.726   6.300  18.443  0.00  0.00    +0.000 N 
ATOM      5  C   UNL     1       6.726   6.351  17.498  0.00  0.00    +0.000 A 
ATOM      6  C   UNL     1       7.726   7.467  17.604  0.00  0.00    +0.000 C 
ATOM      7  C   UNL     1       6.825   5.444  16.511  0.00  0.00    +0.000 A 
ATOM      8  C   UNL     1       5.838   4.337  16.432  0.00  0.00    +0.000 A 
ATOM      9  O   UNL     1       5.902   3.507  15.533  0.00  0.00    +0.000 OA
ATOM     10  C   UNL     1       4.788   4.277  17.478  0.00  0.00    +0.000 A 
ATOM     11  C   UNL     1       3.851   3.241  17.488  0.00  0.00    +0.000 A 
ATOM     12  C   UNL     1       2.872   3.218  18.483  0.00  0.00    +0.000 A 
ATOM     13 CL   UNL     1       1.729   1.922  18.473  0.00  0.00    +0.000 Cl
ATOM     14  H   UNL     1       5.707   7.005  19.170  0.00  0.00    +0.000 HD
ENDROOT
BRANCH   1  16
ATOM     15  C   UNL     1       2.180   3.509  21.615  0.00  0.00    +0.000 C 
ATOM     16  O   UNL     1       1.822   4.160  20.399  0.00  0.00    +0.000 OA
ENDBRANCH   1  16
TORSDOF 1
ENDMDL
