MODEL 1
REMARK VINA RESULT:      -7.6      0.000      0.000
REMARK  Name = 
REMARK  10 active torsions:
REMARK  status: ('A' for Active; 'I' for Inactive)
REMARK    1  A    between atoms: C_1  and  C_2
REMARK    2  A    between atoms: C_2  and  N_3
REMARK    3  A    between atoms: C_2  and  C_4
REMARK    4  A    between atoms: C_2  and  C_6
REMARK    5  A    between atoms: C_4  and  O_5
REMARK    6  A    between atoms: N_8  and  C_9
REMARK    7  A    between atoms: C_12  and  C_13
REMARK    8  A    between atoms: N_15  and  C_16
REMARK    9  A    between atoms: C_16  and  C_17
REMARK   10  A    between atoms: C_20  and  C_21
REMARK                            x       y       z     vdW  Elec       q    Type
REMARK                         _______ _______ _______ _____ _____    ______ ____
ROOT
ATOM      1  C   UNL     1       2.618   6.727  19.374  0.00  0.00    +0.000 A 
ATOM      2  C   UNL     1       2.675   7.537  18.236  0.00  0.00    +0.000 A 
ATOM      3  C   UNL     1       2.038   8.777  18.200  0.00  0.00    +0.000 A 
ATOM      4  C   UNL     1       1.338   9.240  19.314  0.00  0.00    +0.000 A 
ATOM      5  C   UNL     1       1.258   8.429  20.454  0.00  0.00    +0.000 A 
ATOM      6  C   UNL     1       1.890   7.176  20.483  0.00  0.00    +0.000 A 
ENDROOT
BRANCH   1   9
ATOM      7  C   UNL     1       2.624   4.252  19.094  0.00  0.00    +0.000 C 
ATOM      8  O   UNL     1       1.501   4.161  18.596  0.00  0.00    +0.000 OA
ATOM      9  N   UNL     1       3.234   5.455  19.431  0.00  0.00    +0.000 N 
ATOM     10  H   UNL     1       4.226   5.446  19.630  0.00  0.00    +0.000 HD
BRANCH   7  12
ATOM     11  C   UNL     1       3.167   1.873  18.373  0.00  0.00    +0.000 C 
ATOM     12  C   UNL     1       3.460   2.974  19.397  0.00  0.00    +0.000 C 
BRANCH  12  13
ATOM     13  N   UNL     1       4.907   3.297  19.324  0.00  0.00    +0.000 NA
ATOM     14  H   UNL     1       5.011   4.286  19.084  0.00  0.00    +0.000 HD
ATOM     15  H   UNL     1       5.359   2.778  18.572  0.00  0.00    +0.000 HD
ENDBRANCH  12  13
BRANCH  12  16
ATOM     16  C   UNL     1       3.086   2.517  20.842  0.00  0.00    +0.000 C 
BRANCH  16  17
ATOM     17  O   UNL     1       2.311   3.458  21.584  0.00  0.00    +0.000 OA
ATOM     18  H   UNL     1       2.816   3.728  22.367  0.00  0.00    +0.000 HD
ENDBRANCH  16  17
ENDBRANCH  12  16
ENDBRANCH   7  12
ENDBRANCH   1   9
BRANCH   4  19
ATOM     19  C   UNL     1       0.631  10.552  19.292  0.00  0.00    +0.000 C 
ATOM     20  O   UNL     1      -0.123  10.824  18.365  0.00  0.00    +0.000 OA
ATOM     21  N   UNL     1       0.879  11.393  20.355  0.00  0.00    +0.000 N 
ATOM     22  H   UNL     1       1.432  11.078  21.137  0.00  0.00    +0.000 HD
BRANCH  21  23
ATOM     23  C   UNL     1       0.332  12.728  20.439  0.00  0.00    +0.000 C 
BRANCH  23  24
ATOM     24  C   UNL     1      -1.094  12.682  20.928  0.00  0.00    +0.000 A 
ATOM     25  C   UNL     1      -2.137  13.067  20.081  0.00  0.00    +0.000 A 
ATOM     26  C   UNL     1      -3.463  13.052  20.527  0.00  0.00    +0.000 A 
ATOM     27  C   UNL     1      -3.800  12.652  21.834  0.00  0.00    +0.000 A 
ATOM     28  C   UNL     1      -2.739  12.276  22.676  0.00  0.00    +0.000 A 
ATOM     29  C   UNL     1      -1.407  12.298  22.236  0.00  0.00    +0.000 A 
BRANCH  27  30
ATOM     30  C   UNL     1      -5.212  12.645  22.294  0.00  0.00    +0.000 A 
ATOM     31  C   UNL     1      -5.547  12.910  23.638  0.00  0.00    +0.000 A 
ATOM     32  C   UNL     1      -6.869  12.863  24.089  0.00  0.00    +0.000 A 
ATOM     33  C   UNL     1      -7.898  12.570  23.202  0.00  0.00    +0.000 A 
ATOM     34  C   UNL     1      -7.603  12.322  21.865  0.00  0.00    +0.000 A 
ATOM     35  C   UNL     1      -6.276  12.356  21.419  0.00  0.00    +0.000 A 
ENDBRANCH  27  30
ENDBRANCH  23  24
ENDBRANCH  21  23
ENDBRANCH   4  19
TORSDOF 9
ENDMDL
MODEL 2
REMARK VINA RESULT:      -7.6      1.067      1.749
REMARK  Name = 
REMARK  10 active torsions:
REMARK  status: ('A' for Active; 'I' for Inactive)
REMARK    1  A    between atoms: C_1  and  C_2
REMARK    2  A    between atoms: C_2  and  N_3
REMARK    3  A    between atoms: C_2  and  C_4
REMARK    4  A    between atoms: C_2  and  C_6
REMARK    5  A    between atoms: C_4  and  O_5
REMARK    6  A    between atoms: N_8  and  C_9
REMARK    7  A    between atoms: C_12  and  C_13
REMARK    8  A    between atoms: N_15  and  C_16
REMARK    9  A    between atoms: C_16  and  C_17
REMARK   10  A    between atoms: C_20  and  C_21
REMARK                            x       y       z     vdW  Elec       q    Type
REMARK                         _______ _______ _______ _____ _____    ______ ____
ROOT
ATOM      1  C   UNL     1       2.454   6.745  19.165  0.00  0.00    +0.000 A 
ATOM      2  C   UNL     1       1.861   7.161  20.361  0.00  0.00    +0.000 A 
ATOM      3  C   UNL     1       1.304   8.433  20.485  0.00  0.00    +0.000 A 
ATOM      4  C   UNL     1       1.318   9.316  19.406  0.00  0.00    +0.000 A 
ATOM      5  C   UNL     1       1.926   8.918  18.208  0.00  0.00    +0.000 A 
ATOM      6  C   UNL     1       2.498   7.641  18.089  0.00  0.00    +0.000 A 
ENDROOT
BRANCH   1   9
ATOM      7  C   UNL     1       2.379   4.313  18.637  0.00  0.00    +0.000 C 
ATOM      8  O   UNL     1       1.201   4.280  18.275  0.00  0.00    +0.000 OA
ATOM      9  N   UNL     1       3.048   5.470  19.016  0.00  0.00    +0.000 N 
ATOM     10  H   UNL     1       4.057   5.435  19.088  0.00  0.00    +0.000 HD
BRANCH   7  12
ATOM     11  C   UNL     1       3.441   2.567  20.155  0.00  0.00    +0.000 C 
ATOM     12  C   UNL     1       3.221   3.005  18.703  0.00  0.00    +0.000 C 
BRANCH  12  13
ATOM     13  N   UNL     1       2.504   1.914  17.998  0.00  0.00    +0.000 NA
ATOM     14  H   UNL     1       2.897   1.017  18.296  0.00  0.00    +0.000 HD
ATOM     15  H   UNL     1       2.657   1.965  16.992  0.00  0.00    +0.000 HD
ENDBRANCH  12  13
BRANCH  12  16
ATOM     16  C   UNL     1       4.578   3.302  17.991  0.00  0.00    +0.000 C 
BRANCH  16  17
ATOM     17  O   UNL     1       5.654   3.630  18.869  0.00  0.00    +0.000 OA
ATOM     18  H   UNL     1       5.286   3.973  19.698  0.00  0.00    +0.000 HD
ENDBRANCH  16  17
ENDBRANCH  12  16
ENDBRANCH   7  12
ENDBRANCH   1   9
BRANCH   4  19
ATOM     19  C   UNL     1       0.748  10.689  19.522  0.00  0.00    +0.000 C 
ATOM     20  O   UNL     1       0.158  11.187  18.571  0.00  0.00    +0.000 OA
ATOM     21  N   UNL     1       0.926  11.319  20.734  0.00  0.00    +0.000 N 
ATOM     22  H   UNL     1       1.333  10.823  21.513  0.00  0.00    +0.000 HD
BRANCH  21  23
ATOM     23  C   UNL     1       0.502  12.678  20.978  0.00  0.00    +0.000 C 
BRANCH  23  24
ATOM     24  C   UNL     1      -0.961  12.716  21.343  0.00  0.00    +0.000 A 
ATOM     25  C   UNL     1      -1.389  12.204  22.571  0.00  0.00    +0.000 A 
ATOM     26  C   UNL     1      -2.746  12.211  22.914  0.00  0.00    +0.000 A 
ATOM     27  C   UNL     1      -3.726  12.730  22.048  0.00  0.00    +0.000 A 
ATOM     28  C   UNL     1      -3.280  13.233  20.813  0.00  0.00    +0.000 A 
ATOM     29  C   UNL     1      -1.922  13.220  20.461  0.00  0.00    +0.000 A 
BRANCH  27  30
ATOM     30  C   UNL     1      -5.163  12.726  22.425  0.00  0.00    +0.000 A 
ATOM     31  C   UNL     1      -5.571  12.943  23.757  0.00  0.00    +0.000 A 
ATOM     32  C   UNL     1      -6.918  12.899  24.129  0.00  0.00    +0.000 A 
ATOM     33  C   UNL     1      -7.898  12.656  23.173  0.00  0.00    +0.000 A 
ATOM     34  C   UNL     1      -7.529  12.457  21.846  0.00  0.00    +0.000 A 
ATOM     35  C   UNL     1      -6.178  12.488  21.479  0.00  0.00    +0.000 A 
ENDBRANCH  27  30
ENDBRANCH  23  24
ENDBRANCH  21  23
ENDBRANCH   4  19
TORSDOF 9
ENDMDL
MODEL 3
REMARK VINA RESULT:      -7.5      3.807     11.738
REMARK  Name = 
REMARK  10 active torsions:
REMARK  status: ('A' for Active; 'I' for Inactive)
REMARK    1  A    between atoms: C_1  and  C_2
REMARK    2  A    between atoms: C_2  and  N_3
REMARK    3  A    between atoms: C_2  and  C_4
REMARK    4  A    between atoms: C_2  and  C_6
REMARK    5  A    between atoms: C_4  and  O_5
REMARK    6  A    between atoms: N_8  and  C_9
REMARK    7  A    between atoms: C_12  and  C_13
REMARK    8  A    between atoms: N_15  and  C_16
REMARK    9  A    between atoms: C_16  and  C_17
REMARK   10  A    between atoms: C_20  and  C_21
REMARK                            x       y       z     vdW  Elec       q    Type
REMARK                         _______ _______ _______ _____ _____    ______ ____
ROOT
ATOM      1  C   UNL     1       0.521  10.918  20.506  0.00  0.00    +0.000 A 
ATOM      2  C   UNL     1       1.030  10.368  19.325  0.00  0.00    +0.000 A 
ATOM      3  C   UNL     1       1.468   9.046  19.275  0.00  0.00    +0.000 A 
ATOM      4  C   UNL     1       1.395   8.237  20.409  0.00  0.00    +0.000 A 
ATOM      5  C   UNL     1       0.904   8.782  21.603  0.00  0.00    +0.000 A 
ATOM      6  C   UNL     1       0.474  10.118  21.654  0.00  0.00    +0.000 A 
ENDROOT
BRANCH   1   9
ATOM      7  C   UNL     1       0.875  13.330  21.011  0.00  0.00    +0.000 C 
ATOM      8  O   UNL     1       2.081  13.252  21.252  0.00  0.00    +0.000 OA
ATOM      9  N   UNL     1       0.090  12.262  20.593  0.00  0.00    +0.000 N 
ATOM     10  H   UNL     1      -0.827  12.464  20.216  0.00  0.00    +0.000 HD
BRANCH   7  12
ATOM     11  C   UNL     1      -0.365  14.870  22.615  0.00  0.00    +0.000 C 
ATOM     12  C   UNL     1       0.124  14.684  21.174  0.00  0.00    +0.000 C 
BRANCH  12  13
ATOM     13  N   UNL     1       1.041  15.806  20.853  0.00  0.00    +0.000 NA
ATOM     14  H   UNL     1       1.653  15.519  20.084  0.00  0.00    +0.000 HD
ATOM     15  H   UNL     1       1.657  16.011  21.638  0.00  0.00    +0.000 HD
ENDBRANCH  12  13
BRANCH  12  16
ATOM     16  C   UNL     1      -1.072  14.665  20.170  0.00  0.00    +0.000 C 
BRANCH  16  17
ATOM     17  O   UNL     1      -0.724  14.300  18.835  0.00  0.00    +0.000 OA
ATOM     18  H   UNL     1      -1.409  13.710  18.485  0.00  0.00    +0.000 HD
ENDBRANCH  16  17
ENDBRANCH  12  16
ENDBRANCH   7  12
ENDBRANCH   1   9
BRANCH   4  19
ATOM     19  C   UNL     1       1.878   6.827  20.386  0.00  0.00    +0.000 C 
ATOM     20  O   UNL     1       1.236   5.953  20.957  0.00  0.00    +0.000 OA
ATOM     21  N   UNL     1       3.048   6.597  19.696  0.00  0.00    +0.000 N 
ATOM     22  H   UNL     1       3.480   7.337  19.164  0.00  0.00    +0.000 HD
BRANCH  21  23
ATOM     23  C   UNL     1       3.685   5.302  19.647  0.00  0.00    +0.000 C 
BRANCH  23  24
ATOM     24  C   UNL     1       4.328   5.081  18.301  0.00  0.00    +0.000 A 
ATOM     25  C   UNL     1       4.686   6.175  17.509  0.00  0.00    +0.000 A 
ATOM     26  C   UNL     1       5.262   5.986  16.247  0.00  0.00    +0.000 A 
ATOM     27  C   UNL     1       5.505   4.700  15.729  0.00  0.00    +0.000 A 
ATOM     28  C   UNL     1       5.132   3.611  16.536  0.00  0.00    +0.000 A 
ATOM     29  C   UNL     1       4.546   3.795  17.797  0.00  0.00    +0.000 A 
BRANCH  27  30
ATOM     30  C   UNL     1       6.114   4.517  14.387  0.00  0.00    +0.000 A 
ATOM     31  C   UNL     1       7.246   5.255  13.988  0.00  0.00    +0.000 A 
ATOM     32  C   UNL     1       7.800   5.120  12.712  0.00  0.00    +0.000 A 
ATOM     33  C   UNL     1       7.247   4.225  11.803  0.00  0.00    +0.000 A 
ATOM     34  C   UNL     1       6.140   3.467  12.173  0.00  0.00    +0.000 A 
ATOM     35  C   UNL     1       5.579   3.615  13.447  0.00  0.00    +0.000 A 
ENDBRANCH  27  30
ENDBRANCH  23  24
ENDBRANCH  21  23
ENDBRANCH   4  19
TORSDOF 9
ENDMDL
MODEL 4
REMARK VINA RESULT:      -7.3      7.934     11.636
REMARK  Name = 
REMARK  10 active torsions:
REMARK  status: ('A' for Active; 'I' for Inactive)
REMARK    1  A    between atoms: C_1  and  C_2
REMARK    2  A    between atoms: C_2  and  N_3
REMARK    3  A    between atoms: C_2  and  C_4
REMARK    4  A    between atoms: C_2  and  C_6
REMARK    5  A    between atoms: C_4  and  O_5
REMARK    6  A    between atoms: N_8  and  C_9
REMARK    7  A    between atoms: C_12  and  C_13
REMARK    8  A    between atoms: N_15  and  C_16
REMARK    9  A    between atoms: C_16  and  C_17
REMARK   10  A    between atoms: C_20  and  C_21
REMARK                            x       y       z     vdW  Elec       q    Type
REMARK                         _______ _______ _______ _____ _____    ______ ____
ROOT
ATOM      1  C   UNL     1       9.043  12.336  18.965  0.00  0.00    +0.000 A 
ATOM      2  C   UNL     1       9.434  11.346  19.872  0.00  0.00    +0.000 A 
ATOM      3  C   UNL     1       9.207   9.996  19.610  0.00  0.00    +0.000 A 
ATOM      4  C   UNL     1       8.591   9.605  18.422  0.00  0.00    +0.000 A 
ATOM      5  C   UNL     1       8.177  10.588  17.513  0.00  0.00    +0.000 A 
ATOM      6  C   UNL     1       8.396  11.947  17.785  0.00  0.00    +0.000 A 
ENDROOT
BRANCH   1   9
ATOM      7  C   UNL     1      10.383  14.433  18.888  0.00  0.00    +0.000 C 
ATOM      8  O   UNL     1      11.325  13.979  18.238  0.00  0.00    +0.000 OA
ATOM      9  N   UNL     1       9.239  13.714  19.214  0.00  0.00    +0.000 N 
ATOM     10  H   UNL     1       8.436  14.226  19.558  0.00  0.00    +0.000 HD
BRANCH   7  12
ATOM     11  C   UNL     1       9.673  16.022  20.747  0.00  0.00    +0.000 C 
ATOM     12  C   UNL     1      10.419  15.899  19.413  0.00  0.00    +0.000 C 
BRANCH  12  13
ATOM     13  N   UNL     1      11.826  16.315  19.634  0.00  0.00    +0.000 NA
ATOM     14  H   UNL     1      11.908  16.707  20.576  0.00  0.00    +0.000 HD
ATOM     15  H   UNL     1      12.090  17.064  18.996  0.00  0.00    +0.000 HD
ENDBRANCH  12  13
BRANCH  12  16
ATOM     16  C   UNL     1       9.762  16.792  18.314  0.00  0.00    +0.000 C 
BRANCH  16  17
ATOM     17  O   UNL     1       9.427  16.106  17.108  0.00  0.00    +0.000 OA
ATOM     18  H   UNL     1       8.552  15.702  17.213  0.00  0.00    +0.000 HD
ENDBRANCH  16  17
ENDBRANCH  12  16
ENDBRANCH   7  12
ENDBRANCH   1   9
BRANCH   4  19
ATOM     19  C   UNL     1       8.317   8.169  18.129  0.00  0.00    +0.000 C 
ATOM     20  O   UNL     1       8.578   7.314  18.967  0.00  0.00    +0.000 OA
ATOM     21  N   UNL     1       7.764   7.895  16.897  0.00  0.00    +0.000 N 
ATOM     22  H   UNL     1       7.480   8.646  16.287  0.00  0.00    +0.000 HD
BRANCH  21  23
ATOM     23  C   UNL     1       7.513   6.549  16.435  0.00  0.00    +0.000 C 
BRANCH  23  24
ATOM     24  C   UNL     1       6.291   5.980  17.110  0.00  0.00    +0.000 A 
ATOM     25  C   UNL     1       6.376   4.773  17.809  0.00  0.00    +0.000 A 
ATOM     26  C   UNL     1       5.245   4.220  18.421  0.00  0.00    +0.000 A 
ATOM     27  C   UNL     1       3.988   4.850  18.361  0.00  0.00    +0.000 A 
ATOM     28  C   UNL     1       3.918   6.060  17.648  0.00  0.00    +0.000 A 
ATOM     29  C   UNL     1       5.047   6.613  17.024  0.00  0.00    +0.000 A 
BRANCH  27  30
ATOM     30  C   UNL     1       2.797   4.249  19.013  0.00  0.00    +0.000 A 
ATOM     31  C   UNL     1       2.016   3.275  18.359  0.00  0.00    +0.000 A 
ATOM     32  C   UNL     1       0.869   2.735  18.948  0.00  0.00    +0.000 A 
ATOM     33  C   UNL     1       0.480   3.141  20.218  0.00  0.00    +0.000 A 
ATOM     34  C   UNL     1       1.240   4.088  20.899  0.00  0.00    +0.000 A 
ATOM     35  C   UNL     1       2.381   4.637  20.301  0.00  0.00    +0.000 A 
ENDBRANCH  27  30
ENDBRANCH  23  24
ENDBRANCH  21  23
ENDBRANCH   4  19
TORSDOF 9
ENDMDL
MODEL 5
REMARK VINA RESULT:      -7.2      3.951     11.764
REMARK  Name = 
REMARK  10 active torsions:
REMARK  status: ('A' for Active; 'I' for Inactive)
REMARK    1  A    between atoms: C_1  and  C_2
REMARK    2  A    between atoms: C_2  and  N_3
REMARK    3  A    between atoms: C_2  and  C_4
REMARK    4  A    between atoms: C_2  and  C_6
REMARK    5  A    between atoms: C_4  and  O_5
REMARK    6  A    between atoms: N_8  and  C_9
REMARK    7  A    between atoms: C_12  and  C_13
REMARK    8  A    between atoms: N_15  and  C_16
REMARK    9  A    between atoms: C_16  and  C_17
REMARK   10  A    between atoms: C_20  and  C_21
REMARK                            x       y       z     vdW  Elec       q    Type
REMARK                         _______ _______ _______ _____ _____    ______ ____
ROOT
ATOM      1  C   UNL     1       0.071  10.291  20.392  0.00  0.00    +0.000 A 
ATOM      2  C   UNL     1      -0.055   9.398  21.461  0.00  0.00    +0.000 A 
ATOM      3  C   UNL     1       0.576   8.155  21.441  0.00  0.00    +0.000 A 
ATOM      4  C   UNL     1       1.362   7.783  20.351  0.00  0.00    +0.000 A 
ATOM      5  C   UNL     1       1.481   8.661  19.266  0.00  0.00    +0.000 A 
ATOM      6  C   UNL     1       0.834   9.907  19.282  0.00  0.00    +0.000 A 
ENDROOT
BRANCH   1   9
ATOM      7  C   UNL     1      -0.138  12.686  21.040  0.00  0.00    +0.000 C 
ATOM      8  O   UNL     1       0.935  12.768  21.641  0.00  0.00    +0.000 OA
ATOM      9  N   UNL     1      -0.576  11.548  20.374  0.00  0.00    +0.000 N 
ATOM     10  H   UNL     1      -1.357  11.641  19.736  0.00  0.00    +0.000 HD
BRANCH   7  12
ATOM     11  C   UNL     1      -0.350  15.205  20.737  0.00  0.00    +0.000 C 
ATOM     12  C   UNL     1      -1.112  13.900  20.995  0.00  0.00    +0.000 C 
BRANCH  12  13
ATOM     13  N   UNL     1      -2.089  13.714  19.893  0.00  0.00    +0.000 NA
ATOM     14  H   UNL     1      -2.844  14.397  20.005  0.00  0.00    +0.000 HD
ATOM     15  H   UNL     1      -2.531  12.798  19.947  0.00  0.00    +0.000 HD
ENDBRANCH  12  13
BRANCH  12  16
ATOM     16  C   UNL     1      -1.854  13.941  22.368  0.00  0.00    +0.000 C 
BRANCH  16  17
ATOM     17  O   UNL     1      -0.999  13.898  23.509  0.00  0.00    +0.000 OA
ATOM     18  H   UNL     1      -0.554  14.755  23.598  0.00  0.00    +0.000 HD
ENDBRANCH  16  17
ENDBRANCH  12  16
ENDBRANCH   7  12
ENDBRANCH   1   9
BRANCH   4  19
ATOM     19  C   UNL     1       2.029   6.450  20.297  0.00  0.00    +0.000 C 
ATOM     20  O   UNL     1       1.431   5.453  20.682  0.00  0.00    +0.000 OA
ATOM     21  N   UNL     1       3.311   6.433  19.794  0.00  0.00    +0.000 N 
ATOM     22  H   UNL     1       3.717   7.270  19.401  0.00  0.00    +0.000 HD
BRANCH  21  23
ATOM     23  C   UNL     1       4.118   5.235  19.750  0.00  0.00    +0.000 C 
BRANCH  23  24
ATOM     24  C   UNL     1       4.661   5.018  18.360  0.00  0.00    +0.000 A 
ATOM     25  C   UNL     1       5.845   5.647  17.965  0.00  0.00    +0.000 A 
ATOM     26  C   UNL     1       6.350   5.473  16.672  0.00  0.00    +0.000 A 
ATOM     27  C   UNL     1       5.695   4.665  15.724  0.00  0.00    +0.000 A 
ATOM     28  C   UNL     1       4.502   4.046  16.134  0.00  0.00    +0.000 A 
ATOM     29  C   UNL     1       3.987   4.224  17.427  0.00  0.00    +0.000 A 
BRANCH  27  30
ATOM     30  C   UNL     1       6.242   4.494  14.353  0.00  0.00    +0.000 A 
ATOM     31  C   UNL     1       7.331   5.264  13.897  0.00  0.00    +0.000 A 
ATOM     32  C   UNL     1       7.824   5.139  12.595  0.00  0.00    +0.000 A 
ATOM     33  C   UNL     1       7.253   4.225  11.717  0.00  0.00    +0.000 A 
ATOM     34  C   UNL     1       6.189   3.437  12.143  0.00  0.00    +0.000 A 
ATOM     35  C   UNL     1       5.688   3.573  13.444  0.00  0.00    +0.000 A 
ENDBRANCH  27  30
ENDBRANCH  23  24
ENDBRANCH  21  23
ENDBRANCH   4  19
TORSDOF 9
ENDMDL
MODEL 6
REMARK VINA RESULT:      -7.2      3.715      5.611
REMARK  Name = 
REMARK  10 active torsions:
REMARK  status: ('A' for Active; 'I' for Inactive)
REMARK    1  A    between atoms: C_1  and  C_2
REMARK    2  A    between atoms: C_2  and  N_3
REMARK    3  A    between atoms: C_2  and  C_4
REMARK    4  A    between atoms: C_2  and  C_6
REMARK    5  A    between atoms: C_4  and  O_5
REMARK    6  A    between atoms: N_8  and  C_9
REMARK    7  A    between atoms: C_12  and  C_13
REMARK    8  A    between atoms: N_15  and  C_16
REMARK    9  A    between atoms: C_16  and  C_17
REMARK   10  A    between atoms: C_20  and  C_21
REMARK                            x       y       z     vdW  Elec       q    Type
REMARK                         _______ _______ _______ _____ _____    ______ ____
ROOT
ATOM      1  C   UNL     1       3.523   6.794  18.061  0.00  0.00    +0.000 A 
ATOM      2  C   UNL     1       2.971   6.609  19.333  0.00  0.00    +0.000 A 
ATOM      3  C   UNL     1       2.049   7.514  19.857  0.00  0.00    +0.000 A 
ATOM      4  C   UNL     1       1.649   8.622  19.111  0.00  0.00    +0.000 A 
ATOM      5  C   UNL     1       2.209   8.828  17.843  0.00  0.00    +0.000 A 
ATOM      6  C   UNL     1       3.146   7.923  17.322  0.00  0.00    +0.000 A 
ENDROOT
BRANCH   1   9
ATOM      7  C   UNL     1       5.713   6.277  16.994  0.00  0.00    +0.000 C 
ATOM      8  O   UNL     1       6.175   7.418  17.051  0.00  0.00    +0.000 OA
ATOM      9  N   UNL     1       4.478   5.906  17.512  0.00  0.00    +0.000 N 
ATOM     10  H   UNL     1       4.279   4.919  17.611  0.00  0.00    +0.000 HD
BRANCH   7  12
ATOM     11  C   UNL     1       5.567   4.116  15.656  0.00  0.00    +0.000 C 
ATOM     12  C   UNL     1       6.513   5.135  16.302  0.00  0.00    +0.000 C 
BRANCH  12  13
ATOM     13  N   UNL     1       7.372   5.704  15.233  0.00  0.00    +0.000 NA
ATOM     14  H   UNL     1       7.040   5.361  14.328  0.00  0.00    +0.000 HD
ATOM     15  H   UNL     1       8.332   5.374  15.322  0.00  0.00    +0.000 HD
ENDBRANCH  12  13
BRANCH  12  16
ATOM     16  C   UNL     1       7.398   4.467  17.402  0.00  0.00    +0.000 C 
BRANCH  16  17
ATOM     17  O   UNL     1       6.699   4.111  18.594  0.00  0.00    +0.000 OA
ATOM     18  H   UNL     1       6.206   4.884  18.909  0.00  0.00    +0.000 HD
ENDBRANCH  16  17
ENDBRANCH  12  16
ENDBRANCH   7  12
ENDBRANCH   1   9
BRANCH   4  19
ATOM     19  C   UNL     1       0.681   9.616  19.659  0.00  0.00    +0.000 C 
ATOM     20  O   UNL     1      -0.338   9.885  19.034  0.00  0.00    +0.000 OA
ATOM     21  N   UNL     1       1.009  10.175  20.875  0.00  0.00    +0.000 N 
ATOM     22  H   UNL     1       1.810   9.843  21.390  0.00  0.00    +0.000 HD
BRANCH  21  23
ATOM     23  C   UNL     1       0.215  11.208  21.499  0.00  0.00    +0.000 C 
BRANCH  23  24
ATOM     24  C   UNL     1       0.323  12.496  20.724  0.00  0.00    +0.000 A 
ATOM     25  C   UNL     1      -0.804  13.301  20.541  0.00  0.00    +0.000 A 
ATOM     26  C   UNL     1      -0.724  14.488  19.804  0.00  0.00    +0.000 A 
ATOM     27  C   UNL     1       0.483  14.918  19.222  0.00  0.00    +0.000 A 
ATOM     28  C   UNL     1       1.606  14.094  19.408  0.00  0.00    +0.000 A 
ATOM     29  C   UNL     1       1.529  12.898  20.138  0.00  0.00    +0.000 A 
BRANCH  27  30
ATOM     30  C   UNL     1       0.551  16.179  18.440  0.00  0.00    +0.000 A 
ATOM     31  C   UNL     1       1.779  16.681  17.964  0.00  0.00    +0.000 A 
ATOM     32  C   UNL     1       1.858  17.888  17.264  0.00  0.00    +0.000 A 
ATOM     33  C   UNL     1       0.705  18.619  17.002  0.00  0.00    +0.000 A 
ATOM     34  C   UNL     1      -0.526  18.140  17.441  0.00  0.00    +0.000 A 
ATOM     35  C   UNL     1      -0.599  16.938  18.155  0.00  0.00    +0.000 A 
ENDBRANCH  27  30
ENDBRANCH  23  24
ENDBRANCH  21  23
ENDBRANCH   4  19
TORSDOF 9
ENDMDL
MODEL 7
REMARK VINA RESULT:      -7.2      1.581      2.197
REMARK  Name = 
REMARK  10 active torsions:
REMARK  status: ('A' for Active; 'I' for Inactive)
REMARK    1  A    between atoms: C_1  and  C_2
REMARK    2  A    between atoms: C_2  and  N_3
REMARK    3  A    between atoms: C_2  and  C_4
REMARK    4  A    between atoms: C_2  and  C_6
REMARK    5  A    between atoms: C_4  and  O_5
REMARK    6  A    between atoms: N_8  and  C_9
REMARK    7  A    between atoms: C_12  and  C_13
REMARK    8  A    between atoms: N_15  and  C_16
REMARK    9  A    between atoms: C_16  and  C_17
REMARK   10  A    between atoms: C_20  and  C_21
REMARK                            x       y       z     vdW  Elec       q    Type
REMARK                         _______ _______ _______ _____ _____    ______ ____
ROOT
ATOM      1  C   UNL     1       2.360   7.127  18.910  0.00  0.00    +0.000 A 
ATOM      2  C   UNL     1       1.875   7.525  20.160  0.00  0.00    +0.000 A 
ATOM      3  C   UNL     1       1.362   8.806  20.360  0.00  0.00    +0.000 A 
ATOM      4  C   UNL     1       1.311   9.716  19.305  0.00  0.00    +0.000 A 
ATOM      5  C   UNL     1       1.811   9.335  18.052  0.00  0.00    +0.000 A 
ATOM      6  C   UNL     1       2.339   8.049  17.856  0.00  0.00    +0.000 A 
ENDROOT
BRANCH   1   9
ATOM      7  C   UNL     1       4.156   5.590  18.125  0.00  0.00    +0.000 C 
ATOM      8  O   UNL     1       4.986   6.461  17.862  0.00  0.00    +0.000 OA
ATOM      9  N   UNL     1       2.908   5.843  18.683  0.00  0.00    +0.000 N 
ATOM     10  H   UNL     1       2.387   5.061  19.059  0.00  0.00    +0.000 HD
BRANCH   7  12
ATOM     11  C   UNL     1       4.905   3.900  16.375  0.00  0.00    +0.000 C 
ATOM     12  C   UNL     1       4.461   4.093  17.830  0.00  0.00    +0.000 C 
BRANCH  12  13
ATOM     13  N   UNL     1       5.561   3.625  18.710  0.00  0.00    +0.000 NA
ATOM     14  H   UNL     1       6.448   3.986  18.348  0.00  0.00    +0.000 HD
ATOM     15  H   UNL     1       5.642   2.610  18.686  0.00  0.00    +0.000 HD
ENDBRANCH  12  13
BRANCH  12  16
ATOM     16  C   UNL     1       3.155   3.293  18.133  0.00  0.00    +0.000 C 
BRANCH  16  17
ATOM     17  O   UNL     1       2.210   3.266  17.064  0.00  0.00    +0.000 OA
ATOM     18  H   UNL     1       2.660   2.968  16.258  0.00  0.00    +0.000 HD
ENDBRANCH  16  17
ENDBRANCH  12  16
ENDBRANCH   7  12
ENDBRANCH   1   9
BRANCH   4  19
ATOM     19  C   UNL     1       0.787  11.098  19.500  0.00  0.00    +0.000 C 
ATOM     20  O   UNL     1       0.968  11.674  20.566  0.00  0.00    +0.000 OA
ATOM     21  N   UNL     1       0.120  11.651  18.429  0.00  0.00    +0.000 N 
ATOM     22  H   UNL     1       0.086  11.168  17.544  0.00  0.00    +0.000 HD
BRANCH  21  23
ATOM     23  C   UNL     1      -0.513  12.948  18.488  0.00  0.00    +0.000 C 
BRANCH  23  24
ATOM     24  C   UNL     1      -1.820  12.863  19.236  0.00  0.00    +0.000 A 
ATOM     25  C   UNL     1      -1.982  13.550  20.442  0.00  0.00    +0.000 A 
ATOM     26  C   UNL     1      -3.181  13.463  21.158  0.00  0.00    +0.000 A 
ATOM     27  C   UNL     1      -4.263  12.688  20.700  0.00  0.00    +0.000 A 
ATOM     28  C   UNL     1      -4.081  11.997  19.489  0.00  0.00    +0.000 A 
ATOM     29  C   UNL     1      -2.877  12.074  18.772  0.00  0.00    +0.000 A 
BRANCH  27  30
ATOM     30  C   UNL     1      -5.528  12.602  21.474  0.00  0.00    +0.000 A 
ATOM     31  C   UNL     1      -5.607  13.065  22.803  0.00  0.00    +0.000 A 
ATOM     32  C   UNL     1      -6.780  12.949  23.553  0.00  0.00    +0.000 A 
ATOM     33  C   UNL     1      -7.916  12.383  22.988  0.00  0.00    +0.000 A 
ATOM     34  C   UNL     1      -7.877  11.933  21.671  0.00  0.00    +0.000 A 
ATOM     35  C   UNL     1      -6.695  12.038  20.927  0.00  0.00    +0.000 A 
ENDBRANCH  27  30
ENDBRANCH  23  24
ENDBRANCH  21  23
ENDBRANCH   4  19
TORSDOF 9
ENDMDL
MODEL 8
REMARK VINA RESULT:      -7.2      3.059     10.426
REMARK  Name = 
REMARK  10 active torsions:
REMARK  status: ('A' for Active; 'I' for Inactive)
REMARK    1  A    between atoms: C_1  and  C_2
REMARK    2  A    between atoms: C_2  and  N_3
REMARK    3  A    between atoms: C_2  and  C_4
REMARK    4  A    between atoms: C_2  and  C_6
REMARK    5  A    between atoms: C_4  and  O_5
REMARK    6  A    between atoms: N_8  and  C_9
REMARK    7  A    between atoms: C_12  and  C_13
REMARK    8  A    between atoms: N_15  and  C_16
REMARK    9  A    between atoms: C_16  and  C_17
REMARK   10  A    between atoms: C_20  and  C_21
REMARK                            x       y       z     vdW  Elec       q    Type
REMARK                         _______ _______ _______ _____ _____    ______ ____
ROOT
ATOM      1  C   UNL     1      -3.785  12.780  20.674  0.00  0.00    +0.000 A 
ATOM      2  C   UNL     1      -4.102  12.234  19.427  0.00  0.00    +0.000 A 
ATOM      3  C   UNL     1      -3.135  11.594  18.652  0.00  0.00    +0.000 A 
ATOM      4  C   UNL     1      -1.826  11.477  19.119  0.00  0.00    +0.000 A 
ATOM      5  C   UNL     1      -1.492  12.038  20.358  0.00  0.00    +0.000 A 
ATOM      6  C   UNL     1      -2.464  12.692  21.131  0.00  0.00    +0.000 A 
ENDROOT
BRANCH   1   9
ATOM      7  C   UNL     1      -5.090  13.107  22.770  0.00  0.00    +0.000 C 
ATOM      8  O   UNL     1      -4.527  12.231  23.428  0.00  0.00    +0.000 OA
ATOM      9  N   UNL     1      -4.739  13.455  21.471  0.00  0.00    +0.000 N 
ATOM     10  H   UNL     1      -5.108  14.319  21.093  0.00  0.00    +0.000 HD
BRANCH   7  12
ATOM     11  C   UNL     1      -7.367  14.151  22.321  0.00  0.00    +0.000 C 
ATOM     12  C   UNL     1      -6.281  13.906  23.374  0.00  0.00    +0.000 C 
BRANCH  12  13
ATOM     13  N   UNL     1      -6.887  13.132  24.487  0.00  0.00    +0.000 NA
ATOM     14  H   UNL     1      -6.140  12.806  25.105  0.00  0.00    +0.000 HD
ATOM     15  H   UNL     1      -7.349  12.293  24.139  0.00  0.00    +0.000 HD
ENDBRANCH  12  13
BRANCH  12  16
ATOM     16  C   UNL     1      -5.701  15.252  23.912  0.00  0.00    +0.000 C 
BRANCH  16  17
ATOM     17  O   UNL     1      -4.279  15.355  23.853  0.00  0.00    +0.000 OA
ATOM     18  H   UNL     1      -3.935  14.613  23.331  0.00  0.00    +0.000 HD
ENDBRANCH  16  17
ENDBRANCH  12  16
ENDBRANCH   7  12
ENDBRANCH   1   9
BRANCH   4  19
ATOM     19  C   UNL     1      -0.769  10.818  18.299  0.00  0.00    +0.000 C 
ATOM     20  O   UNL     1      -1.085  10.032  17.414  0.00  0.00    +0.000 OA
ATOM     21  N   UNL     1       0.532  11.155  18.601  0.00  0.00    +0.000 N 
ATOM     22  H   UNL     1       0.729  11.881  19.274  0.00  0.00    +0.000 HD
BRANCH  21  23
ATOM     23  C   UNL     1       1.669  10.544  17.951  0.00  0.00    +0.000 C 
BRANCH  23  24
ATOM     24  C   UNL     1       1.909   9.161  18.502  0.00  0.00    +0.000 A 
ATOM     25  C   UNL     1       2.532   8.191  17.712  0.00  0.00    +0.000 A 
ATOM     26  C   UNL     1       2.742   6.897  18.201  0.00  0.00    +0.000 A 
ATOM     27  C   UNL     1       2.339   6.521  19.496  0.00  0.00    +0.000 A 
ATOM     28  C   UNL     1       1.707   7.505  20.275  0.00  0.00    +0.000 A 
ATOM     29  C   UNL     1       1.486   8.802  19.786  0.00  0.00    +0.000 A 
BRANCH  27  30
ATOM     30  C   UNL     1       2.565   5.142  19.999  0.00  0.00    +0.000 A 
ATOM     31  C   UNL     1       1.897   4.660  21.143  0.00  0.00    +0.000 A 
ATOM     32  C   UNL     1       2.135   3.379  21.648  0.00  0.00    +0.000 A 
ATOM     33  C   UNL     1       3.037   2.534  21.012  0.00  0.00    +0.000 A 
ATOM     34  C   UNL     1       3.700   2.974  19.869  0.00  0.00    +0.000 A 
ATOM     35  C   UNL     1       3.469   4.263  19.373  0.00  0.00    +0.000 A 
ENDBRANCH  27  30
ENDBRANCH  23  24
ENDBRANCH  21  23
ENDBRANCH   4  19
TORSDOF 9
ENDMDL
MODEL 9
REMARK VINA RESULT:      -7.2      3.832     11.806
REMARK  Name = 
REMARK  10 active torsions:
REMARK  status: ('A' for Active; 'I' for Inactive)
REMARK    1  A    between atoms: C_1  and  C_2
REMARK    2  A    between atoms: C_2  and  N_3
REMARK    3  A    between atoms: C_2  and  C_4
REMARK    4  A    between atoms: C_2  and  C_6
REMARK    5  A    between atoms: C_4  and  O_5
REMARK    6  A    between atoms: N_8  and  C_9
REMARK    7  A    between atoms: C_12  and  C_13
REMARK    8  A    between atoms: N_15  and  C_16
REMARK    9  A    between atoms: C_16  and  C_17
REMARK   10  A    between atoms: C_20  and  C_21
REMARK                            x       y       z     vdW  Elec       q    Type
REMARK                         _______ _______ _______ _____ _____    ______ ____
ROOT
ATOM      1  C   UNL     1       0.149  10.809  20.103  0.00  0.00    +0.000 A 
ATOM      2  C   UNL     1      -0.133   9.997  21.207  0.00  0.00    +0.000 A 
ATOM      3  C   UNL     1       0.396   8.712  21.311  0.00  0.00    +0.000 A 
ATOM      4  C   UNL     1       1.235   8.214  20.314  0.00  0.00    +0.000 A 
ATOM      5  C   UNL     1       1.510   9.010  19.195  0.00  0.00    +0.000 A 
ATOM      6  C   UNL     1       0.966  10.299  19.086  0.00  0.00    +0.000 A 
ENDROOT
BRANCH   1   9
ATOM      7  C   UNL     1      -0.121  13.187  20.789  0.00  0.00    +0.000 C 
ATOM      8  O   UNL     1       0.718  13.173  21.692  0.00  0.00    +0.000 OA
ATOM      9  N   UNL     1      -0.393  12.107  19.958  0.00  0.00    +0.000 N 
ATOM     10  H   UNL     1      -0.932  12.276  19.118  0.00  0.00    +0.000 HD
BRANCH   7  12
ATOM     11  C   UNL     1      -0.439  15.655  21.328  0.00  0.00    +0.000 C 
ATOM     12  C   UNL     1      -0.966  14.466  20.516  0.00  0.00    +0.000 C 
BRANCH  12  13
ATOM     13  N   UNL     1      -0.884  14.820  19.077  0.00  0.00    +0.000 NA
ATOM     14  H   UNL     1      -1.279  15.755  18.947  0.00  0.00    +0.000 HD
ATOM     15  H   UNL     1      -1.456  14.194  18.513  0.00  0.00    +0.000 HD
ENDBRANCH  12  13
BRANCH  12  16
ATOM     16  C   UNL     1      -2.441  14.127  20.901  0.00  0.00    +0.000 C 
BRANCH  16  17
ATOM     17  O   UNL     1      -3.153  13.368  19.925  0.00  0.00    +0.000 OA
ATOM     18  H   UNL     1      -3.098  12.429  20.160  0.00  0.00    +0.000 HD
ENDBRANCH  16  17
ENDBRANCH  12  16
ENDBRANCH   7  12
ENDBRANCH   1   9
BRANCH   4  19
ATOM     19  C   UNL     1       1.796   6.834  20.394  0.00  0.00    +0.000 C 
ATOM     20  O   UNL     1       1.426   6.075  21.282  0.00  0.00    +0.000 OA
ATOM     21  N   UNL     1       2.716   6.497  19.426  0.00  0.00    +0.000 N 
ATOM     22  H   UNL     1       2.909   7.128  18.663  0.00  0.00    +0.000 HD
BRANCH  21  23
ATOM     23  C   UNL     1       3.407   5.228  19.413  0.00  0.00    +0.000 C 
BRANCH  23  24
ATOM     24  C   UNL     1       4.130   5.036  18.103  0.00  0.00    +0.000 A 
ATOM     25  C   UNL     1       4.492   6.145  17.334  0.00  0.00    +0.000 A 
ATOM     26  C   UNL     1       5.143   5.981  16.106  0.00  0.00    +0.000 A 
ATOM     27  C   UNL     1       5.459   4.707  15.599  0.00  0.00    +0.000 A 
ATOM     28  C   UNL     1       5.081   3.601  16.381  0.00  0.00    +0.000 A 
ATOM     29  C   UNL     1       4.420   3.760  17.609  0.00  0.00    +0.000 A 
BRANCH  27  30
ATOM     30  C   UNL     1       6.147   4.550  14.293  0.00  0.00    +0.000 A 
ATOM     31  C   UNL     1       7.239   5.366  13.936  0.00  0.00    +0.000 A 
ATOM     32  C   UNL     1       7.866   5.254  12.692  0.00  0.00    +0.000 A 
ATOM     33  C   UNL     1       7.428   4.307  11.773  0.00  0.00    +0.000 A 
ATOM     34  C   UNL     1       6.363   3.473  12.102  0.00  0.00    +0.000 A 
ATOM     35  C   UNL     1       5.730   3.597  13.344  0.00  0.00    +0.000 A 
ENDBRANCH  27  30
ENDBRANCH  23  24
ENDBRANCH  21  23
ENDBRANCH   4  19
TORSDOF 9
ENDMDL
