MODEL 1
REMARK VINA RESULT:      -7.1      0.000      0.000
REMARK  Name = 
REMARK  8 active torsions:
REMARK  status: ('A' for Active; 'I' for Inactive)
REMARK    1  A    between atoms: C_1  and  C_2
REMARK    2  A    between atoms: N_4  and  C_5
REMARK    3  A    between atoms: C_6  and  C_7
REMARK    4  A    between atoms: C_8  and  N_9
REMARK    5  A    between atoms: N_9  and  S_10
REMARK    6  A    between atoms: S_10  and  C_13
REMARK    7  A    between atoms: C_14  and  C_15
REMARK    8  A    between atoms: C_18  and  C_19
REMARK                            x       y       z     vdW  Elec       q    Type
REMARK                         _______ _______ _______ _____ _____    ______ ____
ROOT
ATOM      1  S   UNL     1       4.910   4.009  19.312  0.00  0.00    +0.000 S 
ATOM      2  O   UNL     1       4.968   2.735  19.991  0.00  0.00    +0.000 OA
ATOM      3  O   UNL     1       4.914   5.274  20.014  0.00  0.00    +0.000 OA
ENDROOT
BRANCH   1   4
ATOM      4  C   UNL     1       3.388   3.983  18.490  0.00  0.00    +0.000 A 
ATOM      5  C   UNL     1       2.731   2.822  18.016  0.00  0.00    +0.000 A 
ATOM      6  C   UNL     1       3.140   1.396  18.091  0.00  0.00    +0.000 C 
ATOM      7  N   UNL     1       1.571   3.128  17.417  0.00  0.00    +0.000 NA
ATOM      8  N   UNL     1       1.478   4.460  17.531  0.00  0.00    +0.000 N 
ATOM      9  C   UNL     1       2.561   5.038  18.135  0.00  0.00    +0.000 A 
ATOM     10  C   UNL     1       2.657   6.506  18.312  0.00  0.00    +0.000 C 
ATOM     11  H   UNL     1       0.647   4.915  17.162  0.00  0.00    +0.000 HD
ENDBRANCH   1   4
BRANCH   1  12
ATOM     12  N   UNL     1       6.121   4.090  18.105  0.00  0.00    +0.000 N 
ATOM     13  H   UNL     1       5.723   3.613  17.295  0.00  0.00    +0.000 HD
BRANCH  12  21
ATOM     14  C   UNL     1       5.200   5.912  15.611  0.00  0.00    +0.000 C 
ATOM     15  C   UNL     1       6.196   6.191  16.673  0.00  0.00    +0.000 A 
ATOM     16  N   UNL     1       6.808   7.382  16.704  0.00  0.00    +0.000 NA
ATOM     17  N   UNL     1       7.586   7.328  17.797  0.00  0.00    +0.000 N 
ATOM     18  C   UNL     1       8.389   8.480  18.137  0.00  0.00    +0.000 C 
ATOM     19  C   UNL     1       7.485   6.145  18.485  0.00  0.00    +0.000 A 
ATOM     20  C   UNL     1       8.250   5.839  19.719  0.00  0.00    +0.000 C 
ATOM     21  C   UNL     1       6.591   5.375  17.766  0.00  0.00    +0.000 A 
ENDBRANCH  12  21
ENDBRANCH   1  12
TORSDOF 3
ENDMDL
MODEL 2
REMARK VINA RESULT:      -7.1      2.122      5.117
REMARK  Name = 
REMARK  8 active torsions:
REMARK  status: ('A' for Active; 'I' for Inactive)
REMARK    1  A    between atoms: C_1  and  C_2
REMARK    2  A    between atoms: N_4  and  C_5
REMARK    3  A    between atoms: C_6  and  C_7
REMARK    4  A    between atoms: C_8  and  N_9
REMARK    5  A    between atoms: N_9  and  S_10
REMARK    6  A    between atoms: S_10  and  C_13
REMARK    7  A    between atoms: C_14  and  C_15
REMARK    8  A    between atoms: C_18  and  C_19
REMARK                            x       y       z     vdW  Elec       q    Type
REMARK                         _______ _______ _______ _____ _____    ______ ____
ROOT
ATOM      1  S   UNL     1       5.222   4.764  18.675  0.00  0.00    +0.000 S 
ATOM      2  O   UNL     1       5.570   5.635  19.773  0.00  0.00    +0.000 OA
ATOM      3  O   UNL     1       5.426   3.331  18.714  0.00  0.00    +0.000 OA
ENDROOT
BRANCH   1   4
ATOM      4  C   UNL     1       6.225   5.301  17.372  0.00  0.00    +0.000 A 
ATOM      5  C   UNL     1       6.131   4.863  16.029  0.00  0.00    +0.000 A 
ATOM      6  C   UNL     1       5.204   3.883  15.408  0.00  0.00    +0.000 C 
ATOM      7  N   UNL     1       7.050   5.460  15.256  0.00  0.00    +0.000 NA
ATOM      8  N   UNL     1       7.701   6.284  16.087  0.00  0.00    +0.000 N 
ATOM      9  C   UNL     1       7.275   6.207  17.385  0.00  0.00    +0.000 A 
ATOM     10  C   UNL     1       7.905   7.014  18.456  0.00  0.00    +0.000 C 
ATOM     11  H   UNL     1       8.439   6.868  15.702  0.00  0.00    +0.000 HD
ENDBRANCH   1   4
BRANCH   1  12
ATOM     12  N   UNL     1       3.603   5.038  18.195  0.00  0.00    +0.000 N 
ATOM     13  H   UNL     1       3.202   4.108  18.065  0.00  0.00    +0.000 HD
BRANCH  12  21
ATOM     14  C   UNL     1       2.235   4.123  20.966  0.00  0.00    +0.000 C 
ATOM     15  C   UNL     1       2.203   5.437  20.280  0.00  0.00    +0.000 A 
ATOM     16  N   UNL     1       1.580   6.469  20.865  0.00  0.00    +0.000 NA
ATOM     17  N   UNL     1       1.782   7.499  20.027  0.00  0.00    +0.000 N 
ATOM     18  C   UNL     1       1.241   8.793  20.372  0.00  0.00    +0.000 C 
ATOM     19  C   UNL     1       2.532   7.170  18.925  0.00  0.00    +0.000 A 
ATOM     20  C   UNL     1       2.884   8.130  17.850  0.00  0.00    +0.000 C 
ATOM     21  C   UNL     1       2.811   5.823  19.057  0.00  0.00    +0.000 A 
ENDBRANCH  12  21
ENDBRANCH   1  12
TORSDOF 3
ENDMDL
MODEL 3
REMARK VINA RESULT:      -7.1      2.407      2.595
REMARK  Name = 
REMARK  8 active torsions:
REMARK  status: ('A' for Active; 'I' for Inactive)
REMARK    1  A    between atoms: C_1  and  C_2
REMARK    2  A    between atoms: N_4  and  C_5
REMARK    3  A    between atoms: C_6  and  C_7
REMARK    4  A    between atoms: C_8  and  N_9
REMARK    5  A    between atoms: N_9  and  S_10
REMARK    6  A    between atoms: S_10  and  C_13
REMARK    7  A    between atoms: C_14  and  C_15
REMARK    8  A    between atoms: C_18  and  C_19
REMARK                            x       y       z     vdW  Elec       q    Type
REMARK                         _______ _______ _______ _____ _____    ______ ____
ROOT
ATOM      1  S   UNL     1       3.166   3.938  17.775  0.00  0.00    +0.000 S 
ATOM      2  O   UNL     1       3.043   5.373  17.674  0.00  0.00    +0.000 OA
ATOM      3  O   UNL     1       2.253   3.024  17.122  0.00  0.00    +0.000 OA
ENDROOT
BRANCH   1   4
ATOM      4  C   UNL     1       2.962   3.611  19.461  0.00  0.00    +0.000 A 
ATOM      5  C   UNL     1       3.559   2.539  20.167  0.00  0.00    +0.000 A 
ATOM      6  C   UNL     1       4.469   1.468  19.686  0.00  0.00    +0.000 C 
ATOM      7  N   UNL     1       3.205   2.550  21.461  0.00  0.00    +0.000 NA
ATOM      8  N   UNL     1       2.417   3.626  21.582  0.00  0.00    +0.000 N 
ATOM      9  C   UNL     1       2.202   4.287  20.403  0.00  0.00    +0.000 A 
ATOM     10  C   UNL     1       1.322   5.477  20.332  0.00  0.00    +0.000 C 
ATOM     11  H   UNL     1       2.048   3.849  22.503  0.00  0.00    +0.000 HD
ENDBRANCH   1   4
BRANCH   1  12
ATOM     12  N   UNL     1       4.756   3.452  17.367  0.00  0.00    +0.000 N 
ATOM     13  H   UNL     1       4.645   2.810  16.582  0.00  0.00    +0.000 HD
BRANCH  12  21
ATOM     14  C   UNL     1       5.774   4.373  14.451  0.00  0.00    +0.000 C 
ATOM     15  C   UNL     1       6.132   4.897  15.791  0.00  0.00    +0.000 A 
ATOM     16  N   UNL     1       6.954   5.951  15.886  0.00  0.00    +0.000 NA
ATOM     17  N   UNL     1       7.024   6.200  17.204  0.00  0.00    +0.000 N 
ATOM     18  C   UNL     1       7.836   7.305  17.660  0.00  0.00    +0.000 C 
ATOM     19  C   UNL     1       6.260   5.351  17.964  0.00  0.00    +0.000 A 
ATOM     20  C   UNL     1       6.178   5.416  19.445  0.00  0.00    +0.000 C 
ATOM     21  C   UNL     1       5.674   4.478  17.068  0.00  0.00    +0.000 A 
ENDBRANCH  12  21
ENDBRANCH   1  12
TORSDOF 3
ENDMDL
MODEL 4
REMARK VINA RESULT:      -7.1      2.452      3.122
REMARK  Name = 
REMARK  8 active torsions:
REMARK  status: ('A' for Active; 'I' for Inactive)
REMARK    1  A    between atoms: C_1  and  C_2
REMARK    2  A    between atoms: N_4  and  C_5
REMARK    3  A    between atoms: C_6  and  C_7
REMARK    4  A    between atoms: C_8  and  N_9
REMARK    5  A    between atoms: N_9  and  S_10
REMARK    6  A    between atoms: S_10  and  C_13
REMARK    7  A    between atoms: C_14  and  C_15
REMARK    8  A    between atoms: C_18  and  C_19
REMARK                            x       y       z     vdW  Elec       q    Type
REMARK                         _______ _______ _______ _____ _____    ______ ____
ROOT
ATOM      1  S   UNL     1       3.069   3.816  17.840  0.00  0.00    +0.000 S 
ATOM      2  O   UNL     1       2.915   5.251  17.809  0.00  0.00    +0.000 OA
ATOM      3  O   UNL     1       2.163   2.914  17.161  0.00  0.00    +0.000 OA
ENDROOT
BRANCH   1   4
ATOM      4  C   UNL     1       2.906   3.406  19.512  0.00  0.00    +0.000 A 
ATOM      5  C   UNL     1       1.990   3.998  20.416  0.00  0.00    +0.000 A 
ATOM      6  C   UNL     1       0.982   5.065  20.191  0.00  0.00    +0.000 C 
ATOM      7  N   UNL     1       2.108   3.470  21.643  0.00  0.00    +0.000 NA
ATOM      8  N   UNL     1       3.063   2.540  21.517  0.00  0.00    +0.000 N 
ATOM      9  C   UNL     1       3.610   2.479  20.264  0.00  0.00    +0.000 A 
ATOM     10  C   UNL     1       4.710   1.538  19.945  0.00  0.00    +0.000 C 
ATOM     11  H   UNL     1       3.303   1.985  22.335  0.00  0.00    +0.000 HD
ENDBRANCH   1   4
BRANCH   1  12
ATOM     12  N   UNL     1       4.660   3.383  17.380  0.00  0.00    +0.000 N 
ATOM     13  H   UNL     1       4.546   2.733  16.602  0.00  0.00    +0.000 HD
BRANCH  12  21
ATOM     14  C   UNL     1       5.487   4.368  14.424  0.00  0.00    +0.000 C 
ATOM     15  C   UNL     1       5.904   4.887  15.749  0.00  0.00    +0.000 A 
ATOM     16  N   UNL     1       6.700   5.963  15.812  0.00  0.00    +0.000 NA
ATOM     17  N   UNL     1       6.837   6.199  17.127  0.00  0.00    +0.000 N 
ATOM     18  C   UNL     1       7.641   7.321  17.553  0.00  0.00    +0.000 C 
ATOM     19  C   UNL     1       6.141   5.318  17.918  0.00  0.00    +0.000 A 
ATOM     20  C   UNL     1       6.140   5.364  19.401  0.00  0.00    +0.000 C 
ATOM     21  C   UNL     1       5.531   4.439  17.044  0.00  0.00    +0.000 A 
ENDBRANCH  12  21
ENDBRANCH   1  12
TORSDOF 3
ENDMDL
MODEL 5
REMARK VINA RESULT:      -7.0      2.059      5.565
REMARK  Name = 
REMARK  8 active torsions:
REMARK  status: ('A' for Active; 'I' for Inactive)
REMARK    1  A    between atoms: C_1  and  C_2
REMARK    2  A    between atoms: N_4  and  C_5
REMARK    3  A    between atoms: C_6  and  C_7
REMARK    4  A    between atoms: C_8  and  N_9
REMARK    5  A    between atoms: N_9  and  S_10
REMARK    6  A    between atoms: S_10  and  C_13
REMARK    7  A    between atoms: C_14  and  C_15
REMARK    8  A    between atoms: C_18  and  C_19
REMARK                            x       y       z     vdW  Elec       q    Type
REMARK                         _______ _______ _______ _____ _____    ______ ____
ROOT
ATOM      1  S   UNL     1       4.634   5.924  18.134  0.00  0.00    +0.000 S 
ATOM      2  O   UNL     1       4.591   7.209  17.476  0.00  0.00    +0.000 OA
ATOM      3  O   UNL     1       4.822   5.779  19.562  0.00  0.00    +0.000 OA
ENDROOT
BRANCH   1   4
ATOM      4  C   UNL     1       6.011   5.139  17.442  0.00  0.00    +0.000 A 
ATOM      5  C   UNL     1       7.290   5.045  18.042  0.00  0.00    +0.000 A 
ATOM      6  C   UNL     1       7.772   5.561  19.349  0.00  0.00    +0.000 C 
ATOM      7  N   UNL     1       8.150   4.380  17.256  0.00  0.00    +0.000 NA
ATOM      8  N   UNL     1       7.423   4.033  16.186  0.00  0.00    +0.000 N 
ATOM      9  C   UNL     1       6.136   4.494  16.221  0.00  0.00    +0.000 A 
ATOM     10  C   UNL     1       5.193   4.245  15.105  0.00  0.00    +0.000 C 
ATOM     11  H   UNL     1       7.875   3.487  15.457  0.00  0.00    +0.000 HD
ENDBRANCH   1   4
BRANCH   1  12
ATOM     12  N   UNL     1       3.266   4.992  17.701  0.00  0.00    +0.000 N 
ATOM     13  H   UNL     1       3.510   4.558  16.810  0.00  0.00    +0.000 HD
BRANCH  12  21
ATOM     14  C   UNL     1       3.833   1.819  17.654  0.00  0.00    +0.000 C 
ATOM     15  C   UNL     1       3.073   2.634  18.633  0.00  0.00    +0.000 A 
ATOM     16  N   UNL     1       2.561   2.044  19.722  0.00  0.00    +0.000 NA
ATOM     17  N   UNL     1       1.997   3.049  20.411  0.00  0.00    +0.000 N 
ATOM     18  C   UNL     1       1.353   2.754  21.670  0.00  0.00    +0.000 C 
ATOM     19  C   UNL     1       2.142   4.275  19.811  0.00  0.00    +0.000 A 
ATOM     20  C   UNL     1       1.600   5.538  20.370  0.00  0.00    +0.000 C 
ATOM     21  C   UNL     1       2.831   4.033  18.637  0.00  0.00    +0.000 A 
ENDBRANCH  12  21
ENDBRANCH   1  12
TORSDOF 3
ENDMDL
MODEL 6
REMARK VINA RESULT:      -6.9      2.505      5.452
REMARK  Name = 
REMARK  8 active torsions:
REMARK  status: ('A' for Active; 'I' for Inactive)
REMARK    1  A    between atoms: C_1  and  C_2
REMARK    2  A    between atoms: N_4  and  C_5
REMARK    3  A    between atoms: C_6  and  C_7
REMARK    4  A    between atoms: C_8  and  N_9
REMARK    5  A    between atoms: N_9  and  S_10
REMARK    6  A    between atoms: S_10  and  C_13
REMARK    7  A    between atoms: C_14  and  C_15
REMARK    8  A    between atoms: C_18  and  C_19
REMARK                            x       y       z     vdW  Elec       q    Type
REMARK                         _______ _______ _______ _____ _____    ______ ____
ROOT
ATOM      1  S   UNL     1       4.422   5.813  17.519  0.00  0.00    +0.000 S 
ATOM      2  O   UNL     1       3.491   4.805  17.068  0.00  0.00    +0.000 OA
ATOM      3  O   UNL     1       4.425   7.166  17.005  0.00  0.00    +0.000 OA
ENDROOT
BRANCH   1   4
ATOM      4  C   UNL     1       5.973   5.186  17.078  0.00  0.00    +0.000 A 
ATOM      5  C   UNL     1       6.311   4.647  15.813  0.00  0.00    +0.000 A 
ATOM      6  C   UNL     1       5.480   4.482  14.593  0.00  0.00    +0.000 C 
ATOM      7  N   UNL     1       7.588   4.240  15.782  0.00  0.00    +0.000 NA
ATOM      8  N   UNL     1       8.063   4.540  16.998  0.00  0.00    +0.000 N 
ATOM      9  C   UNL     1       7.127   5.078  17.838  0.00  0.00    +0.000 A 
ATOM     10  C   UNL     1       7.457   5.434  19.239  0.00  0.00    +0.000 C 
ATOM     11  H   UNL     1       9.041   4.338  17.194  0.00  0.00    +0.000 HD
ENDBRANCH   1   4
BRANCH   1  12
ATOM     12  N   UNL     1       4.399   5.915  19.227  0.00  0.00    +0.000 N 
ATOM     13  H   UNL     1       4.443   6.913  19.435  0.00  0.00    +0.000 HD
BRANCH  12  21
ATOM     14  C   UNL     1       1.683   7.319  20.248  0.00  0.00    +0.000 C 
ATOM     15  C   UNL     1       2.112   5.902  20.338  0.00  0.00    +0.000 A 
ATOM     16  N   UNL     1       1.274   4.994  20.858  0.00  0.00    +0.000 NA
ATOM     17  N   UNL     1       1.933   3.829  20.742  0.00  0.00    +0.000 N 
ATOM     18  C   UNL     1       1.293   2.620  21.206  0.00  0.00    +0.000 C 
ATOM     19  C   UNL     1       3.164   3.952  20.147  0.00  0.00    +0.000 A 
ATOM     20  C   UNL     1       4.085   2.812  19.915  0.00  0.00    +0.000 C 
ATOM     21  C   UNL     1       3.314   5.300  19.884  0.00  0.00    +0.000 A 
ENDBRANCH  12  21
ENDBRANCH   1  12
TORSDOF 3
ENDMDL
MODEL 7
REMARK VINA RESULT:      -6.9      2.523      5.530
REMARK  Name = 
REMARK  8 active torsions:
REMARK  status: ('A' for Active; 'I' for Inactive)
REMARK    1  A    between atoms: C_1  and  C_2
REMARK    2  A    between atoms: N_4  and  C_5
REMARK    3  A    between atoms: C_6  and  C_7
REMARK    4  A    between atoms: C_8  and  N_9
REMARK    5  A    between atoms: N_9  and  S_10
REMARK    6  A    between atoms: S_10  and  C_13
REMARK    7  A    between atoms: C_14  and  C_15
REMARK    8  A    between atoms: C_18  and  C_19
REMARK                            x       y       z     vdW  Elec       q    Type
REMARK                         _______ _______ _______ _____ _____    ______ ____
ROOT
ATOM      1  S   UNL     1       4.486   5.833  17.607  0.00  0.00    +0.000 S 
ATOM      2  O   UNL     1       3.481   4.946  17.069  0.00  0.00    +0.000 OA
ATOM      3  O   UNL     1       4.576   7.231  17.244  0.00  0.00    +0.000 OA
ENDROOT
BRANCH   1   4
ATOM      4  C   UNL     1       5.983   5.156  17.067  0.00  0.00    +0.000 A 
ATOM      5  C   UNL     1       7.171   5.076  17.833  0.00  0.00    +0.000 A 
ATOM      6  C   UNL     1       7.442   5.522  19.224  0.00  0.00    +0.000 C 
ATOM      7  N   UNL     1       8.163   4.503  17.136  0.00  0.00    +0.000 NA
ATOM      8  N   UNL     1       7.609   4.199  15.955  0.00  0.00    +0.000 N 
ATOM      9  C   UNL     1       6.306   4.602  15.838  0.00  0.00    +0.000 A 
ATOM     10  C   UNL     1       5.539   4.390  14.588  0.00  0.00    +0.000 C 
ATOM     11  H   UNL     1       8.183   3.723  15.264  0.00  0.00    +0.000 HD
ENDBRANCH   1   4
BRANCH   1  12
ATOM     12  N   UNL     1       4.495   5.748  19.316  0.00  0.00    +0.000 N 
ATOM     13  H   UNL     1       4.651   6.706  19.631  0.00  0.00    +0.000 HD
BRANCH  12  21
ATOM     14  C   UNL     1       1.779   7.266  20.159  0.00  0.00    +0.000 C 
ATOM     15  C   UNL     1       2.153   5.838  20.304  0.00  0.00    +0.000 A 
ATOM     16  N   UNL     1       1.258   4.972  20.798  0.00  0.00    +0.000 NA
ATOM     17  N   UNL     1       1.881   3.783  20.743  0.00  0.00    +0.000 N 
ATOM     18  C   UNL     1       1.176   2.607  21.199  0.00  0.00    +0.000 C 
ATOM     19  C   UNL     1       3.145   3.850  20.213  0.00  0.00    +0.000 A 
ATOM     20  C   UNL     1       4.037   2.675  20.055  0.00  0.00    +0.000 C 
ATOM     21  C   UNL     1       3.356   5.185  19.928  0.00  0.00    +0.000 A 
ENDBRANCH  12  21
ENDBRANCH   1  12
TORSDOF 3
ENDMDL
MODEL 8
REMARK VINA RESULT:      -6.8      2.193      2.450
REMARK  Name = 
REMARK  8 active torsions:
REMARK  status: ('A' for Active; 'I' for Inactive)
REMARK    1  A    between atoms: C_1  and  C_2
REMARK    2  A    between atoms: N_4  and  C_5
REMARK    3  A    between atoms: C_6  and  C_7
REMARK    4  A    between atoms: C_8  and  N_9
REMARK    5  A    between atoms: N_9  and  S_10
REMARK    6  A    between atoms: S_10  and  C_13
REMARK    7  A    between atoms: C_14  and  C_15
REMARK    8  A    between atoms: C_18  and  C_19
REMARK                            x       y       z     vdW  Elec       q    Type
REMARK                         _______ _______ _______ _____ _____    ______ ____
ROOT
ATOM      1  S   UNL     1       3.340   3.338  17.737  0.00  0.00    +0.000 S 
ATOM      2  O   UNL     1       2.862   4.039  16.568  0.00  0.00    +0.000 OA
ATOM      3  O   UNL     1       2.832   2.043  18.139  0.00  0.00    +0.000 OA
ENDROOT
BRANCH   1   4
ATOM      4  C   UNL     1       2.934   4.382  19.054  0.00  0.00    +0.000 A 
ATOM      5  C   UNL     1       2.663   3.964  20.380  0.00  0.00    +0.000 A 
ATOM      6  C   UNL     1       2.652   2.600  20.967  0.00  0.00    +0.000 C 
ATOM      7  N   UNL     1       2.375   5.009  21.171  0.00  0.00    +0.000 NA
ATOM      8  N   UNL     1       2.488   6.075  20.369  0.00  0.00    +0.000 N 
ATOM      9  C   UNL     1       2.786   5.761  19.072  0.00  0.00    +0.000 A 
ATOM     10  C   UNL     1       2.909   6.807  18.030  0.00  0.00    +0.000 C 
ATOM     11  H   UNL     1       2.336   6.997  20.773  0.00  0.00    +0.000 HD
ENDBRANCH   1   4
BRANCH   1  12
ATOM     12  N   UNL     1       5.047   3.229  17.702  0.00  0.00    +0.000 N 
ATOM     13  H   UNL     1       5.251   2.415  17.121  0.00  0.00    +0.000 HD
BRANCH  12  21
ATOM     14  C   UNL     1       5.496   4.171  14.653  0.00  0.00    +0.000 C 
ATOM     15  C   UNL     1       5.951   4.798  15.917  0.00  0.00    +0.000 A 
ATOM     16  N   UNL     1       6.605   5.967  15.872  0.00  0.00    +0.000 NA
ATOM     17  N   UNL     1       6.818   6.278  17.161  0.00  0.00    +0.000 N 
ATOM     18  C   UNL     1       7.504   7.510  17.474  0.00  0.00    +0.000 C 
ATOM     19  C   UNL     1       6.308   5.356  18.040  0.00  0.00    +0.000 A 
ATOM     20  C   UNL     1       6.422   5.469  19.515  0.00  0.00    +0.000 C 
ATOM     21  C   UNL     1       5.745   4.368  17.254  0.00  0.00    +0.000 A 
ENDBRANCH  12  21
ENDBRANCH   1  12
TORSDOF 3
ENDMDL
MODEL 9
REMARK VINA RESULT:      -6.8      2.002      3.415
REMARK  Name = 
REMARK  8 active torsions:
REMARK  status: ('A' for Active; 'I' for Inactive)
REMARK    1  A    between atoms: C_1  and  C_2
REMARK    2  A    between atoms: N_4  and  C_5
REMARK    3  A    between atoms: C_6  and  C_7
REMARK    4  A    between atoms: C_8  and  N_9
REMARK    5  A    between atoms: N_9  and  S_10
REMARK    6  A    between atoms: S_10  and  C_13
REMARK    7  A    between atoms: C_14  and  C_15
REMARK    8  A    between atoms: C_18  and  C_19
REMARK                            x       y       z     vdW  Elec       q    Type
REMARK                         _______ _______ _______ _____ _____    ______ ____
ROOT
ATOM      1  S   UNL     1       4.029   4.911  18.607  0.00  0.00    +0.000 S 
ATOM      2  O   UNL     1       4.395   5.650  19.793  0.00  0.00    +0.000 OA
ATOM      3  O   UNL     1       3.380   5.524  17.468  0.00  0.00    +0.000 OA
ENDROOT
BRANCH   1   4
ATOM      4  C   UNL     1       2.884   3.743  19.171  0.00  0.00    +0.000 A 
ATOM      5  C   UNL     1       1.802   4.009  20.043  0.00  0.00    +0.000 A 
ATOM      6  C   UNL     1       1.377   5.285  20.675  0.00  0.00    +0.000 C 
ATOM      7  N   UNL     1       1.097   2.897  20.300  0.00  0.00    +0.000 NA
ATOM      8  N   UNL     1       1.705   1.945  19.581  0.00  0.00    +0.000 N 
ATOM      9  C   UNL     1       2.812   2.383  18.908  0.00  0.00    +0.000 A 
ATOM     10  C   UNL     1       3.638   1.462  18.092  0.00  0.00    +0.000 C 
ATOM     11  H   UNL     1       1.315   1.005  19.604  0.00  0.00    +0.000 HD
ENDBRANCH   1   4
BRANCH   1  12
ATOM     12  N   UNL     1       5.376   4.036  18.017  0.00  0.00    +0.000 N 
ATOM     13  H   UNL     1       5.003   3.129  17.735  0.00  0.00    +0.000 HD
BRANCH  12  21
ATOM     14  C   UNL     1       7.519   6.430  18.269  0.00  0.00    +0.000 C 
ATOM     15  C   UNL     1       7.061   5.688  17.069  0.00  0.00    +0.000 A 
ATOM     16  N   UNL     1       7.616   5.955  15.880  0.00  0.00    +0.000 NA
ATOM     17  N   UNL     1       7.031   5.089  15.037  0.00  0.00    +0.000 N 
ATOM     18  C   UNL     1       7.419   5.101  13.646  0.00  0.00    +0.000 C 
ATOM     19  C   UNL     1       6.125   4.257  15.647  0.00  0.00    +0.000 A 
ATOM     20  C   UNL     1       5.341   3.221  14.930  0.00  0.00    +0.000 C 
ATOM     21  C   UNL     1       6.114   4.635  16.976  0.00  0.00    +0.000 A 
ENDBRANCH  12  21
ENDBRANCH   1  12
TORSDOF 3
ENDMDL
