MODEL 1
REMARK VINA RESULT:      -9.5      0.000      0.000
REMARK  Name = 
REMARK  7 active torsions:
REMARK  status: ('A' for Active; 'I' for Inactive)
REMARK    1  A    between atoms: C_1  and  C_2
REMARK    2  A    between atoms: C_2  and  C_3
REMARK    3  A    between atoms: C_2  and  N_16
REMARK    4  A    between atoms: N_19  and  C_20
REMARK    5  A    between atoms: C_20  and  C_21
REMARK    6  A    between atoms: C_21  and  C_23
REMARK    7  A    between atoms: C_26  and  O_27
REMARK                            x       y       z     vdW  Elec       q    Type
REMARK                         _______ _______ _______ _____ _____    ______ ____
ROOT
ATOM      1  N   UNL     1       2.594   6.502  18.999  0.00  0.00    +0.000 N 
ATOM      2  C   UNL     1       2.076   6.921  20.218  0.00  0.00    +0.000 A 
ATOM      3  C   UNL     1       1.623   8.198  20.046  0.00  0.00    +0.000 A 
ATOM      4  N   UNL     1       1.896   8.545  18.729  0.00  0.00    +0.000 N 
ATOM      5  C   UNL     1       2.471   7.500  18.106  0.00  0.00    +0.000 A 
ENDROOT
BRANCH   1   7
ATOM      6  C   UNL     1       2.014   4.267  18.136  0.00  0.00    +0.000 C 
ATOM      7  C   UNL     1       3.119   5.151  18.717  0.00  0.00    +0.000 C 
BRANCH   7   8
ATOM      8  C   UNL     1       4.368   5.228  17.841  0.00  0.00    +0.000 A 
ATOM      9  C   UNL     1       5.526   5.914  18.263  0.00  0.00    +0.000 A 
ATOM     10  C   UNL     1       6.635   6.094  17.433  0.00  0.00    +0.000 A 
ATOM     11  C   UNL     1       6.552   5.538  16.168  0.00  0.00    +0.000 A 
ATOM     12  O   UNL     1       7.517   5.636  15.220  0.00  0.00    +0.000 OA
ATOM     13  C   UNL     1       7.073   4.950  14.136  0.00  0.00    +0.000 A 
ATOM     14  C   UNL     1       7.771   4.813  12.942  0.00  0.00    +0.000 A 
ATOM     15  C   UNL     1       7.158   4.048  11.947  0.00  0.00    +0.000 A 
ATOM     16  C   UNL     1       5.905   3.463  12.157  0.00  0.00    +0.000 A 
ATOM     17  C   UNL     1       5.217   3.632  13.367  0.00  0.00    +0.000 A 
ATOM     18  C   UNL     1       5.818   4.399  14.383  0.00  0.00    +0.000 A 
ATOM     19  C   UNL     1       5.466   4.807  15.704  0.00  0.00    +0.000 A 
ATOM     20  C   UNL     1       4.349   4.648  16.552  0.00  0.00    +0.000 A 
ENDBRANCH   7   8
ENDBRANCH   1   7
BRANCH   4  21
ATOM     21  C   UNL     1       1.605   9.860  18.103  0.00  0.00    +0.000 C 
BRANCH  21  22
ATOM     22  C   UNL     1       0.682  10.749  18.924  0.00  0.00    +0.000 C 
ATOM     23  O   UNL     1       1.086  11.406  19.891  0.00  0.00    +0.000 OA
BRANCH  22  24
ATOM     24  C   UNL     1      -0.763  10.798  18.575  0.00  0.00    +0.000 A 
ATOM     25  C   UNL     1      -1.636  11.718  19.168  0.00  0.00    +0.000 A 
ATOM     26  C   UNL     1      -2.973  11.761  18.772  0.00  0.00    +0.000 A 
ATOM     27  C   UNL     1      -3.427  10.886  17.789  0.00  0.00    +0.000 A 
ATOM     28  C   UNL     1      -2.570   9.967  17.195  0.00  0.00    +0.000 A 
ATOM     29  C   UNL     1      -1.237   9.920  17.589  0.00  0.00    +0.000 A 
BRANCH  27  30
ATOM     30  O   UNL     1      -4.717  10.908  17.358  0.00  0.00    +0.000 OA
ATOM     31  H   UNL     1      -4.876  11.722  16.854  0.00  0.00    +0.000 HD
ENDBRANCH  27  30
ENDBRANCH  22  24
ENDBRANCH  21  22
ENDBRANCH   4  21
TORSDOF 6
ENDMDL
MODEL 2
REMARK VINA RESULT:      -9.4      0.514      1.253
REMARK  Name = 
REMARK  7 active torsions:
REMARK  status: ('A' for Active; 'I' for Inactive)
REMARK    1  A    between atoms: C_1  and  C_2
REMARK    2  A    between atoms: C_2  and  C_3
REMARK    3  A    between atoms: C_2  and  N_16
REMARK    4  A    between atoms: N_19  and  C_20
REMARK    5  A    between atoms: C_20  and  C_21
REMARK    6  A    between atoms: C_21  and  C_23
REMARK    7  A    between atoms: C_26  and  O_27
REMARK                            x       y       z     vdW  Elec       q    Type
REMARK                         _______ _______ _______ _____ _____    ______ ____
ROOT
ATOM      1  N   UNL     1       2.895   6.696  18.833  0.00  0.00    +0.000 N 
ATOM      2  C   UNL     1       2.932   7.592  17.771  0.00  0.00    +0.000 A 
ATOM      3  C   UNL     1       2.199   8.684  18.140  0.00  0.00    +0.000 A 
ATOM      4  N   UNL     1       1.705   8.424  19.412  0.00  0.00    +0.000 N 
ATOM      5  C   UNL     1       2.148   7.221  19.821  0.00  0.00    +0.000 A 
ENDROOT
BRANCH   1   7
ATOM      6  C   UNL     1       2.653   4.247  18.697  0.00  0.00    +0.000 C 
ATOM      7  C   UNL     1       3.623   5.414  18.890  0.00  0.00    +0.000 C 
BRANCH   7   8
ATOM      8  C   UNL     1       4.791   5.409  17.906  0.00  0.00    +0.000 A 
ATOM      9  C   UNL     1       6.007   6.064  18.197  0.00  0.00    +0.000 A 
ATOM     10  C   UNL     1       7.043   6.170  17.268  0.00  0.00    +0.000 A 
ATOM     11  C   UNL     1       6.828   5.572  16.038  0.00  0.00    +0.000 A 
ATOM     12  O   UNL     1       7.707   5.597  15.005  0.00  0.00    +0.000 OA
ATOM     13  C   UNL     1       7.144   4.891  13.992  0.00  0.00    +0.000 A 
ATOM     14  C   UNL     1       7.728   4.683  12.747  0.00  0.00    +0.000 A 
ATOM     15  C   UNL     1       7.001   3.908  11.842  0.00  0.00    +0.000 A 
ATOM     16  C   UNL     1       5.751   3.381  12.183  0.00  0.00    +0.000 A 
ATOM     17  C   UNL     1       5.180   3.621  13.441  0.00  0.00    +0.000 A 
ATOM     18  C   UNL     1       5.897   4.399  14.369  0.00  0.00    +0.000 A 
ATOM     19  C   UNL     1       5.679   4.868  15.699  0.00  0.00    +0.000 A 
ATOM     20  C   UNL     1       4.637   4.784  16.647  0.00  0.00    +0.000 A 
ENDBRANCH   7   8
ENDBRANCH   1   7
BRANCH   4  21
ATOM     21  C   UNL     1       0.823   9.325  20.198  0.00  0.00    +0.000 C 
BRANCH  21  22
ATOM     22  C   UNL     1       0.485  10.631  19.495  0.00  0.00    +0.000 C 
ATOM     23  O   UNL     1       1.240  11.611  19.521  0.00  0.00    +0.000 OA
BRANCH  22  24
ATOM     24  C   UNL     1      -0.817  10.746  18.783  0.00  0.00    +0.000 A 
ATOM     25  C   UNL     1      -1.121   9.960  17.666  0.00  0.00    +0.000 A 
ATOM     26  C   UNL     1      -2.374  10.067  17.062  0.00  0.00    +0.000 A 
ATOM     27  C   UNL     1      -3.312  10.957  17.579  0.00  0.00    +0.000 A 
ATOM     28  C   UNL     1      -3.021  11.744  18.686  0.00  0.00    +0.000 A 
ATOM     29  C   UNL     1      -1.771  11.641  19.289  0.00  0.00    +0.000 A 
BRANCH  27  30
ATOM     30  O   UNL     1      -4.553  11.078  17.034  0.00  0.00    +0.000 OA
ATOM     31  H   UNL     1      -4.920  10.195  16.867  0.00  0.00    +0.000 HD
ENDBRANCH  27  30
ENDBRANCH  22  24
ENDBRANCH  21  22
ENDBRANCH   4  21
TORSDOF 6
ENDMDL
MODEL 3
REMARK VINA RESULT:      -9.2      1.580      2.103
REMARK  Name = 
REMARK  7 active torsions:
REMARK  status: ('A' for Active; 'I' for Inactive)
REMARK    1  A    between atoms: C_1  and  C_2
REMARK    2  A    between atoms: C_2  and  C_3
REMARK    3  A    between atoms: C_2  and  N_16
REMARK    4  A    between atoms: N_19  and  C_20
REMARK    5  A    between atoms: C_20  and  C_21
REMARK    6  A    between atoms: C_21  and  C_23
REMARK    7  A    between atoms: C_26  and  O_27
REMARK                            x       y       z     vdW  Elec       q    Type
REMARK                         _______ _______ _______ _____ _____    ______ ____
ROOT
ATOM      1  N   UNL     1       2.640   6.099  19.082  0.00  0.00    +0.000 N 
ATOM      2  C   UNL     1       2.442   7.163  18.210  0.00  0.00    +0.000 A 
ATOM      3  C   UNL     1       2.004   8.219  18.956  0.00  0.00    +0.000 A 
ATOM      4  N   UNL     1       1.917   7.774  20.269  0.00  0.00    +0.000 N 
ATOM      5  C   UNL     1       2.320   6.491  20.328  0.00  0.00    +0.000 A 
ENDROOT
BRANCH   1   7
ATOM      6  C   UNL     1       2.096   3.918  18.071  0.00  0.00    +0.000 C 
ATOM      7  C   UNL     1       3.188   4.781  18.706  0.00  0.00    +0.000 C 
BRANCH   7   8
ATOM      8  C   UNL     1       4.431   4.940  17.831  0.00  0.00    +0.000 A 
ATOM      9  C   UNL     1       5.567   5.644  18.282  0.00  0.00    +0.000 A 
ATOM     10  C   UNL     1       6.666   5.899  17.459  0.00  0.00    +0.000 A 
ATOM     11  C   UNL     1       6.596   5.400  16.170  0.00  0.00    +0.000 A 
ATOM     12  O   UNL     1       7.553   5.574  15.224  0.00  0.00    +0.000 OA
ATOM     13  C   UNL     1       7.129   4.925  14.110  0.00  0.00    +0.000 A 
ATOM     14  C   UNL     1       7.826   4.867  12.910  0.00  0.00    +0.000 A 
ATOM     15  C   UNL     1       7.234   4.130  11.882  0.00  0.00    +0.000 A 
ATOM     16  C   UNL     1       6.002   3.495  12.067  0.00  0.00    +0.000 A 
ATOM     17  C   UNL     1       5.314   3.584  13.285  0.00  0.00    +0.000 A 
ATOM     18  C   UNL     1       5.894   4.322  14.335  0.00  0.00    +0.000 A 
ATOM     19  C   UNL     1       5.533   4.656  15.674  0.00  0.00    +0.000 A 
ATOM     20  C   UNL     1       4.426   4.420  16.516  0.00  0.00    +0.000 A 
ENDBRANCH   7   8
ENDBRANCH   1   7
BRANCH   4  21
ATOM     21  C   UNL     1       1.450   8.579  21.427  0.00  0.00    +0.000 C 
BRANCH  21  22
ATOM     22  C   UNL     1      -0.041   8.882  21.411  0.00  0.00    +0.000 C 
ATOM     23  O   UNL     1      -0.891   8.040  21.726  0.00  0.00    +0.000 OA
BRANCH  22  24
ATOM     24  C   UNL     1      -0.494  10.227  20.965  0.00  0.00    +0.000 A 
ATOM     25  C   UNL     1      -0.608  11.302  21.854  0.00  0.00    +0.000 A 
ATOM     26  C   UNL     1      -0.988  12.558  21.380  0.00  0.00    +0.000 A 
ATOM     27  C   UNL     1      -1.252  12.730  20.024  0.00  0.00    +0.000 A 
ATOM     28  C   UNL     1      -1.145  11.670  19.132  0.00  0.00    +0.000 A 
ATOM     29  C   UNL     1      -0.767  10.416  19.601  0.00  0.00    +0.000 A 
BRANCH  27  30
ATOM     30  O   UNL     1      -1.605  13.941  19.516  0.00  0.00    +0.000 OA
ATOM     31  H   UNL     1      -2.502  13.889  19.148  0.00  0.00    +0.000 HD
ENDBRANCH  27  30
ENDBRANCH  22  24
ENDBRANCH  21  22
ENDBRANCH   4  21
TORSDOF 6
ENDMDL
MODEL 4
REMARK VINA RESULT:      -9.2      0.960      1.382
REMARK  Name = 
REMARK  7 active torsions:
REMARK  status: ('A' for Active; 'I' for Inactive)
REMARK    1  A    between atoms: C_1  and  C_2
REMARK    2  A    between atoms: C_2  and  C_3
REMARK    3  A    between atoms: C_2  and  N_16
REMARK    4  A    between atoms: N_19  and  C_20
REMARK    5  A    between atoms: C_20  and  C_21
REMARK    6  A    between atoms: C_21  and  C_23
REMARK    7  A    between atoms: C_26  and  O_27
REMARK                            x       y       z     vdW  Elec       q    Type
REMARK                         _______ _______ _______ _____ _____    ______ ____
ROOT
ATOM      1  N   UNL     1       2.462   5.589  19.358  0.00  0.00    +0.000 N 
ATOM      2  C   UNL     1       1.985   5.582  20.663  0.00  0.00    +0.000 A 
ATOM      3  C   UNL     1       1.619   6.862  20.966  0.00  0.00    +0.000 A 
ATOM      4  N   UNL     1       1.903   7.635  19.847  0.00  0.00    +0.000 N 
ATOM      5  C   UNL     1       2.400   6.844  18.878  0.00  0.00    +0.000 A 
ENDROOT
BRANCH   1   7
ATOM      6  C   UNL     1       1.739   3.876  17.741  0.00  0.00    +0.000 C 
ATOM      7  C   UNL     1       2.891   4.396  18.602  0.00  0.00    +0.000 C 
BRANCH   7   8
ATOM      8  C   UNL     1       4.166   4.685  17.812  0.00  0.00    +0.000 A 
ATOM      9  C   UNL     1       5.210   5.464  18.352  0.00  0.00    +0.000 A 
ATOM     10  C   UNL     1       6.331   5.836  17.608  0.00  0.00    +0.000 A 
ATOM     11  C   UNL     1       6.381   5.376  16.303  0.00  0.00    +0.000 A 
ATOM     12  O   UNL     1       7.375   5.659  15.424  0.00  0.00    +0.000 OA
ATOM     13  C   UNL     1       7.074   5.015  14.268  0.00  0.00    +0.000 A 
ATOM     14  C   UNL     1       7.845   5.054  13.112  0.00  0.00    +0.000 A 
ATOM     15  C   UNL     1       7.379   4.306  12.030  0.00  0.00    +0.000 A 
ATOM     16  C   UNL     1       6.196   3.566  12.119  0.00  0.00    +0.000 A 
ATOM     17  C   UNL     1       5.430   3.558  13.294  0.00  0.00    +0.000 A 
ATOM     18  C   UNL     1       5.882   4.306  14.398  0.00  0.00    +0.000 A 
ATOM     19  C   UNL     1       5.416   4.564  15.721  0.00  0.00    +0.000 A 
ATOM     20  C   UNL     1       4.283   4.211  16.485  0.00  0.00    +0.000 A 
ENDBRANCH   7   8
ENDBRANCH   1   7
BRANCH   4  21
ATOM     21  C   UNL     1       1.698   9.102  19.734  0.00  0.00    +0.000 C 
BRANCH  21  22
ATOM     22  C   UNL     1       1.131   9.548  18.394  0.00  0.00    +0.000 C 
ATOM     23  O   UNL     1       1.747   9.400  17.332  0.00  0.00    +0.000 OA
BRANCH  22  24
ATOM     24  C   UNL     1      -0.196  10.220  18.366  0.00  0.00    +0.000 A 
ATOM     25  C   UNL     1      -1.158   9.917  17.396  0.00  0.00    +0.000 A 
ATOM     26  C   UNL     1      -2.408  10.537  17.440  0.00  0.00    +0.000 A 
ATOM     27  C   UNL     1      -2.686  11.453  18.451  0.00  0.00    +0.000 A 
ATOM     28  C   UNL     1      -1.738  11.763  19.418  0.00  0.00    +0.000 A 
ATOM     29  C   UNL     1      -0.491  11.149  19.376  0.00  0.00    +0.000 A 
BRANCH  27  30
ATOM     30  O   UNL     1      -3.898  12.064  18.543  0.00  0.00    +0.000 OA
ATOM     31  H   UNL     1      -4.421  11.867  17.749  0.00  0.00    +0.000 HD
ENDBRANCH  27  30
ENDBRANCH  22  24
ENDBRANCH  21  22
ENDBRANCH   4  21
TORSDOF 6
ENDMDL
MODEL 5
REMARK VINA RESULT:      -9.0      1.480      1.948
REMARK  Name = 
REMARK  7 active torsions:
REMARK  status: ('A' for Active; 'I' for Inactive)
REMARK    1  A    between atoms: C_1  and  C_2
REMARK    2  A    between atoms: C_2  and  C_3
REMARK    3  A    between atoms: C_2  and  N_16
REMARK    4  A    between atoms: N_19  and  C_20
REMARK    5  A    between atoms: C_20  and  C_21
REMARK    6  A    between atoms: C_21  and  C_23
REMARK    7  A    between atoms: C_26  and  O_27
REMARK                            x       y       z     vdW  Elec       q    Type
REMARK                         _______ _______ _______ _____ _____    ______ ____
ROOT
ATOM      1  N   UNL     1       3.091   5.798  19.365  0.00  0.00    +0.000 N 
ATOM      2  C   UNL     1       3.073   6.893  18.510  0.00  0.00    +0.000 A 
ATOM      3  C   UNL     1       2.246   7.826  19.067  0.00  0.00    +0.000 A 
ATOM      4  N   UNL     1       1.752   7.273  20.242  0.00  0.00    +0.000 N 
ATOM      5  C   UNL     1       2.287   6.050  20.414  0.00  0.00    +0.000 A 
ENDROOT
BRANCH   1   7
ATOM      6  C   UNL     1       3.038   3.387  18.858  0.00  0.00    +0.000 C 
ATOM      7  C   UNL     1       3.922   4.591  19.186  0.00  0.00    +0.000 C 
BRANCH   7   8
ATOM      8  C   UNL     1       5.026   4.840  18.160  0.00  0.00    +0.000 A 
ATOM      9  C   UNL     1       6.154   5.631  18.464  0.00  0.00    +0.000 A 
ATOM     10  C   UNL     1       7.115   5.965  17.508  0.00  0.00    +0.000 A 
ATOM     11  C   UNL     1       6.918   5.457  16.236  0.00  0.00    +0.000 A 
ATOM     12  O   UNL     1       7.729   5.699  15.176  0.00  0.00    +0.000 OA
ATOM     13  C   UNL     1       7.215   5.015  14.122  0.00  0.00    +0.000 A 
ATOM     14  C   UNL     1       7.754   5.005  12.841  0.00  0.00    +0.000 A 
ATOM     15  C   UNL     1       7.093   4.220  11.895  0.00  0.00    +0.000 A 
ATOM     16  C   UNL     1       5.947   3.494  12.233  0.00  0.00    +0.000 A 
ATOM     17  C   UNL     1       5.416   3.536  13.530  0.00  0.00    +0.000 A 
ATOM     18  C   UNL     1       6.069   4.320  14.501  0.00  0.00    +0.000 A 
ATOM     19  C   UNL     1       5.860   4.632  15.877  0.00  0.00    +0.000 A 
ATOM     20  C   UNL     1       4.891   4.316  16.854  0.00  0.00    +0.000 A 
ENDBRANCH   7   8
ENDBRANCH   1   7
BRANCH   4  21
ATOM     21  C   UNL     1       0.786   7.922  21.164  0.00  0.00    +0.000 C 
BRANCH  21  22
ATOM     22  C   UNL     1       1.046   9.404  21.394  0.00  0.00    +0.000 C 
ATOM     23  O   UNL     1       1.736   9.816  22.334  0.00  0.00    +0.000 OA
BRANCH  22  24
ATOM     24  C   UNL     1       0.416  10.393  20.477  0.00  0.00    +0.000 A 
ATOM     25  C   UNL     1       0.810  11.736  20.456  0.00  0.00    +0.000 A 
ATOM     26  C   UNL     1       0.226  12.616  19.544  0.00  0.00    +0.000 A 
ATOM     27  C   UNL     1      -0.744  12.148  18.662  0.00  0.00    +0.000 A 
ATOM     28  C   UNL     1      -1.144  10.818  18.675  0.00  0.00    +0.000 A 
ATOM     29  C   UNL     1      -0.566   9.938  19.585  0.00  0.00    +0.000 A 
BRANCH  27  30
ATOM     30  O   UNL     1      -1.323  12.966  17.743  0.00  0.00    +0.000 OA
ATOM     31  H   UNL     1      -0.989  12.747  16.858  0.00  0.00    +0.000 HD
ENDBRANCH  27  30
ENDBRANCH  22  24
ENDBRANCH  21  22
ENDBRANCH   4  21
TORSDOF 6
ENDMDL
MODEL 6
REMARK VINA RESULT:      -9.0      1.557      2.221
REMARK  Name = 
REMARK  7 active torsions:
REMARK  status: ('A' for Active; 'I' for Inactive)
REMARK    1  A    between atoms: C_1  and  C_2
REMARK    2  A    between atoms: C_2  and  C_3
REMARK    3  A    between atoms: C_2  and  N_16
REMARK    4  A    between atoms: N_19  and  C_20
REMARK    5  A    between atoms: C_20  and  C_21
REMARK    6  A    between atoms: C_21  and  C_23
REMARK    7  A    between atoms: C_26  and  O_27
REMARK                            x       y       z     vdW  Elec       q    Type
REMARK                         _______ _______ _______ _____ _____    ______ ____
ROOT
ATOM      1  N   UNL     1       2.933   5.569  19.404  0.00  0.00    +0.000 N 
ATOM      2  C   UNL     1       2.999   6.746  18.670  0.00  0.00    +0.000 A 
ATOM      3  C   UNL     1       2.209   7.662  19.306  0.00  0.00    +0.000 A 
ATOM      4  N   UNL     1       1.654   7.018  20.404  0.00  0.00    +0.000 N 
ATOM      5  C   UNL     1       2.115   5.754  20.455  0.00  0.00    +0.000 A 
ENDROOT
BRANCH   1   7
ATOM      6  C   UNL     1       2.762   3.234  18.633  0.00  0.00    +0.000 C 
ATOM      7  C   UNL     1       3.701   4.341  19.114  0.00  0.00    +0.000 C 
BRANCH   7   8
ATOM      8  C   UNL     1       4.849   4.635  18.150  0.00  0.00    +0.000 A 
ATOM      9  C   UNL     1       5.965   5.404  18.542  0.00  0.00    +0.000 A 
ATOM     10  C   UNL     1       6.968   5.780  17.646  0.00  0.00    +0.000 A 
ATOM     11  C   UNL     1       6.825   5.335  16.343  0.00  0.00    +0.000 A 
ATOM     12  O   UNL     1       7.682   5.625  15.332  0.00  0.00    +0.000 OA
ATOM     13  C   UNL     1       7.213   4.996  14.225  0.00  0.00    +0.000 A 
ATOM     14  C   UNL     1       7.807   5.046  12.970  0.00  0.00    +0.000 A 
ATOM     15  C   UNL     1       7.185   4.312  11.958  0.00  0.00    +0.000 A 
ATOM     16  C   UNL     1       6.023   3.576  12.210  0.00  0.00    +0.000 A 
ATOM     17  C   UNL     1       5.437   3.557  13.484  0.00  0.00    +0.000 A 
ATOM     18  C   UNL     1       6.049   4.290  14.519  0.00  0.00    +0.000 A 
ATOM     19  C   UNL     1       5.781   4.534  15.898  0.00  0.00    +0.000 A 
ATOM     20  C   UNL     1       4.770   4.176  16.815  0.00  0.00    +0.000 A 
ENDBRANCH   7   8
ENDBRANCH   1   7
BRANCH   4  21
ATOM     21  C   UNL     1       0.699   7.620  21.369  0.00  0.00    +0.000 C 
BRANCH  21  22
ATOM     22  C   UNL     1       0.968   9.087  21.675  0.00  0.00    +0.000 C 
ATOM     23  O   UNL     1       1.887   9.449  22.419  0.00  0.00    +0.000 OA
BRANCH  22  24
ATOM     24  C   UNL     1       0.070  10.118  21.089  0.00  0.00    +0.000 A 
ATOM     25  C   UNL     1      -0.330  10.075  19.748  0.00  0.00    +0.000 A 
ATOM     26  C   UNL     1      -1.214  11.035  19.256  0.00  0.00    +0.000 A 
ATOM     27  C   UNL     1      -1.691  12.030  20.106  0.00  0.00    +0.000 A 
ATOM     28  C   UNL     1      -1.300  12.084  21.437  0.00  0.00    +0.000 A 
ATOM     29  C   UNL     1      -0.417  11.129  21.931  0.00  0.00    +0.000 A 
BRANCH  27  30
ATOM     30  O   UNL     1      -2.571  12.973  19.673  0.00  0.00    +0.000 OA
ATOM     31  H   UNL     1      -2.838  12.773  18.761  0.00  0.00    +0.000 HD
ENDBRANCH  27  30
ENDBRANCH  22  24
ENDBRANCH  21  22
ENDBRANCH   4  21
TORSDOF 6
ENDMDL
MODEL 7
REMARK VINA RESULT:      -8.8      1.512      2.438
REMARK  Name = 
REMARK  7 active torsions:
REMARK  status: ('A' for Active; 'I' for Inactive)
REMARK    1  A    between atoms: C_1  and  C_2
REMARK    2  A    between atoms: C_2  and  C_3
REMARK    3  A    between atoms: C_2  and  N_16
REMARK    4  A    between atoms: N_19  and  C_20
REMARK    5  A    between atoms: C_20  and  C_21
REMARK    6  A    between atoms: C_21  and  C_23
REMARK    7  A    between atoms: C_26  and  O_27
REMARK                            x       y       z     vdW  Elec       q    Type
REMARK                         _______ _______ _______ _____ _____    ______ ____
ROOT
ATOM      1  N   UNL     1       2.527   6.504  18.967  0.00  0.00    +0.000 N 
ATOM      2  C   UNL     1       2.116   6.891  20.236  0.00  0.00    +0.000 A 
ATOM      3  C   UNL     1       1.666   8.177  20.140  0.00  0.00    +0.000 A 
ATOM      4  N   UNL     1       1.834   8.562  18.816  0.00  0.00    +0.000 N 
ATOM      5  C   UNL     1       2.345   7.531  18.117  0.00  0.00    +0.000 A 
ENDROOT
BRANCH   1   7
ATOM      6  C   UNL     1       1.888   4.354  17.947  0.00  0.00    +0.000 C 
ATOM      7  C   UNL     1       3.011   5.158  18.602  0.00  0.00    +0.000 C 
BRANCH   7   8
ATOM      8  C   UNL     1       4.277   5.249  17.752  0.00  0.00    +0.000 A 
ATOM      9  C   UNL     1       5.411   5.968  18.188  0.00  0.00    +0.000 A 
ATOM     10  C   UNL     1       6.533   6.160  17.380  0.00  0.00    +0.000 A 
ATOM     11  C   UNL     1       6.489   5.583  16.122  0.00  0.00    +0.000 A 
ATOM     12  O   UNL     1       7.472   5.688  15.193  0.00  0.00    +0.000 OA
ATOM     13  C   UNL     1       7.067   4.977  14.110  0.00  0.00    +0.000 A 
ATOM     14  C   UNL     1       7.794   4.837  12.933  0.00  0.00    +0.000 A 
ATOM     15  C   UNL     1       7.219   4.045  11.938  0.00  0.00    +0.000 A 
ATOM     16  C   UNL     1       5.975   3.436  12.130  0.00  0.00    +0.000 A 
ATOM     17  C   UNL     1       5.257   3.607  13.322  0.00  0.00    +0.000 A 
ATOM     18  C   UNL     1       5.820   4.402  14.339  0.00  0.00    +0.000 A 
ATOM     19  C   UNL     1       5.430   4.821  15.645  0.00  0.00    +0.000 A 
ATOM     20  C   UNL     1       4.299   4.650  16.472  0.00  0.00    +0.000 A 
ENDBRANCH   7   8
ENDBRANCH   1   7
BRANCH   4  21
ATOM     21  C   UNL     1       1.510   9.898  18.256  0.00  0.00    +0.000 C 
BRANCH  21  22
ATOM     22  C   UNL     1       0.134  10.418  18.648  0.00  0.00    +0.000 C 
ATOM     23  O   UNL     1      -0.898  10.059  18.069  0.00  0.00    +0.000 OA
BRANCH  22  24
ATOM     24  C   UNL     1       0.032  11.423  19.741  0.00  0.00    +0.000 A 
ATOM     25  C   UNL     1      -0.688  11.169  20.914  0.00  0.00    +0.000 A 
ATOM     26  C   UNL     1      -0.713  12.121  21.933  0.00  0.00    +0.000 A 
ATOM     27  C   UNL     1      -0.020  13.319  21.772  0.00  0.00    +0.000 A 
ATOM     28  C   UNL     1       0.696  13.583  20.611  0.00  0.00    +0.000 A 
ATOM     29  C   UNL     1       0.722  12.636  19.592  0.00  0.00    +0.000 A 
BRANCH  27  30
ATOM     30  O   UNL     1      -0.001  14.265  22.748  0.00  0.00    +0.000 OA
ATOM     31  H   UNL     1      -0.866  14.294  23.189  0.00  0.00    +0.000 HD
ENDBRANCH  27  30
ENDBRANCH  22  24
ENDBRANCH  21  22
ENDBRANCH   4  21
TORSDOF 6
ENDMDL
MODEL 8
REMARK VINA RESULT:      -8.8      1.656      2.700
REMARK  Name = 
REMARK  7 active torsions:
REMARK  status: ('A' for Active; 'I' for Inactive)
REMARK    1  A    between atoms: C_1  and  C_2
REMARK    2  A    between atoms: C_2  and  C_3
REMARK    3  A    between atoms: C_2  and  N_16
REMARK    4  A    between atoms: N_19  and  C_20
REMARK    5  A    between atoms: C_20  and  C_21
REMARK    6  A    between atoms: C_21  and  C_23
REMARK    7  A    between atoms: C_26  and  O_27
REMARK                            x       y       z     vdW  Elec       q    Type
REMARK                         _______ _______ _______ _____ _____    ______ ____
ROOT
ATOM      1  N   UNL     1       2.880   6.852  18.763  0.00  0.00    +0.000 N 
ATOM      2  C   UNL     1       2.923   7.679  17.648  0.00  0.00    +0.000 A 
ATOM      3  C   UNL     1       2.204   8.800  17.950  0.00  0.00    +0.000 A 
ATOM      4  N   UNL     1       1.712   8.626  19.237  0.00  0.00    +0.000 N 
ATOM      5  C   UNL     1       2.144   7.446  19.720  0.00  0.00    +0.000 A 
ENDROOT
BRANCH   1   7
ATOM      6  C   UNL     1       2.613   4.402  18.760  0.00  0.00    +0.000 C 
ATOM      7  C   UNL     1       3.594   5.567  18.898  0.00  0.00    +0.000 C 
BRANCH   7   8
ATOM      8  C   UNL     1       4.771   5.496  17.926  0.00  0.00    +0.000 A 
ATOM      9  C   UNL     1       6.019   6.079  18.233  0.00  0.00    +0.000 A 
ATOM     10  C   UNL     1       7.070   6.127  17.316  0.00  0.00    +0.000 A 
ATOM     11  C   UNL     1       6.834   5.544  16.082  0.00  0.00    +0.000 A 
ATOM     12  O   UNL     1       7.725   5.520  15.059  0.00  0.00    +0.000 OA
ATOM     13  C   UNL     1       7.134   4.850  14.038  0.00  0.00    +0.000 A 
ATOM     14  C   UNL     1       7.719   4.610  12.800  0.00  0.00    +0.000 A 
ATOM     15  C   UNL     1       6.958   3.880  11.884  0.00  0.00    +0.000 A 
ATOM     16  C   UNL     1       5.677   3.426  12.210  0.00  0.00    +0.000 A 
ATOM     17  C   UNL     1       5.106   3.696  13.462  0.00  0.00    +0.000 A 
ATOM     18  C   UNL     1       5.856   4.430  14.401  0.00  0.00    +0.000 A 
ATOM     19  C   UNL     1       5.650   4.909  15.729  0.00  0.00    +0.000 A 
ATOM     20  C   UNL     1       4.595   4.883  16.665  0.00  0.00    +0.000 A 
ENDBRANCH   7   8
ENDBRANCH   1   7
BRANCH   4  21
ATOM     21  C   UNL     1       0.844   9.584  19.969  0.00  0.00    +0.000 C 
BRANCH  21  22
ATOM     22  C   UNL     1       0.077  10.540  19.067  0.00  0.00    +0.000 C 
ATOM     23  O   UNL     1      -0.870  10.168  18.363  0.00  0.00    +0.000 OA
BRANCH  22  24
ATOM     24  C   UNL     1       0.504  11.963  19.003  0.00  0.00    +0.000 A 
ATOM     25  C   UNL     1       1.854  12.329  18.958  0.00  0.00    +0.000 A 
ATOM     26  C   UNL     1       2.206  13.674  18.847  0.00  0.00    +0.000 A 
ATOM     27  C   UNL     1       1.207  14.643  18.782  0.00  0.00    +0.000 A 
ATOM     28  C   UNL     1      -0.136  14.292  18.828  0.00  0.00    +0.000 A 
ATOM     29  C   UNL     1      -0.490  12.951  18.941  0.00  0.00    +0.000 A 
BRANCH  27  30
ATOM     30  O   UNL     1       1.505  15.964  18.652  0.00  0.00    +0.000 OA
ATOM     31  H   UNL     1       2.335  16.156  19.118  0.00  0.00    +0.000 HD
ENDBRANCH  27  30
ENDBRANCH  22  24
ENDBRANCH  21  22
ENDBRANCH   4  21
TORSDOF 6
ENDMDL
MODEL 9
REMARK VINA RESULT:      -8.7      1.835      2.960
REMARK  Name = 
REMARK  7 active torsions:
REMARK  status: ('A' for Active; 'I' for Inactive)
REMARK    1  A    between atoms: C_1  and  C_2
REMARK    2  A    between atoms: C_2  and  C_3
REMARK    3  A    between atoms: C_2  and  N_16
REMARK    4  A    between atoms: N_19  and  C_20
REMARK    5  A    between atoms: C_20  and  C_21
REMARK    6  A    between atoms: C_21  and  C_23
REMARK    7  A    between atoms: C_26  and  O_27
REMARK                            x       y       z     vdW  Elec       q    Type
REMARK                         _______ _______ _______ _____ _____    ______ ____
ROOT
ATOM      1  N   UNL     1       3.048   6.224  19.132  0.00  0.00    +0.000 N 
ATOM      2  C   UNL     1       2.306   6.631  20.234  0.00  0.00    +0.000 A 
ATOM      3  C   UNL     1       1.720   7.821  19.908  0.00  0.00    +0.000 A 
ATOM      4  N   UNL     1       2.137   8.133  18.620  0.00  0.00    +0.000 N 
ATOM      5  C   UNL     1       2.929   7.147  18.161  0.00  0.00    +0.000 A 
ENDROOT
BRANCH   1   7
ATOM      6  C   UNL     1       2.807   3.804  18.733  0.00  0.00    +0.000 C 
ATOM      7  C   UNL     1       3.781   4.947  19.024  0.00  0.00    +0.000 C 
BRANCH   7   8
ATOM      8  C   UNL     1       4.917   5.059  18.010  0.00  0.00    +0.000 A 
ATOM      9  C   UNL     1       6.108   5.754  18.308  0.00  0.00    +0.000 A 
ATOM     10  C   UNL     1       7.110   5.966  17.358  0.00  0.00    +0.000 A 
ATOM     11  C   UNL     1       6.886   5.433  16.101  0.00  0.00    +0.000 A 
ATOM     12  O   UNL     1       7.732   5.563  15.048  0.00  0.00    +0.000 OA
ATOM     13  C   UNL     1       7.173   4.892  14.009  0.00  0.00    +0.000 A 
ATOM     14  C   UNL     1       7.728   4.788  12.739  0.00  0.00    +0.000 A 
ATOM     15  C   UNL     1       7.011   4.033  11.808  0.00  0.00    +0.000 A 
ATOM     16  C   UNL     1       5.799   3.426  12.150  0.00  0.00    +0.000 A 
ATOM     17  C   UNL     1       5.255   3.562  13.435  0.00  0.00    +0.000 A 
ATOM     18  C   UNL     1       5.962   4.318  14.390  0.00  0.00    +0.000 A 
ATOM     19  C   UNL     1       5.762   4.695  15.751  0.00  0.00    +0.000 A 
ATOM     20  C   UNL     1       4.755   4.503  16.720  0.00  0.00    +0.000 A 
ENDBRANCH   7   8
ENDBRANCH   1   7
BRANCH   4  21
ATOM     21  C   UNL     1       1.773   9.360  17.867  0.00  0.00    +0.000 C 
BRANCH  21  22
ATOM     22  C   UNL     1       0.895  10.329  18.645  0.00  0.00    +0.000 C 
ATOM     23  O   UNL     1      -0.286  10.081  18.914  0.00  0.00    +0.000 OA
BRANCH  22  24
ATOM     24  C   UNL     1       1.467  11.638  19.063  0.00  0.00    +0.000 A 
ATOM     25  C   UNL     1       2.355  12.351  18.248  0.00  0.00    +0.000 A 
ATOM     26  C   UNL     1       2.826  13.598  18.660  0.00  0.00    +0.000 A 
ATOM     27  C   UNL     1       2.408  14.122  19.880  0.00  0.00    +0.000 A 
ATOM     28  C   UNL     1       1.530  13.422  20.698  0.00  0.00    +0.000 A 
ATOM     29  C   UNL     1       1.059  12.178  20.291  0.00  0.00    +0.000 A 
BRANCH  27  30
ATOM     30  O   UNL     1       2.826  15.343  20.310  0.00  0.00    +0.000 OA
ATOM     31  H   UNL     1       2.292  16.035  19.888  0.00  0.00    +0.000 HD
ENDBRANCH  27  30
ENDBRANCH  22  24
ENDBRANCH  21  22
ENDBRANCH   4  21
TORSDOF 6
ENDMDL
