MODEL 1
REMARK VINA RESULT:      -8.5      0.000      0.000
REMARK  Name = 
REMARK  10 active torsions:
REMARK  status: ('A' for Active; 'I' for Inactive)
REMARK    1  A    between atoms: C_1  and  O_2
REMARK    2  A    between atoms: O_2  and  C_3
REMARK    3  A    between atoms: C_7  and  C_8
REMARK    4  A    between atoms: C_8  and  N_9
REMARK    5  A    between atoms: C_13  and  N_14
REMARK    6  A    between atoms: C_15  and  O_17
REMARK    7  A    between atoms: O_17  and  C_18
REMARK    8  A    between atoms: C_18  and  C_19
REMARK    9  A    between atoms: C_18  and  C_20
REMARK   10  A    between atoms: C_18  and  C_21
REMARK                            x       y       z     vdW  Elec       q    Type
REMARK                         _______ _______ _______ _____ _____    ______ ____
ROOT
ATOM      1  C   UNL     1       1.730   3.961  19.975  0.00  0.00    +0.000 A 
ATOM      2  C   UNL     1       1.412   5.113  20.670  0.00  0.00    +0.000 A 
ATOM      3  C   UNL     1       1.816   6.362  20.173  0.00  0.00    +0.000 A 
ATOM      4  C   UNL     1       2.589   6.508  18.988  0.00  0.00    +0.000 A 
ATOM      5  C   UNL     1       2.956   7.760  18.407  0.00  0.00    +0.000 A 
ATOM      6  C   UNL     1       3.817   7.769  17.291  0.00  0.00    +0.000 A 
ATOM      7  C   UNL     1       4.330   6.593  16.717  0.00  0.00    +0.000 A 
ATOM      8  C   UNL     1       5.211   6.647  15.619  0.00  0.00    +0.000 A 
ATOM      9  C   UNL     1       5.701   5.460  15.102  0.00  0.00    +0.000 A 
ATOM     10  C   UNL     1       5.355   4.258  15.638  0.00  0.00    +0.000 A 
ATOM     11  C   UNL     1       4.497   4.169  16.703  0.00  0.00    +0.000 A 
ATOM     12  C   UNL     1       3.942   5.336  17.270  0.00  0.00    +0.000 A 
ATOM     13  C   UNL     1       3.033   5.307  18.381  0.00  0.00    +0.000 A 
ATOM     14  C   UNL     1       2.569   4.066  18.877  0.00  0.00    +0.000 A 
ATOM     15  O   UNL     1       5.940   3.202  15.024  0.00  0.00    +0.000 OA
ATOM     16  C   UNL     1       6.672   3.880  13.990  0.00  0.00    +0.000 C 
ATOM     17  O   UNL     1       6.557   5.320  14.056  0.00  0.00    +0.000 OA
ENDROOT
BRANCH   1  19
ATOM     18  C   UNL     1       1.465   2.529  21.825  0.00  0.00    +0.000 C 
ATOM     19  O   UNL     1       1.231   2.771  20.434  0.00  0.00    +0.000 OA
ENDBRANCH   1  19
BRANCH   5  20
ATOM     20  C   UNL     1       2.489   9.137  18.920  0.00  0.00    +0.000 C 
BRANCH  20  21
ATOM     21  N   UNL     1       1.072   9.291  19.328  0.00  0.00    +0.000 NA
ATOM     22  C   UNL     1       0.839   9.356  20.762  0.00  0.00    +0.000 C 
ATOM     23  C   UNL     1      -0.554   9.793  21.217  0.00  0.00    +0.000 C 
ATOM     24  C   UNL     1      -1.071  11.001  20.463  0.00  0.00    +0.000 C 
ATOM     25  C   UNL     1      -1.009  10.797  18.959  0.00  0.00    +0.000 C 
ATOM     26  C   UNL     1       0.333  10.207  18.462  0.00  0.00    +0.000 C 
BRANCH  25  27
ATOM     27  N   UNL     1      -2.175  10.083  18.465  0.00  0.00    +0.000 N 
ATOM     28  C   UNL     1      -2.920  10.719  17.514  0.00  0.00    +0.000 C 
ATOM     29  O   UNL     1      -2.490  11.617  16.802  0.00  0.00    +0.000 OA
ATOM     30  H   UNL     1      -2.722   9.516  19.097  0.00  0.00    +0.000 HD
BRANCH  28  31
ATOM     31  O   UNL     1      -4.210  10.321  17.597  0.00  0.00    +0.000 OA
BRANCH  31  32
ATOM     32  C   UNL     1      -5.155  11.244  18.194  0.00  0.00    +0.000 C 
ATOM     33  C   UNL     1      -4.483  12.095  19.279  0.00  0.00    +0.000 C 
ATOM     34  C   UNL     1      -5.626  12.155  17.052  0.00  0.00    +0.000 C 
ATOM     35  C   UNL     1      -6.382  10.488  18.732  0.00  0.00    +0.000 C 
ENDBRANCH  31  32
ENDBRANCH  28  31
ENDBRANCH  25  27
ENDBRANCH  20  21
ENDBRANCH   5  20
TORSDOF 6
ENDMDL
MODEL 2
REMARK VINA RESULT:      -8.2      1.081      4.472
REMARK  Name = 
REMARK  10 active torsions:
REMARK  status: ('A' for Active; 'I' for Inactive)
REMARK    1  A    between atoms: C_1  and  O_2
REMARK    2  A    between atoms: O_2  and  C_3
REMARK    3  A    between atoms: C_7  and  C_8
REMARK    4  A    between atoms: C_8  and  N_9
REMARK    5  A    between atoms: C_13  and  N_14
REMARK    6  A    between atoms: C_15  and  O_17
REMARK    7  A    between atoms: O_17  and  C_18
REMARK    8  A    between atoms: C_18  and  C_19
REMARK    9  A    between atoms: C_18  and  C_20
REMARK   10  A    between atoms: C_18  and  C_21
REMARK                            x       y       z     vdW  Elec       q    Type
REMARK                         _______ _______ _______ _____ _____    ______ ____
ROOT
ATOM      1  C   UNL     1       6.022   5.656  16.385  0.00  0.00    +0.000 A 
ATOM      2  C   UNL     1       5.515   6.821  15.840  0.00  0.00    +0.000 A 
ATOM      3  C   UNL     1       4.419   7.455  16.442  0.00  0.00    +0.000 A 
ATOM      4  C   UNL     1       3.756   6.931  17.585  0.00  0.00    +0.000 A 
ATOM      5  C   UNL     1       2.687   7.581  18.274  0.00  0.00    +0.000 A 
ATOM      6  C   UNL     1       2.043   6.904  19.330  0.00  0.00    +0.000 A 
ATOM      7  C   UNL     1       2.411   5.612  19.741  0.00  0.00    +0.000 A 
ATOM      8  C   UNL     1       1.723   4.959  20.783  0.00  0.00    +0.000 A 
ATOM      9  C   UNL     1       2.114   3.680  21.138  0.00  0.00    +0.000 A 
ATOM     10  C   UNL     1       3.136   3.049  20.498  0.00  0.00    +0.000 A 
ATOM     11  C   UNL     1       3.830   3.657  19.485  0.00  0.00    +0.000 A 
ATOM     12  C   UNL     1       3.500   4.968  19.081  0.00  0.00    +0.000 A 
ATOM     13  C   UNL     1       4.194   5.659  18.032  0.00  0.00    +0.000 A 
ATOM     14  C   UNL     1       5.332   5.069  17.434  0.00  0.00    +0.000 A 
ATOM     15  O   UNL     1       3.374   1.798  20.958  0.00  0.00    +0.000 OA
ATOM     16  C   UNL     1       2.400   1.723  22.012  0.00  0.00    +0.000 C 
ATOM     17  O   UNL     1       1.567   2.901  22.108  0.00  0.00    +0.000 OA
ENDROOT
BRANCH   1  19
ATOM     18  C   UNL     1       7.001   4.672  14.483  0.00  0.00    +0.000 C 
ATOM     19  O   UNL     1       7.156   5.123  15.833  0.00  0.00    +0.000 OA
ENDBRANCH   1  19
BRANCH   5  20
ATOM     20  C   UNL     1       2.156   8.990  17.941  0.00  0.00    +0.000 C 
BRANCH  20  21
ATOM     21  N   UNL     1       0.893   9.434  18.577  0.00  0.00    +0.000 NA
ATOM     22  C   UNL     1       1.038  10.050  19.887  0.00  0.00    +0.000 C 
ATOM     23  C   UNL     1      -0.187  10.770  20.451  0.00  0.00    +0.000 C 
ATOM     24  C   UNL     1      -0.871  11.661  19.434  0.00  0.00    +0.000 C 
ATOM     25  C   UNL     1      -1.199  10.910  18.155  0.00  0.00    +0.000 C 
ATOM     26  C   UNL     1      -0.035  10.038  17.625  0.00  0.00    +0.000 C 
BRANCH  25  27
ATOM     27  N   UNL     1      -2.459  10.192  18.262  0.00  0.00    +0.000 N 
ATOM     28  C   UNL     1      -3.442  10.555  17.387  0.00  0.00    +0.000 C 
ATOM     29  O   UNL     1      -3.230  11.126  16.325  0.00  0.00    +0.000 OA
ATOM     30  H   UNL     1      -2.805   9.917  19.170  0.00  0.00    +0.000 HD
BRANCH  28  31
ATOM     31  O   UNL     1      -4.656  10.335  17.940  0.00  0.00    +0.000 OA
BRANCH  31  32
ATOM     32  C   UNL     1      -5.410  11.493  18.377  0.00  0.00    +0.000 C 
ATOM     33  C   UNL     1      -5.797  12.380  17.187  0.00  0.00    +0.000 C 
ATOM     34  C   UNL     1      -6.682  10.938  19.033  0.00  0.00    +0.000 C 
ATOM     35  C   UNL     1      -4.629  12.274  19.448  0.00  0.00    +0.000 C 
ENDBRANCH  31  32
ENDBRANCH  28  31
ENDBRANCH  25  27
ENDBRANCH  20  21
ENDBRANCH   5  20
TORSDOF 6
ENDMDL
MODEL 3
REMARK VINA RESULT:      -8.0      3.045     10.365
REMARK  Name = 
REMARK  10 active torsions:
REMARK  status: ('A' for Active; 'I' for Inactive)
REMARK    1  A    between atoms: C_1  and  O_2
REMARK    2  A    between atoms: O_2  and  C_3
REMARK    3  A    between atoms: C_7  and  C_8
REMARK    4  A    between atoms: C_8  and  N_9
REMARK    5  A    between atoms: C_13  and  N_14
REMARK    6  A    between atoms: C_15  and  O_17
REMARK    7  A    between atoms: O_17  and  C_18
REMARK    8  A    between atoms: C_18  and  C_19
REMARK    9  A    between atoms: C_18  and  C_20
REMARK   10  A    between atoms: C_18  and  C_21
REMARK                            x       y       z     vdW  Elec       q    Type
REMARK                         _______ _______ _______ _____ _____    ______ ____
ROOT
ATOM      1  C   UNL     1      -3.489  11.223  17.320  0.00  0.00    +0.000 A 
ATOM      2  C   UNL     1      -2.192  10.807  17.085  0.00  0.00    +0.000 A 
ATOM      3  C   UNL     1      -1.236  10.887  18.109  0.00  0.00    +0.000 A 
ATOM      4  C   UNL     1      -1.523  11.427  19.393  0.00  0.00    +0.000 A 
ATOM      5  C   UNL     1      -0.603  11.458  20.486  0.00  0.00    +0.000 A 
ATOM      6  C   UNL     1      -0.976  12.119  21.674  0.00  0.00    +0.000 A 
ATOM      7  C   UNL     1      -2.222  12.748  21.835  0.00  0.00    +0.000 A 
ATOM      8  C   UNL     1      -2.545  13.422  23.029  0.00  0.00    +0.000 A 
ATOM      9  C   UNL     1      -3.779  14.040  23.130  0.00  0.00    +0.000 A 
ATOM     10  C   UNL     1      -4.671  14.013  22.102  0.00  0.00    +0.000 A 
ATOM     11  C   UNL     1      -4.392  13.362  20.929  0.00  0.00    +0.000 A 
ATOM     12  C   UNL     1      -3.161  12.693  20.761  0.00  0.00    +0.000 A 
ATOM     13  C   UNL     1      -2.814  11.988  19.559  0.00  0.00    +0.000 A 
ATOM     14  C   UNL     1      -3.769  11.848  18.526  0.00  0.00    +0.000 A 
ATOM     15  O   UNL     1      -5.819  14.683  22.362  0.00  0.00    +0.000 OA
ATOM     16  C   UNL     1      -5.569  15.106  23.712  0.00  0.00    +0.000 C 
ATOM     17  O   UNL     1      -4.257  14.735  24.195  0.00  0.00    +0.000 OA
ENDROOT
BRANCH   1  19
ATOM     18  C   UNL     1      -3.873  10.597  15.083  0.00  0.00    +0.000 C 
ATOM     19  O   UNL     1      -4.419  11.033  16.333  0.00  0.00    +0.000 OA
ENDBRANCH   1  19
BRANCH   5  20
ATOM     20  C   UNL     1       0.803  10.826  20.467  0.00  0.00    +0.000 C 
BRANCH  20  21
ATOM     21  N   UNL     1       0.958   9.473  19.880  0.00  0.00    +0.000 NA
ATOM     22  C   UNL     1       1.520   9.437  18.539  0.00  0.00    +0.000 C 
ATOM     23  C   UNL     1       1.957   8.071  18.010  0.00  0.00    +0.000 C 
ATOM     24  C   UNL     1       2.750   7.270  19.022  0.00  0.00    +0.000 C 
ATOM     25  C   UNL     1       2.018   7.152  20.348  0.00  0.00    +0.000 C 
ATOM     26  C   UNL     1       1.419   8.487  20.853  0.00  0.00    +0.000 C 
BRANCH  25  27
ATOM     27  N   UNL     1       1.064   6.055  20.339  0.00  0.00    +0.000 N 
ATOM     28  C   UNL     1       1.531   4.839  20.751  0.00  0.00    +0.000 C 
ATOM     29  O   UNL     1       2.519   4.696  21.460  0.00  0.00    +0.000 OA
ATOM     30  H   UNL     1       0.372   5.996  19.605  0.00  0.00    +0.000 HD
BRANCH  28  31
ATOM     31  O   UNL     1       0.844   3.849  20.138  0.00  0.00    +0.000 OA
BRANCH  31  32
ATOM     32  C   UNL     1       1.513   3.138  19.067  0.00  0.00    +0.000 C 
ATOM     33  C   UNL     1       2.816   2.496  19.561  0.00  0.00    +0.000 C 
ATOM     34  C   UNL     1       0.539   2.036  18.626  0.00  0.00    +0.000 C 
ATOM     35  C   UNL     1       1.749   4.068  17.864  0.00  0.00    +0.000 C 
ENDBRANCH  31  32
ENDBRANCH  28  31
ENDBRANCH  25  27
ENDBRANCH  20  21
ENDBRANCH   5  20
TORSDOF 6
ENDMDL
MODEL 4
REMARK VINA RESULT:      -7.8      2.984     10.352
REMARK  Name = 
REMARK  10 active torsions:
REMARK  status: ('A' for Active; 'I' for Inactive)
REMARK    1  A    between atoms: C_1  and  O_2
REMARK    2  A    between atoms: O_2  and  C_3
REMARK    3  A    between atoms: C_7  and  C_8
REMARK    4  A    between atoms: C_8  and  N_9
REMARK    5  A    between atoms: C_13  and  N_14
REMARK    6  A    between atoms: C_15  and  O_17
REMARK    7  A    between atoms: O_17  and  C_18
REMARK    8  A    between atoms: C_18  and  C_19
REMARK    9  A    between atoms: C_18  and  C_20
REMARK   10  A    between atoms: C_18  and  C_21
REMARK                            x       y       z     vdW  Elec       q    Type
REMARK                         _______ _______ _______ _____ _____    ______ ____
ROOT
ATOM      1  C   UNL     1      -4.358  11.390  17.395  0.00  0.00    +0.000 A 
ATOM      2  C   UNL     1      -3.481  10.795  16.507  0.00  0.00    +0.000 A 
ATOM      3  C   UNL     1      -2.152  10.561  16.888  0.00  0.00    +0.000 A 
ATOM      4  C   UNL     1      -1.631  10.950  18.152  0.00  0.00    +0.000 A 
ATOM      5  C   UNL     1      -0.308  10.665  18.610  0.00  0.00    +0.000 A 
ATOM      6  C   UNL     1       0.120  11.201  19.841  0.00  0.00    +0.000 A 
ATOM      7  C   UNL     1      -0.704  12.005  20.647  0.00  0.00    +0.000 A 
ATOM      8  C   UNL     1      -0.228  12.545  21.859  0.00  0.00    +0.000 A 
ATOM      9  C   UNL     1      -1.074  13.345  22.607  0.00  0.00    +0.000 A 
ATOM     10  C   UNL     1      -2.340  13.620  22.190  0.00  0.00    +0.000 A 
ATOM     11  C   UNL     1      -2.836  13.108  21.021  0.00  0.00    +0.000 A 
ATOM     12  C   UNL     1      -2.038  12.268  20.215  0.00  0.00    +0.000 A 
ATOM     13  C   UNL     1      -2.504  11.696  18.984  0.00  0.00    +0.000 A 
ATOM     14  C   UNL     1      -3.851  11.873  18.592  0.00  0.00    +0.000 A 
ATOM     15  O   UNL     1      -3.022  14.433  23.032  0.00  0.00    +0.000 OA
ATOM     16  C   UNL     1      -2.044  14.607  24.070  0.00  0.00    +0.000 C 
ATOM     17  O   UNL     1      -0.787  13.951  23.789  0.00  0.00    +0.000 OA
ENDROOT
BRANCH   1  19
ATOM     18  C   UNL     1      -6.407  12.488  17.766  0.00  0.00    +0.000 C 
ATOM     19  O   UNL     1      -5.672  11.507  17.027  0.00  0.00    +0.000 OA
ENDBRANCH   1  19
BRANCH   5  20
ATOM     20  C   UNL     1       0.720   9.809  17.842  0.00  0.00    +0.000 C 
BRANCH  20  21
ATOM     21  N   UNL     1       1.599   8.902  18.618  0.00  0.00    +0.000 NA
ATOM     22  C   UNL     1       1.138   8.584  19.960  0.00  0.00    +0.000 C 
ATOM     23  C   UNL     1       1.855   7.445  20.686  0.00  0.00    +0.000 C 
ATOM     24  C   UNL     1       2.066   6.226  19.811  0.00  0.00    +0.000 C 
ATOM     25  C   UNL     1       2.752   6.581  18.503  0.00  0.00    +0.000 C 
ATOM     26  C   UNL     1       2.159   7.828  17.804  0.00  0.00    +0.000 C 
BRANCH  25  27
ATOM     27  N   UNL     1       4.198   6.632  18.652  0.00  0.00    +0.000 N 
ATOM     28  C   UNL     1       4.860   5.440  18.567  0.00  0.00    +0.000 C 
ATOM     29  O   UNL     1       4.404   4.447  18.015  0.00  0.00    +0.000 OA
ATOM     30  H   UNL     1       4.613   7.281  19.304  0.00  0.00    +0.000 HD
BRANCH  28  31
ATOM     31  O   UNL     1       5.991   5.488  19.307  0.00  0.00    +0.000 OA
BRANCH  31  32
ATOM     32  C   UNL     1       7.243   5.665  18.598  0.00  0.00    +0.000 C 
ATOM     33  C   UNL     1       7.330   7.063  17.973  0.00  0.00    +0.000 C 
ATOM     34  C   UNL     1       8.345   5.512  19.657  0.00  0.00    +0.000 C 
ATOM     35  C   UNL     1       7.436   4.552  17.554  0.00  0.00    +0.000 C 
ENDBRANCH  31  32
ENDBRANCH  28  31
ENDBRANCH  25  27
ENDBRANCH  20  21
ENDBRANCH   5  20
TORSDOF 6
ENDMDL
MODEL 5
REMARK VINA RESULT:      -7.7      3.920     10.735
REMARK  Name = 
REMARK  10 active torsions:
REMARK  status: ('A' for Active; 'I' for Inactive)
REMARK    1  A    between atoms: C_1  and  O_2
REMARK    2  A    between atoms: O_2  and  C_3
REMARK    3  A    between atoms: C_7  and  C_8
REMARK    4  A    between atoms: C_8  and  N_9
REMARK    5  A    between atoms: C_13  and  N_14
REMARK    6  A    between atoms: C_15  and  O_17
REMARK    7  A    between atoms: O_17  and  C_18
REMARK    8  A    between atoms: C_18  and  C_19
REMARK    9  A    between atoms: C_18  and  C_20
REMARK   10  A    between atoms: C_18  and  C_21
REMARK                            x       y       z     vdW  Elec       q    Type
REMARK                         _______ _______ _______ _____ _____    ______ ____
ROOT
ATOM      1  C   UNL     1       2.599  14.858  19.154  0.00  0.00    +0.000 A 
ATOM      2  C   UNL     1       2.943  13.718  18.450  0.00  0.00    +0.000 A 
ATOM      3  C   UNL     1       2.182  12.549  18.598  0.00  0.00    +0.000 A 
ATOM      4  C   UNL     1       1.075  12.456  19.486  0.00  0.00    +0.000 A 
ATOM      5  C   UNL     1       0.228  11.313  19.611  0.00  0.00    +0.000 A 
ATOM      6  C   UNL     1      -0.770  11.308  20.608  0.00  0.00    +0.000 A 
ATOM      7  C   UNL     1      -0.974  12.386  21.484  0.00  0.00    +0.000 A 
ATOM      8  C   UNL     1      -1.964  12.330  22.485  0.00  0.00    +0.000 A 
ATOM      9  C   UNL     1      -2.113  13.412  23.335  0.00  0.00    +0.000 A 
ATOM     10  C   UNL     1      -1.320  14.513  23.223  0.00  0.00    +0.000 A 
ATOM     11  C   UNL     1      -0.351  14.604  22.259  0.00  0.00    +0.000 A 
ATOM     12  C   UNL     1      -0.155  13.547  21.345  0.00  0.00    +0.000 A 
ATOM     13  C   UNL     1       0.838  13.585  20.309  0.00  0.00    +0.000 A 
ATOM     14  C   UNL     1       1.592  14.764  20.102  0.00  0.00    +0.000 A 
ATOM     15  O   UNL     1      -1.587  15.469  24.145  0.00  0.00    +0.000 OA
ATOM     16  C   UNL     1      -2.689  14.858  24.836  0.00  0.00    +0.000 C 
ATOM     17  O   UNL     1      -3.005  13.532  24.352  0.00  0.00    +0.000 OA
ENDROOT
BRANCH   1  19
ATOM     18  C   UNL     1       3.037  16.597  17.628  0.00  0.00    +0.000 C 
ATOM     19  O   UNL     1       3.301  16.007  18.906  0.00  0.00    +0.000 OA
ENDBRANCH   1  19
BRANCH   5  20
ATOM     20  C   UNL     1       0.326  10.047  18.736  0.00  0.00    +0.000 C 
BRANCH  20  21
ATOM     21  N   UNL     1       1.456   9.116  18.971  0.00  0.00    +0.000 NA
ATOM     22  C   UNL     1       1.299   8.218  20.104  0.00  0.00    +0.000 C 
ATOM     23  C   UNL     1       2.295   7.064  20.216  0.00  0.00    +0.000 C 
ATOM     24  C   UNL     1       2.520   6.348  18.900  0.00  0.00    +0.000 C 
ATOM     25  C   UNL     1       2.897   7.312  17.788  0.00  0.00    +0.000 C 
ATOM     26  C   UNL     1       2.010   8.579  17.731  0.00  0.00    +0.000 C 
BRANCH  25  27
ATOM     27  N   UNL     1       4.322   7.601  17.788  0.00  0.00    +0.000 N 
ATOM     28  C   UNL     1       5.120   6.728  17.105  0.00  0.00    +0.000 C 
ATOM     29  O   UNL     1       4.714   5.990  16.216  0.00  0.00    +0.000 OA
ATOM     30  H   UNL     1       4.757   7.986  18.615  0.00  0.00    +0.000 HD
BRANCH  28  31
ATOM     31  O   UNL     1       6.352   6.698  17.661  0.00  0.00    +0.000 OA
BRANCH  31  32
ATOM     32  C   UNL     1       6.791   5.443  18.238  0.00  0.00    +0.000 C 
ATOM     33  C   UNL     1       7.429   4.539  17.176  0.00  0.00    +0.000 C 
ATOM     34  C   UNL     1       7.848   5.816  19.289  0.00  0.00    +0.000 C 
ATOM     35  C   UNL     1       5.629   4.746  18.966  0.00  0.00    +0.000 C 
ENDBRANCH  31  32
ENDBRANCH  28  31
ENDBRANCH  25  27
ENDBRANCH  20  21
ENDBRANCH   5  20
TORSDOF 6
ENDMDL
MODEL 6
REMARK VINA RESULT:      -7.7      2.705     10.282
REMARK  Name = 
REMARK  10 active torsions:
REMARK  status: ('A' for Active; 'I' for Inactive)
REMARK    1  A    between atoms: C_1  and  O_2
REMARK    2  A    between atoms: O_2  and  C_3
REMARK    3  A    between atoms: C_7  and  C_8
REMARK    4  A    between atoms: C_8  and  N_9
REMARK    5  A    between atoms: C_13  and  N_14
REMARK    6  A    between atoms: C_15  and  O_17
REMARK    7  A    between atoms: O_17  and  C_18
REMARK    8  A    between atoms: C_18  and  C_19
REMARK    9  A    between atoms: C_18  and  C_20
REMARK   10  A    between atoms: C_18  and  C_21
REMARK                            x       y       z     vdW  Elec       q    Type
REMARK                         _______ _______ _______ _____ _____    ______ ____
ROOT
ATOM      1  C   UNL     1      -0.117  14.332  20.876  0.00  0.00    +0.000 A 
ATOM      2  C   UNL     1       1.047  13.631  20.621  0.00  0.00    +0.000 A 
ATOM      3  C   UNL     1       1.010  12.488  19.808  0.00  0.00    +0.000 A 
ATOM      4  C   UNL     1      -0.194  11.972  19.255  0.00  0.00    +0.000 A 
ATOM      5  C   UNL     1      -0.267  10.858  18.364  0.00  0.00    +0.000 A 
ATOM      6  C   UNL     1      -1.534  10.378  17.973  0.00  0.00    +0.000 A 
ATOM      7  C   UNL     1      -2.735  10.953  18.419  0.00  0.00    +0.000 A 
ATOM      8  C   UNL     1      -3.982  10.426  18.026  0.00  0.00    +0.000 A 
ATOM      9  C   UNL     1      -5.136  11.018  18.508  0.00  0.00    +0.000 A 
ATOM     10  C   UNL     1      -5.084  12.085  19.351  0.00  0.00    +0.000 A 
ATOM     11  C   UNL     1      -3.890  12.627  19.749  0.00  0.00    +0.000 A 
ATOM     12  C   UNL     1      -2.672  12.087  19.283  0.00  0.00    +0.000 A 
ATOM     13  C   UNL     1      -1.391  12.615  19.658  0.00  0.00    +0.000 A 
ATOM     14  C   UNL     1      -1.317  13.793  20.437  0.00  0.00    +0.000 A 
ATOM     15  O   UNL     1      -6.304  12.528  19.740  0.00  0.00    +0.000 OA
ATOM     16  C   UNL     1      -7.150  11.635  18.998  0.00  0.00    +0.000 C 
ATOM     17  O   UNL     1      -6.415  10.645  18.242  0.00  0.00    +0.000 OA
ENDROOT
BRANCH   1  19
ATOM     18  C   UNL     1      -0.707  15.480  22.846  0.00  0.00    +0.000 C 
ATOM     19  O   UNL     1      -0.027  15.499  21.586  0.00  0.00    +0.000 OA
ENDBRANCH   1  19
BRANCH   5  20
ATOM     20  C   UNL     1       0.954  10.110  17.792  0.00  0.00    +0.000 C 
BRANCH  20  21
ATOM     21  N   UNL     1       1.671   9.158  18.673  0.00  0.00    +0.000 NA
ATOM     22  C   UNL     1       1.082   8.959  19.988  0.00  0.00    +0.000 C 
ATOM     23  C   UNL     1       1.616   7.791  20.816  0.00  0.00    +0.000 C 
ATOM     24  C   UNL     1       1.757   6.513  20.015  0.00  0.00    +0.000 C 
ATOM     25  C   UNL     1       2.571   6.725  18.750  0.00  0.00    +0.000 C 
ATOM     26  C   UNL     1       2.169   7.989  17.952  0.00  0.00    +0.000 C 
BRANCH  25  27
ATOM     27  N   UNL     1       3.998   6.632  19.008  0.00  0.00    +0.000 N 
ATOM     28  C   UNL     1       4.700   5.752  18.234  0.00  0.00    +0.000 C 
ATOM     29  O   UNL     1       4.317   5.353  17.142  0.00  0.00    +0.000 OA
ATOM     30  H   UNL     1       4.344   6.704  19.955  0.00  0.00    +0.000 HD
BRANCH  28  31
ATOM     31  O   UNL     1       5.769   5.287  18.918  0.00  0.00    +0.000 OA
BRANCH  31  32
ATOM     32  C   UNL     1       7.084   5.614  18.402  0.00  0.00    +0.000 C 
ATOM     33  C   UNL     1       7.077   6.977  17.698  0.00  0.00    +0.000 C 
ATOM     34  C   UNL     1       8.007   5.680  19.627  0.00  0.00    +0.000 C 
ATOM     35  C   UNL     1       7.599   4.493  17.484  0.00  0.00    +0.000 C 
ENDBRANCH  31  32
ENDBRANCH  28  31
ENDBRANCH  25  27
ENDBRANCH  20  21
ENDBRANCH   5  20
TORSDOF 6
ENDMDL
MODEL 7
REMARK VINA RESULT:      -7.6      3.526     10.707
REMARK  Name = 
REMARK  10 active torsions:
REMARK  status: ('A' for Active; 'I' for Inactive)
REMARK    1  A    between atoms: C_1  and  O_2
REMARK    2  A    between atoms: O_2  and  C_3
REMARK    3  A    between atoms: C_7  and  C_8
REMARK    4  A    between atoms: C_8  and  N_9
REMARK    5  A    between atoms: C_13  and  N_14
REMARK    6  A    between atoms: C_15  and  O_17
REMARK    7  A    between atoms: O_17  and  C_18
REMARK    8  A    between atoms: C_18  and  C_19
REMARK    9  A    between atoms: C_18  and  C_20
REMARK   10  A    between atoms: C_18  and  C_21
REMARK                            x       y       z     vdW  Elec       q    Type
REMARK                         _______ _______ _______ _____ _____    ______ ____
ROOT
ATOM      1  C   UNL     1       2.124  15.103  18.833  0.00  0.00    +0.000 A 
ATOM      2  C   UNL     1       2.803  13.968  18.430  0.00  0.00    +0.000 A 
ATOM      3  C   UNL     1       2.139  12.733  18.390  0.00  0.00    +0.000 A 
ATOM      4  C   UNL     1       0.784  12.571  18.792  0.00  0.00    +0.000 A 
ATOM      5  C   UNL     1       0.048  11.351  18.697  0.00  0.00    +0.000 A 
ATOM      6  C   UNL     1      -1.256  11.296  19.230  0.00  0.00    +0.000 A 
ATOM      7  C   UNL     1      -1.870  12.397  19.851  0.00  0.00    +0.000 A 
ATOM      8  C   UNL     1      -3.165  12.292  20.398  0.00  0.00    +0.000 A 
ATOM      9  C   UNL     1      -3.717  13.400  21.014  0.00  0.00    +0.000 A 
ATOM     10  C   UNL     1      -3.033  14.573  21.106  0.00  0.00    +0.000 A 
ATOM     11  C   UNL     1      -1.775  14.712  20.582  0.00  0.00    +0.000 A 
ATOM     12  C   UNL     1      -1.155  13.630  19.922  0.00  0.00    +0.000 A 
ATOM     13  C   UNL     1       0.157  13.715  19.347  0.00  0.00    +0.000 A 
ATOM     14  C   UNL     1       0.837  14.956  19.328  0.00  0.00    +0.000 A 
ATOM     15  O   UNL     1      -3.713  15.548  21.757  0.00  0.00    +0.000 OA
ATOM     16  C   UNL     1      -4.946  14.862  22.030  0.00  0.00    +0.000 C 
ATOM     17  O   UNL     1      -4.942  13.482  21.596  0.00  0.00    +0.000 OA
ENDROOT
BRANCH   1  19
ATOM     18  C   UNL     1       3.241  16.646  17.450  0.00  0.00    +0.000 C 
ATOM     19  O   UNL     1       2.773  16.306  18.759  0.00  0.00    +0.000 OA
ENDBRANCH   1  19
BRANCH   5  20
ATOM     20  C   UNL     1       0.579  10.054  18.055  0.00  0.00    +0.000 C 
BRANCH  20  21
ATOM     21  N   UNL     1       1.429   9.160  18.878  0.00  0.00    +0.000 NA
ATOM     22  C   UNL     1       1.018   9.011  20.265  0.00  0.00    +0.000 C 
ATOM     23  C   UNL     1       1.686   7.895  21.068  0.00  0.00    +0.000 C 
ATOM     24  C   UNL     1       1.759   6.584  20.313  0.00  0.00    +0.000 C 
ATOM     25  C   UNL     1       2.399   6.754  18.945  0.00  0.00    +0.000 C 
ATOM     26  C   UNL     1       1.864   7.970  18.151  0.00  0.00    +0.000 C 
BRANCH  25  27
ATOM     27  N   UNL     1       3.850   6.704  19.022  0.00  0.00    +0.000 N 
ATOM     28  C   UNL     1       4.467   5.755  18.258  0.00  0.00    +0.000 C 
ATOM     29  O   UNL     1       3.956   5.237  17.274  0.00  0.00    +0.000 OA
ATOM     30  H   UNL     1       4.313   6.881  19.902  0.00  0.00    +0.000 HD
BRANCH  28  31
ATOM     31  O   UNL     1       5.628   5.378  18.840  0.00  0.00    +0.000 OA
BRANCH  31  32
ATOM     32  C   UNL     1       6.857   5.697  18.143  0.00  0.00    +0.000 C 
ATOM     33  C   UNL     1       6.743   7.039  17.408  0.00  0.00    +0.000 C 
ATOM     34  C   UNL     1       7.937   5.804  19.230  0.00  0.00    +0.000 C 
ATOM     35  C   UNL     1       7.256   4.553  17.195  0.00  0.00    +0.000 C 
ENDBRANCH  31  32
ENDBRANCH  28  31
ENDBRANCH  25  27
ENDBRANCH  20  21
ENDBRANCH   5  20
TORSDOF 6
ENDMDL
MODEL 8
REMARK VINA RESULT:      -7.5      3.238     10.161
REMARK  Name = 
REMARK  10 active torsions:
REMARK  status: ('A' for Active; 'I' for Inactive)
REMARK    1  A    between atoms: C_1  and  O_2
REMARK    2  A    between atoms: O_2  and  C_3
REMARK    3  A    between atoms: C_7  and  C_8
REMARK    4  A    between atoms: C_8  and  N_9
REMARK    5  A    between atoms: C_13  and  N_14
REMARK    6  A    between atoms: C_15  and  O_17
REMARK    7  A    between atoms: O_17  and  C_18
REMARK    8  A    between atoms: C_18  and  C_19
REMARK    9  A    between atoms: C_18  and  C_20
REMARK   10  A    between atoms: C_18  and  C_21
REMARK                            x       y       z     vdW  Elec       q    Type
REMARK                         _______ _______ _______ _____ _____    ______ ____
ROOT
ATOM      1  C   UNL     1      -4.041  11.819  18.972  0.00  0.00    +0.000 A 
ATOM      2  C   UNL     1      -3.533  10.932  18.041  0.00  0.00    +0.000 A 
ATOM      3  C   UNL     1      -2.153  10.687  17.991  0.00  0.00    +0.000 A 
ATOM      4  C   UNL     1      -1.220  11.348  18.836  0.00  0.00    +0.000 A 
ATOM      5  C   UNL     1       0.182  11.074  18.871  0.00  0.00    +0.000 A 
ATOM      6  C   UNL     1       1.015  11.877  19.676  0.00  0.00    +0.000 A 
ATOM      7  C   UNL     1       0.525  12.938  20.456  0.00  0.00    +0.000 A 
ATOM      8  C   UNL     1       1.396  13.734  21.226  0.00  0.00    +0.000 A 
ATOM      9  C   UNL     1       0.865  14.778  21.963  0.00  0.00    +0.000 A 
ATOM     10  C   UNL     1      -0.469  15.048  21.948  0.00  0.00    +0.000 A 
ATOM     11  C   UNL     1      -1.345  14.291  21.215  0.00  0.00    +0.000 A 
ATOM     12  C   UNL     1      -0.878  13.198  20.454  0.00  0.00    +0.000 A 
ATOM     13  C   UNL     1      -1.746  12.365  19.672  0.00  0.00    +0.000 A 
ATOM     14  C   UNL     1      -3.147  12.554  19.735  0.00  0.00    +0.000 A 
ATOM     15  O   UNL     1      -0.815  16.114  22.709  0.00  0.00    +0.000 OA
ATOM     16  C   UNL     1       0.467  16.467  23.254  0.00  0.00    +0.000 C 
ATOM     17  O   UNL     1       1.548  15.647  22.754  0.00  0.00    +0.000 OA
ENDROOT
BRANCH   1  19
ATOM     18  C   UNL     1      -6.139  11.111  18.171  0.00  0.00    +0.000 C 
ATOM     19  O   UNL     1      -5.401  11.955  19.061  0.00  0.00    +0.000 OA
ENDBRANCH   1  19
BRANCH   5  20
ATOM     20  C   UNL     1       0.877   9.956  18.069  0.00  0.00    +0.000 C 
BRANCH  20  21
ATOM     21  N   UNL     1       1.669   8.946  18.812  0.00  0.00    +0.000 NA
ATOM     22  C   UNL     1       1.200   8.652  20.157  0.00  0.00    +0.000 C 
ATOM     23  C   UNL     1       1.804   7.431  20.849  0.00  0.00    +0.000 C 
ATOM     24  C   UNL     1       1.871   6.213  19.950  0.00  0.00    +0.000 C 
ATOM     25  C   UNL     1       2.568   6.519  18.635  0.00  0.00    +0.000 C 
ATOM     26  C   UNL     1       2.099   7.835  17.969  0.00  0.00    +0.000 C 
BRANCH  25  27
ATOM     27  N   UNL     1       4.013   6.414  18.757  0.00  0.00    +0.000 N 
ATOM     28  C   UNL     1       4.609   5.395  18.071  0.00  0.00    +0.000 C 
ATOM     29  O   UNL     1       4.103   4.839  17.105  0.00  0.00    +0.000 OA
ATOM     30  H   UNL     1       4.460   6.626  19.638  0.00  0.00    +0.000 HD
BRANCH  28  31
ATOM     31  O   UNL     1       5.736   5.007  18.709  0.00  0.00    +0.000 OA
BRANCH  31  32
ATOM     32  C   UNL     1       6.999   5.485  18.182  0.00  0.00    +0.000 C 
ATOM     33  C   UNL     1       7.583   4.495  17.166  0.00  0.00    +0.000 C 
ATOM     34  C   UNL     1       6.680   6.810  17.475  0.00  0.00    +0.000 C 
ATOM     35  C   UNL     1       7.984   5.786  19.325  0.00  0.00    +0.000 C 
ENDBRANCH  31  32
ENDBRANCH  28  31
ENDBRANCH  25  27
ENDBRANCH  20  21
ENDBRANCH   5  20
TORSDOF 6
ENDMDL
MODEL 9
REMARK VINA RESULT:      -7.5      3.164      9.499
REMARK  Name = 
REMARK  10 active torsions:
REMARK  status: ('A' for Active; 'I' for Inactive)
REMARK    1  A    between atoms: C_1  and  O_2
REMARK    2  A    between atoms: O_2  and  C_3
REMARK    3  A    between atoms: C_7  and  C_8
REMARK    4  A    between atoms: C_8  and  N_9
REMARK    5  A    between atoms: C_13  and  N_14
REMARK    6  A    between atoms: C_15  and  O_17
REMARK    7  A    between atoms: O_17  and  C_18
REMARK    8  A    between atoms: C_18  and  C_19
REMARK    9  A    between atoms: C_18  and  C_20
REMARK   10  A    between atoms: C_18  and  C_21
REMARK                            x       y       z     vdW  Elec       q    Type
REMARK                         _______ _______ _______ _____ _____    ______ ____
ROOT
ATOM      1  C   UNL     1      -2.750  11.298  17.439  0.00  0.00    +0.000 A 
ATOM      2  C   UNL     1      -2.552   9.965  17.748  0.00  0.00    +0.000 A 
ATOM      3  C   UNL     1      -1.517   9.596  18.620  0.00  0.00    +0.000 A 
ATOM      4  C   UNL     1      -0.611  10.536  19.184  0.00  0.00    +0.000 A 
ATOM      5  C   UNL     1       0.407  10.214  20.133  0.00  0.00    +0.000 A 
ATOM      6  C   UNL     1       1.311  11.220  20.532  0.00  0.00    +0.000 A 
ATOM      7  C   UNL     1       1.252  12.534  20.039  0.00  0.00    +0.000 A 
ATOM      8  C   UNL     1       2.192  13.503  20.443  0.00  0.00    +0.000 A 
ATOM      9  C   UNL     1       2.101  14.779  19.915  0.00  0.00    +0.000 A 
ATOM     10  C   UNL     1       1.132  15.104  19.016  0.00  0.00    +0.000 A 
ATOM     11  C   UNL     1       0.198  14.189  18.606  0.00  0.00    +0.000 A 
ATOM     12  C   UNL     1       0.218  12.873  19.117  0.00  0.00    +0.000 A 
ATOM     13  C   UNL     1      -0.736  11.873  18.731  0.00  0.00    +0.000 A 
ATOM     14  C   UNL     1      -1.819  12.221  17.890  0.00  0.00    +0.000 A 
ATOM     15  O   UNL     1       1.199  16.387  18.587  0.00  0.00    +0.000 OA
ATOM     16  C   UNL     1       2.311  16.859  19.365  0.00  0.00    +0.000 C 
ATOM     17  O   UNL     1       2.916  15.832  20.183  0.00  0.00    +0.000 OA
ENDROOT
BRANCH   1  19
ATOM     18  C   UNL     1      -5.096  11.471  17.325  0.00  0.00    +0.000 C 
ATOM     19  O   UNL     1      -3.833  11.630  16.669  0.00  0.00    +0.000 OA
ENDBRANCH   1  19
BRANCH   5  20
ATOM     20  C   UNL     1       0.613   8.821  20.761  0.00  0.00    +0.000 C 
BRANCH  20  21
ATOM     21  N   UNL     1       1.706   7.968  20.236  0.00  0.00    +0.000 NA
ATOM     22  C   UNL     1       1.730   6.604  20.741  0.00  0.00    +0.000 C 
ATOM     23  C   UNL     1       2.653   5.617  20.026  0.00  0.00    +0.000 C 
ATOM     24  C   UNL     1       2.556   5.704  18.516  0.00  0.00    +0.000 C 
ATOM     25  C   UNL     1       2.756   7.125  18.017  0.00  0.00    +0.000 C 
ATOM     26  C   UNL     1       1.958   8.186  18.814  0.00  0.00    +0.000 C 
BRANCH  25  27
ATOM     27  N   UNL     1       4.166   7.450  17.871  0.00  0.00    +0.000 N 
ATOM     28  C   UNL     1       4.932   6.540  17.200  0.00  0.00    +0.000 C 
ATOM     29  O   UNL     1       4.479   5.715  16.418  0.00  0.00    +0.000 OA
ATOM     30  H   UNL     1       4.654   7.918  18.620  0.00  0.00    +0.000 HD
BRANCH  28  31
ATOM     31  O   UNL     1       6.206   6.591  17.649  0.00  0.00    +0.000 OA
BRANCH  31  32
ATOM     32  C   UNL     1       6.766   5.375  18.205  0.00  0.00    +0.000 C 
ATOM     33  C   UNL     1       5.673   4.498  18.827  0.00  0.00    +0.000 C 
ATOM     34  C   UNL     1       7.402   4.631  17.022  0.00  0.00    +0.000 C 
ATOM     35  C   UNL     1       7.884   5.703  19.210  0.00  0.00    +0.000 C 
ENDBRANCH  31  32
ENDBRANCH  28  31
ENDBRANCH  25  27
ENDBRANCH  20  21
ENDBRANCH   5  20
TORSDOF 6
ENDMDL
