MODEL 1
REMARK VINA RESULT:      -6.6      0.000      0.000
REMARK  Name = 
REMARK  16 active torsions:
REMARK  status: ('A' for Active; 'I' for Inactive)
REMARK    1  A    between atoms: C_1  and  O_2
REMARK    2  A    between atoms: O_2  and  C_3
REMARK    3  A    between atoms: C_5  and  C_6
REMARK    4  A    between atoms: C_6  and  O_7
REMARK    5  A    between atoms: O_7  and  C_8
REMARK    6  A    between atoms: C_10  and  C_11
REMARK    7  A    between atoms: C_11  and  O_12
REMARK    8  A    between atoms: C_13  and  O_14
REMARK    9  A    between atoms: O_14  and  C_15
REMARK   10  A    between atoms: C_17  and  C_18
REMARK   11  A    between atoms: C_18  and  O_19
REMARK   12  A    between atoms: C_20  and  O_21
REMARK   13  A    between atoms: C_22  and  O_23
REMARK   14  A    between atoms: C_24  and  O_25
REMARK   15  A    between atoms: C_26  and  O_27
REMARK   16  A    between atoms: C_28  and  O_29
REMARK                            x       y       z     vdW  Elec       q    Type
REMARK                         _______ _______ _______ _____ _____    ______ ____
ROOT
ATOM      1  C   UNL     1       2.224   7.685  19.599  0.00  0.00    +0.000 C 
ATOM      2  O   UNL     1       1.556   6.705  20.394  0.00  0.00    +0.000 OA
ATOM      3  C   UNL     1       1.921   5.393  19.906  0.00  0.00    +0.000 C 
ATOM      4  C   UNL     1       3.031   5.572  18.867  0.00  0.00    +0.000 C 
ATOM      5  C   UNL     1       2.749   6.977  18.351  0.00  0.00    +0.000 C 
ENDROOT
BRANCH   5   6
ATOM      6  O   UNL     1       3.914   7.603  17.801  0.00  0.00    +0.000 OA
ATOM      7  H   UNL     1       3.653   8.450  17.402  0.00  0.00    +0.000 HD
ENDBRANCH   5   6
BRANCH   1   8
ATOM      8  O   UNL     1       1.339   8.726  19.213  0.00  0.00    +0.000 OA
BRANCH   8   9
ATOM      9  C   UNL     1       0.744   9.359  20.348  0.00  0.00    +0.000 C 
BRANCH   9  12
ATOM     10  C   UNL     1      -0.965  12.482  20.000  0.00  0.00    +0.000 C 
ATOM     11  O   UNL     1      -0.591  11.342  20.790  0.00  0.00    +0.000 OA
ATOM     12  C   UNL     1      -0.435  10.218  19.906  0.00  0.00    +0.000 C 
ATOM     13  C   UNL     1      -0.279  10.788  18.502  0.00  0.00    +0.000 C 
ATOM     14  C   UNL     1      -1.223  11.976  18.572  0.00  0.00    +0.000 C 
BRANCH  10  16
ATOM     15  C   UNL     1      -3.318  12.499  19.977  0.00  0.00    +0.000 C 
ATOM     16  O   UNL     1      -2.144  13.087  20.521  0.00  0.00    +0.000 OA
ENDBRANCH  10  16
BRANCH  13  17
ATOM     17  O   UNL     1      -0.610   9.845  17.489  0.00  0.00    +0.000 OA
ATOM     18  H   UNL     1      -1.560   9.917  17.293  0.00  0.00    +0.000 HD
ENDBRANCH  13  17
BRANCH  14  19
ATOM     19  O   UNL     1      -0.970  12.947  17.558  0.00  0.00    +0.000 OA
ATOM     20  H   UNL     1      -0.128  13.392  17.757  0.00  0.00    +0.000 HD
ENDBRANCH  14  19
ENDBRANCH   9  12
ENDBRANCH   8   9
ENDBRANCH   1   8
BRANCH   3  21
ATOM     21  C   UNL     1       2.370   4.591  21.130  0.00  0.00    +0.000 C 
BRANCH  21  22
ATOM     22  O   UNL     1       2.811   3.296  20.721  0.00  0.00    +0.000 OA
ATOM     23  H   UNL     1       2.767   2.730  21.518  0.00  0.00    +0.000 HD
ENDBRANCH  21  22
ENDBRANCH   3  21
BRANCH   4  24
ATOM     24  O   UNL     1       2.967   4.561  17.849  0.00  0.00    +0.000 OA
BRANCH  24  25
ATOM     25  C   UNL     1       4.262   4.157  17.405  0.00  0.00    +0.000 C 
ATOM     26  O   UNL     1       4.728   5.015  16.355  0.00  0.00    +0.000 OA
ATOM     27  C   UNL     1       6.151   5.200  16.528  0.00  0.00    +0.000 C 
ATOM     28  C   UNL     1       6.587   4.296  17.677  0.00  0.00    +0.000 C 
ATOM     29  C   UNL     1       5.318   4.217  18.517  0.00  0.00    +0.000 C 
BRANCH  28  30
ATOM     30  O   UNL     1       7.715   4.795  18.378  0.00  0.00    +0.000 OA
ATOM     31  H   UNL     1       7.530   5.705  18.670  0.00  0.00    +0.000 HD
ENDBRANCH  28  30
BRANCH  29  32
ATOM     32  O   UNL     1       5.311   3.080  19.380  0.00  0.00    +0.000 OA
ATOM     33  H   UNL     1       4.463   3.033  19.847  0.00  0.00    +0.000 HD
ENDBRANCH  29  32
BRANCH  27  34
ATOM     34  C   UNL     1       6.831   4.841  15.208  0.00  0.00    +0.000 C 
BRANCH  34  35
ATOM     35  O   UNL     1       5.854   4.389  14.269  0.00  0.00    +0.000 OA
ATOM     36  H   UNL     1       6.306   4.363  13.405  0.00  0.00    +0.000 HD
ENDBRANCH  34  35
ENDBRANCH  27  34
ENDBRANCH  24  25
ENDBRANCH   4  24
TORSDOF 15
ENDMDL
MODEL 2
REMARK VINA RESULT:      -6.6      1.439      1.475
REMARK  Name = 
REMARK  16 active torsions:
REMARK  status: ('A' for Active; 'I' for Inactive)
REMARK    1  A    between atoms: C_1  and  O_2
REMARK    2  A    between atoms: O_2  and  C_3
REMARK    3  A    between atoms: C_5  and  C_6
REMARK    4  A    between atoms: C_6  and  O_7
REMARK    5  A    between atoms: O_7  and  C_8
REMARK    6  A    between atoms: C_10  and  C_11
REMARK    7  A    between atoms: C_11  and  O_12
REMARK    8  A    between atoms: C_13  and  O_14
REMARK    9  A    between atoms: O_14  and  C_15
REMARK   10  A    between atoms: C_17  and  C_18
REMARK   11  A    between atoms: C_18  and  O_19
REMARK   12  A    between atoms: C_20  and  O_21
REMARK   13  A    between atoms: C_22  and  O_23
REMARK   14  A    between atoms: C_24  and  O_25
REMARK   15  A    between atoms: C_26  and  O_27
REMARK   16  A    between atoms: C_28  and  O_29
REMARK                            x       y       z     vdW  Elec       q    Type
REMARK                         _______ _______ _______ _____ _____    ______ ____
ROOT
ATOM      1  C   UNL     1       2.256   7.477  19.777  0.00  0.00    +0.000 C 
ATOM      2  O   UNL     1       1.601   6.474  20.554  0.00  0.00    +0.000 OA
ATOM      3  C   UNL     1       1.948   5.177  20.016  0.00  0.00    +0.000 C 
ATOM      4  C   UNL     1       3.036   5.384  18.958  0.00  0.00    +0.000 C 
ATOM      5  C   UNL     1       2.750   6.808  18.496  0.00  0.00    +0.000 C 
ENDROOT
BRANCH   5   6
ATOM      6  O   UNL     1       3.906   7.445  17.941  0.00  0.00    +0.000 OA
ATOM      7  H   UNL     1       3.741   8.403  17.894  0.00  0.00    +0.000 HD
ENDBRANCH   5   6
BRANCH   1   8
ATOM      8  O   UNL     1       1.368   8.534  19.445  0.00  0.00    +0.000 OA
BRANCH   8   9
ATOM      9  C   UNL     1       0.919   9.229  20.611  0.00  0.00    +0.000 C 
BRANCH   9  12
ATOM     10  C   UNL     1       1.670  12.714  20.311  0.00  0.00    +0.000 C 
ATOM     11  O   UNL     1       1.274  11.583  21.103  0.00  0.00    +0.000 OA
ATOM     12  C   UNL     1       0.563  10.667  20.252  0.00  0.00    +0.000 C 
ATOM     13  C   UNL     1       0.918  11.042  18.819  0.00  0.00    +0.000 C 
ATOM     14  C   UNL     1       1.004  12.554  18.934  0.00  0.00    +0.000 C 
BRANCH  10  16
ATOM     15  C   UNL     1       0.198  13.701  21.859  0.00  0.00    +0.000 C 
ATOM     16  O   UNL     1       1.240  13.927  20.920  0.00  0.00    +0.000 OA
ENDBRANCH  10  16
BRANCH  13  17
ATOM     17  O   UNL     1      -0.049  10.588  17.880  0.00  0.00    +0.000 OA
ATOM     18  H   UNL     1      -0.938  10.782  18.225  0.00  0.00    +0.000 HD
ENDBRANCH  13  17
BRANCH  14  19
ATOM     19  O   UNL     1       1.734  13.152  17.864  0.00  0.00    +0.000 OA
ATOM     20  H   UNL     1       1.649  14.119  17.933  0.00  0.00    +0.000 HD
ENDBRANCH  14  19
ENDBRANCH   9  12
ENDBRANCH   8   9
ENDBRANCH   1   8
BRANCH   3  21
ATOM     21  C   UNL     1       2.419   4.333  21.202  0.00  0.00    +0.000 C 
BRANCH  21  22
ATOM     22  O   UNL     1       2.770   3.023  20.752  0.00  0.00    +0.000 OA
ATOM     23  H   UNL     1       3.406   3.150  20.019  0.00  0.00    +0.000 HD
ENDBRANCH  21  22
ENDBRANCH   3  21
BRANCH   4  24
ATOM     24  O   UNL     1       2.944   4.409  17.909  0.00  0.00    +0.000 OA
BRANCH  24  25
ATOM     25  C   UNL     1       4.227   3.993  17.443  0.00  0.00    +0.000 C 
ATOM     26  O   UNL     1       4.652   4.805  16.340  0.00  0.00    +0.000 OA
ATOM     27  C   UNL     1       6.079   5.007  16.459  0.00  0.00    +0.000 C 
ATOM     28  C   UNL     1       6.559   4.160  17.632  0.00  0.00    +0.000 C 
ATOM     29  C   UNL     1       5.318   4.112  18.516  0.00  0.00    +0.000 C 
BRANCH  28  30
ATOM     30  O   UNL     1       7.705   4.699  18.273  0.00  0.00    +0.000 OA
ATOM     31  H   UNL     1       7.874   5.591  17.924  0.00  0.00    +0.000 HD
ENDBRANCH  28  30
BRANCH  29  32
ATOM     32  O   UNL     1       5.348   3.015  19.430  0.00  0.00    +0.000 OA
ATOM     33  H   UNL     1       5.322   3.351  20.339  0.00  0.00    +0.000 HD
ENDBRANCH  29  32
BRANCH  27  34
ATOM     34  C   UNL     1       6.719   4.593  15.135  0.00  0.00    +0.000 C 
BRANCH  34  35
ATOM     35  O   UNL     1       7.644   5.594  14.711  0.00  0.00    +0.000 OA
ATOM     36  H   UNL     1       8.530   5.249  14.928  0.00  0.00    +0.000 HD
ENDBRANCH  34  35
ENDBRANCH  27  34
ENDBRANCH  24  25
ENDBRANCH   4  24
TORSDOF 15
ENDMDL
MODEL 3
REMARK VINA RESULT:      -6.3      2.042      7.981
REMARK  Name = 
REMARK  16 active torsions:
REMARK  status: ('A' for Active; 'I' for Inactive)
REMARK    1  A    between atoms: C_1  and  O_2
REMARK    2  A    between atoms: O_2  and  C_3
REMARK    3  A    between atoms: C_5  and  C_6
REMARK    4  A    between atoms: C_6  and  O_7
REMARK    5  A    between atoms: O_7  and  C_8
REMARK    6  A    between atoms: C_10  and  C_11
REMARK    7  A    between atoms: C_11  and  O_12
REMARK    8  A    between atoms: C_13  and  O_14
REMARK    9  A    between atoms: O_14  and  C_15
REMARK   10  A    between atoms: C_17  and  C_18
REMARK   11  A    between atoms: C_18  and  O_19
REMARK   12  A    between atoms: C_20  and  O_21
REMARK   13  A    between atoms: C_22  and  O_23
REMARK   14  A    between atoms: C_24  and  O_25
REMARK   15  A    between atoms: C_26  and  O_27
REMARK   16  A    between atoms: C_28  and  O_29
REMARK                            x       y       z     vdW  Elec       q    Type
REMARK                         _______ _______ _______ _____ _____    ______ ____
ROOT
ATOM      1  C   UNL     1       3.304   4.652  17.891  0.00  0.00    +0.000 C 
ATOM      2  O   UNL     1       2.780   3.861  18.958  0.00  0.00    +0.000 OA
ATOM      3  C   UNL     1       2.237   4.748  19.963  0.00  0.00    +0.000 C 
ATOM      4  C   UNL     1       2.257   6.170  19.393  0.00  0.00    +0.000 C 
ATOM      5  C   UNL     1       3.409   6.088  18.399  0.00  0.00    +0.000 C 
ENDROOT
BRANCH   5   6
ATOM      6  O   UNL     1       3.300   7.062  17.355  0.00  0.00    +0.000 OA
ATOM      7  H   UNL     1       3.752   6.721  16.564  0.00  0.00    +0.000 HD
ENDBRANCH   5   6
BRANCH   1   8
ATOM      8  O   UNL     1       4.588   4.196  17.494  0.00  0.00    +0.000 OA
BRANCH   8   9
ATOM      9  C   UNL     1       5.041   4.862  16.313  0.00  0.00    +0.000 C 
BRANCH   9  12
ATOM     10  C   UNL     1       7.075   7.493  17.632  0.00  0.00    +0.000 C 
ATOM     11  O   UNL     1       6.224   6.966  16.601  0.00  0.00    +0.000 OA
ATOM     12  C   UNL     1       6.382   5.536  16.578  0.00  0.00    +0.000 C 
ATOM     13  C   UNL     1       7.004   5.147  17.913  0.00  0.00    +0.000 C 
ATOM     14  C   UNL     1       7.932   6.326  18.149  0.00  0.00    +0.000 C 
BRANCH  10  16
ATOM     15  C   UNL     1       8.357   9.400  18.137  0.00  0.00    +0.000 C 
ATOM     16  O   UNL     1       7.914   8.519  17.113  0.00  0.00    +0.000 OA
ENDBRANCH  10  16
BRANCH  13  17
ATOM     17  O   UNL     1       7.667   3.890  17.862  0.00  0.00    +0.000 OA
ATOM     18  H   UNL     1       8.045   3.771  16.973  0.00  0.00    +0.000 HD
ENDBRANCH  13  17
BRANCH  14  19
ATOM     19  O   UNL     1       8.329   6.458  19.512  0.00  0.00    +0.000 OA
ATOM     20  H   UNL     1       7.628   6.927  19.996  0.00  0.00    +0.000 HD
ENDBRANCH  14  19
ENDBRANCH   9  12
ENDBRANCH   8   9
ENDBRANCH   1   8
BRANCH   3  21
ATOM     21  C   UNL     1       0.825   4.243  20.264  0.00  0.00    +0.000 C 
BRANCH  21  22
ATOM     22  O   UNL     1       0.761   2.834  20.039  0.00  0.00    +0.000 OA
ATOM     23  H   UNL     1      -0.138   2.557  20.308  0.00  0.00    +0.000 HD
ENDBRANCH  21  22
ENDBRANCH   3  21
BRANCH   4  24
ATOM     24  O   UNL     1       2.455   7.148  20.425  0.00  0.00    +0.000 OA
BRANCH  24  25
ATOM     25  C   UNL     1       1.363   8.062  20.519  0.00  0.00    +0.000 C 
ATOM     26  O   UNL     1       1.237   8.563  21.858  0.00  0.00    +0.000 OA
ATOM     27  C   UNL     1       0.844   9.952  21.780  0.00  0.00    +0.000 C 
ATOM     28  C   UNL     1       0.597  10.269  20.309  0.00  0.00    +0.000 C 
ATOM     29  C   UNL     1       1.532   9.288  19.612  0.00  0.00    +0.000 C 
BRANCH  28  30
ATOM     30  O   UNL     1       0.840  11.629  19.986  0.00  0.00    +0.000 OA
ATOM     31  H   UNL     1       0.021  12.138  20.118  0.00  0.00    +0.000 HD
ENDBRANCH  28  30
BRANCH  29  32
ATOM     32  O   UNL     1       1.156   9.055  18.254  0.00  0.00    +0.000 OA
ATOM     33  H   UNL     1       0.227   9.301  18.128  0.00  0.00    +0.000 HD
ENDBRANCH  29  32
BRANCH  27  34
ATOM     34  C   UNL     1      -0.407  10.131  22.638  0.00  0.00    +0.000 C 
BRANCH  34  35
ATOM     35  O   UNL     1      -0.196   9.550  23.926  0.00  0.00    +0.000 OA
ATOM     36  H   UNL     1      -0.722   8.729  23.939  0.00  0.00    +0.000 HD
ENDBRANCH  34  35
ENDBRANCH  27  34
ENDBRANCH  24  25
ENDBRANCH   4  24
TORSDOF 15
ENDMDL
MODEL 4
REMARK VINA RESULT:      -6.3      1.435      2.256
REMARK  Name = 
REMARK  16 active torsions:
REMARK  status: ('A' for Active; 'I' for Inactive)
REMARK    1  A    between atoms: C_1  and  O_2
REMARK    2  A    between atoms: O_2  and  C_3
REMARK    3  A    between atoms: C_5  and  C_6
REMARK    4  A    between atoms: C_6  and  O_7
REMARK    5  A    between atoms: O_7  and  C_8
REMARK    6  A    between atoms: C_10  and  C_11
REMARK    7  A    between atoms: C_11  and  O_12
REMARK    8  A    between atoms: C_13  and  O_14
REMARK    9  A    between atoms: O_14  and  C_15
REMARK   10  A    between atoms: C_17  and  C_18
REMARK   11  A    between atoms: C_18  and  O_19
REMARK   12  A    between atoms: C_20  and  O_21
REMARK   13  A    between atoms: C_22  and  O_23
REMARK   14  A    between atoms: C_24  and  O_25
REMARK   15  A    between atoms: C_26  and  O_27
REMARK   16  A    between atoms: C_28  and  O_29
REMARK                            x       y       z     vdW  Elec       q    Type
REMARK                         _______ _______ _______ _____ _____    ______ ____
ROOT
ATOM      1  C   UNL     1       2.161   7.449  20.086  0.00  0.00    +0.000 C 
ATOM      2  O   UNL     1       1.567   6.389  20.837  0.00  0.00    +0.000 OA
ATOM      3  C   UNL     1       1.893   5.134  20.195  0.00  0.00    +0.000 C 
ATOM      4  C   UNL     1       2.910   5.424  19.088  0.00  0.00    +0.000 C 
ATOM      5  C   UNL     1       2.581   6.869  18.736  0.00  0.00    +0.000 C 
ENDROOT
BRANCH   5   6
ATOM      6  O   UNL     1       3.693   7.557  18.152  0.00  0.00    +0.000 OA
ATOM      7  H   UNL     1       4.415   7.590  18.803  0.00  0.00    +0.000 HD
ENDBRANCH   5   6
BRANCH   1   8
ATOM      8  O   UNL     1       1.244   8.512  19.879  0.00  0.00    +0.000 OA
BRANCH   8   9
ATOM      9  C   UNL     1       0.291   8.599  20.941  0.00  0.00    +0.000 C 
BRANCH   9  12
ATOM     10  C   UNL     1      -1.243  11.824  21.145  0.00  0.00    +0.000 C 
ATOM     11  O   UNL     1      -0.403  10.879  20.463  0.00  0.00    +0.000 OA
ATOM     12  C   UNL     1       0.213  10.034  21.451  0.00  0.00    +0.000 C 
ATOM     13  C   UNL     1      -0.612  10.182  22.723  0.00  0.00    +0.000 C 
ATOM     14  C   UNL     1      -0.983  11.653  22.650  0.00  0.00    +0.000 C 
BRANCH  10  16
ATOM     15  C   UNL     1       0.239  13.634  21.403  0.00  0.00    +0.000 C 
ATOM     16  O   UNL     1      -0.927  13.154  20.746  0.00  0.00    +0.000 OA
ENDBRANCH  10  16
BRANCH  13  17
ATOM     17  O   UNL     1       0.118   9.827  23.892  0.00  0.00    +0.000 OA
ATOM     18  H   UNL     1       0.133  10.590  24.496  0.00  0.00    +0.000 HD
ENDBRANCH  13  17
BRANCH  14  19
ATOM     19  O   UNL     1      -2.100  11.985  23.473  0.00  0.00    +0.000 OA
ATOM     20  H   UNL     1      -1.783  12.138  24.380  0.00  0.00    +0.000 HD
ENDBRANCH  14  19
ENDBRANCH   9  12
ENDBRANCH   8   9
ENDBRANCH   1   8
BRANCH   3  21
ATOM     21  C   UNL     1       2.446   4.223  21.294  0.00  0.00    +0.000 C 
BRANCH  21  22
ATOM     22  O   UNL     1       1.533   3.153  21.537  0.00  0.00    +0.000 OA
ATOM     23  H   UNL     1       1.582   2.968  22.497  0.00  0.00    +0.000 HD
ENDBRANCH  21  22
ENDBRANCH   3  21
BRANCH   4  24
ATOM     24  O   UNL     1       2.762   4.515  17.986  0.00  0.00    +0.000 OA
BRANCH  24  25
ATOM     25  C   UNL     1       4.019   4.102  17.453  0.00  0.00    +0.000 C 
ATOM     26  O   UNL     1       4.454   5.005  16.426  0.00  0.00    +0.000 OA
ATOM     27  C   UNL     1       5.890   5.142  16.532  0.00  0.00    +0.000 C 
ATOM     28  C   UNL     1       6.358   4.166  17.605  0.00  0.00    +0.000 C 
ATOM     29  C   UNL     1       5.133   4.074  18.507  0.00  0.00    +0.000 C 
BRANCH  28  30
ATOM     30  O   UNL     1       7.536   4.596  18.271  0.00  0.00    +0.000 OA
ATOM     31  H   UNL     1       7.856   3.879  18.846  0.00  0.00    +0.000 HD
ENDBRANCH  28  30
BRANCH  29  32
ATOM     32  O   UNL     1       5.139   2.892  19.308  0.00  0.00    +0.000 OA
ATOM     33  H   UNL     1       4.412   2.930  19.948  0.00  0.00    +0.000 HD
ENDBRANCH  29  32
BRANCH  27  34
ATOM     34  C   UNL     1       6.488   4.839  15.160  0.00  0.00    +0.000 C 
BRANCH  34  35
ATOM     35  O   UNL     1       7.663   5.626  14.961  0.00  0.00    +0.000 OA
ATOM     36  H   UNL     1       7.359   6.551  14.899  0.00  0.00    +0.000 HD
ENDBRANCH  34  35
ENDBRANCH  27  34
ENDBRANCH  24  25
ENDBRANCH   4  24
TORSDOF 15
ENDMDL
MODEL 5
REMARK VINA RESULT:      -6.3      1.008      1.816
REMARK  Name = 
REMARK  16 active torsions:
REMARK  status: ('A' for Active; 'I' for Inactive)
REMARK    1  A    between atoms: C_1  and  O_2
REMARK    2  A    between atoms: O_2  and  C_3
REMARK    3  A    between atoms: C_5  and  C_6
REMARK    4  A    between atoms: C_6  and  O_7
REMARK    5  A    between atoms: O_7  and  C_8
REMARK    6  A    between atoms: C_10  and  C_11
REMARK    7  A    between atoms: C_11  and  O_12
REMARK    8  A    between atoms: C_13  and  O_14
REMARK    9  A    between atoms: O_14  and  C_15
REMARK   10  A    between atoms: C_17  and  C_18
REMARK   11  A    between atoms: C_18  and  O_19
REMARK   12  A    between atoms: C_20  and  O_21
REMARK   13  A    between atoms: C_22  and  O_23
REMARK   14  A    between atoms: C_24  and  O_25
REMARK   15  A    between atoms: C_26  and  O_27
REMARK   16  A    between atoms: C_28  and  O_29
REMARK                            x       y       z     vdW  Elec       q    Type
REMARK                         _______ _______ _______ _____ _____    ______ ____
ROOT
ATOM      1  C   UNL     1       2.109   7.365  20.069  0.00  0.00    +0.000 C 
ATOM      2  O   UNL     1       1.496   6.309  20.810  0.00  0.00    +0.000 OA
ATOM      3  C   UNL     1       1.833   5.051  20.180  0.00  0.00    +0.000 C 
ATOM      4  C   UNL     1       2.874   5.335  19.093  0.00  0.00    +0.000 C 
ATOM      5  C   UNL     1       2.555   6.780  18.731  0.00  0.00    +0.000 C 
ENDROOT
BRANCH   5   6
ATOM      6  O   UNL     1       3.681   7.464  18.168  0.00  0.00    +0.000 OA
ATOM      7  H   UNL     1       4.222   7.822  18.893  0.00  0.00    +0.000 HD
ENDBRANCH   5   6
BRANCH   1   8
ATOM      8  O   UNL     1       1.198   8.429  19.840  0.00  0.00    +0.000 OA
BRANCH   8   9
ATOM      9  C   UNL     1       1.023   9.233  21.009  0.00  0.00    +0.000 C 
BRANCH   9  12
ATOM     10  C   UNL     1      -1.151  11.405  19.176  0.00  0.00    +0.000 C 
ATOM     11  O   UNL     1       0.033  10.595  19.255  0.00  0.00    +0.000 OA
ATOM     12  C   UNL     1       0.495  10.609  20.618  0.00  0.00    +0.000 C 
ATOM     13  C   UNL     1      -0.680  11.073  21.469  0.00  0.00    +0.000 C 
ATOM     14  C   UNL     1      -1.317  12.093  20.541  0.00  0.00    +0.000 C 
BRANCH  10  16
ATOM     15  C   UNL     1      -0.251  13.497  18.586  0.00  0.00    +0.000 C 
ATOM     16  O   UNL     1      -1.021  12.384  18.151  0.00  0.00    +0.000 OA
ENDBRANCH  10  16
BRANCH  13  17
ATOM     17  O   UNL     1      -0.269  11.608  22.722  0.00  0.00    +0.000 OA
ATOM     18  H   UNL     1       0.633  11.300  22.913  0.00  0.00    +0.000 HD
ENDBRANCH  13  17
BRANCH  14  19
ATOM     19  O   UNL     1      -2.671  12.386  20.882  0.00  0.00    +0.000 OA
ATOM     20  H   UNL     1      -2.884  11.934  21.717  0.00  0.00    +0.000 HD
ENDBRANCH  14  19
ENDBRANCH   9  12
ENDBRANCH   8   9
ENDBRANCH   1   8
BRANCH   3  21
ATOM     21  C   UNL     1       2.361   4.143  21.292  0.00  0.00    +0.000 C 
BRANCH  21  22
ATOM     22  O   UNL     1       1.443   3.071  21.514  0.00  0.00    +0.000 OA
ATOM     23  H   UNL     1       1.931   2.399  22.032  0.00  0.00    +0.000 HD
ENDBRANCH  21  22
ENDBRANCH   3  21
BRANCH   4  24
ATOM     24  O   UNL     1       2.747   4.424  17.991  0.00  0.00    +0.000 OA
BRANCH  24  25
ATOM     25  C   UNL     1       4.011   4.080  17.426  0.00  0.00    +0.000 C 
ATOM     26  O   UNL     1       4.382   5.018  16.406  0.00  0.00    +0.000 OA
ATOM     27  C   UNL     1       5.810   5.223  16.486  0.00  0.00    +0.000 C 
ATOM     28  C   UNL     1       6.347   4.253  17.532  0.00  0.00    +0.000 C 
ATOM     29  C   UNL     1       5.147   4.088  18.457  0.00  0.00    +0.000 C 
BRANCH  28  30
ATOM     30  O   UNL     1       7.517   4.728  18.181  0.00  0.00    +0.000 OA
ATOM     31  H   UNL     1       8.000   3.972  18.558  0.00  0.00    +0.000 HD
ENDBRANCH  28  30
BRANCH  29  32
ATOM     32  O   UNL     1       5.226   2.894  19.237  0.00  0.00    +0.000 OA
ATOM     33  H   UNL     1       5.436   3.121  20.155  0.00  0.00    +0.000 HD
ENDBRANCH  29  32
BRANCH  27  34
ATOM     34  C   UNL     1       6.394   4.971  15.096  0.00  0.00    +0.000 C 
BRANCH  34  35
ATOM     35  O   UNL     1       7.734   5.462  15.039  0.00  0.00    +0.000 OA
ATOM     36  H   UNL     1       7.770   6.215  15.658  0.00  0.00    +0.000 HD
ENDBRANCH  34  35
ENDBRANCH  27  34
ENDBRANCH  24  25
ENDBRANCH   4  24
TORSDOF 15
ENDMDL
MODEL 6
REMARK VINA RESULT:      -6.2      1.677      7.919
REMARK  Name = 
REMARK  16 active torsions:
REMARK  status: ('A' for Active; 'I' for Inactive)
REMARK    1  A    between atoms: C_1  and  O_2
REMARK    2  A    between atoms: O_2  and  C_3
REMARK    3  A    between atoms: C_5  and  C_6
REMARK    4  A    between atoms: C_6  and  O_7
REMARK    5  A    between atoms: O_7  and  C_8
REMARK    6  A    between atoms: C_10  and  C_11
REMARK    7  A    between atoms: C_11  and  O_12
REMARK    8  A    between atoms: C_13  and  O_14
REMARK    9  A    between atoms: O_14  and  C_15
REMARK   10  A    between atoms: C_17  and  C_18
REMARK   11  A    between atoms: C_18  and  O_19
REMARK   12  A    between atoms: C_20  and  O_21
REMARK   13  A    between atoms: C_22  and  O_23
REMARK   14  A    between atoms: C_24  and  O_25
REMARK   15  A    between atoms: C_26  and  O_27
REMARK   16  A    between atoms: C_28  and  O_29
REMARK                            x       y       z     vdW  Elec       q    Type
REMARK                         _______ _______ _______ _____ _____    ______ ____
ROOT
ATOM      1  C   UNL     1       3.518   3.892  18.439  0.00  0.00    +0.000 C 
ATOM      2  O   UNL     1       2.891   3.473  19.651  0.00  0.00    +0.000 OA
ATOM      3  C   UNL     1       2.279   4.626  20.273  0.00  0.00    +0.000 C 
ATOM      4  C   UNL     1       2.371   5.794  19.287  0.00  0.00    +0.000 C 
ATOM      5  C   UNL     1       3.603   5.417  18.474  0.00  0.00    +0.000 C 
ENDROOT
BRANCH   5   6
ATOM      6  O   UNL     1       3.600   6.009  17.170  0.00  0.00    +0.000 OA
ATOM      7  H   UNL     1       4.521   6.167  16.899  0.00  0.00    +0.000 HD
ENDBRANCH   5   6
BRANCH   1   8
ATOM      8  O   UNL     1       4.824   3.349  18.319  0.00  0.00    +0.000 OA
BRANCH   8   9
ATOM      9  C   UNL     1       5.771   4.079  19.103  0.00  0.00    +0.000 C 
BRANCH   9  12
ATOM     10  C   UNL     1       6.845   5.904  16.220  0.00  0.00    +0.000 C 
ATOM     11  O   UNL     1       6.391   4.686  16.833  0.00  0.00    +0.000 OA
ATOM     12  C   UNL     1       6.842   4.678  18.199  0.00  0.00    +0.000 C 
ATOM     13  C   UNL     1       7.195   6.118  18.547  0.00  0.00    +0.000 C 
ATOM     14  C   UNL     1       7.777   6.595  17.228  0.00  0.00    +0.000 C 
BRANCH  10  16
ATOM     15  C   UNL     1       6.855   4.691  14.204  0.00  0.00    +0.000 C 
ATOM     16  O   UNL     1       7.552   5.626  15.016  0.00  0.00    +0.000 OA
ENDBRANCH  10  16
BRANCH  13  17
ATOM     17  O   UNL     1       8.098   6.209  19.644  0.00  0.00    +0.000 OA
ATOM     18  H   UNL     1       9.007   6.242  19.300  0.00  0.00    +0.000 HD
ENDBRANCH  13  17
BRANCH  14  19
ATOM     19  O   UNL     1       7.804   8.017  17.114  0.00  0.00    +0.000 OA
ATOM     20  H   UNL     1       8.641   8.279  16.693  0.00  0.00    +0.000 HD
ENDBRANCH  14  19
ENDBRANCH   9  12
ENDBRANCH   8   9
ENDBRANCH   1   8
BRANCH   3  21
ATOM     21  C   UNL     1       0.838   4.225  20.593  0.00  0.00    +0.000 C 
BRANCH  21  22
ATOM     22  O   UNL     1       0.826   2.952  21.243  0.00  0.00    +0.000 OA
ATOM     23  H   UNL     1       0.302   3.071  22.061  0.00  0.00    +0.000 HD
ENDBRANCH  21  22
ENDBRANCH   3  21
BRANCH   4  24
ATOM     24  O   UNL     1       2.494   7.051  19.970  0.00  0.00    +0.000 OA
BRANCH  24  25
ATOM     25  C   UNL     1       1.557   8.018  19.498  0.00  0.00    +0.000 C 
ATOM     26  O   UNL     1       1.037   8.793  20.588  0.00  0.00    +0.000 OA
ATOM     27  C   UNL     1       0.867  10.152  20.127  0.00  0.00    +0.000 C 
ATOM     28  C   UNL     1       1.183  10.166  18.636  0.00  0.00    +0.000 C 
ATOM     29  C   UNL     1       2.176   9.016  18.511  0.00  0.00    +0.000 C 
BRANCH  28  30
ATOM     30  O   UNL     1       1.686  11.415  18.187  0.00  0.00    +0.000 OA
ATOM     31  H   UNL     1       0.953  11.938  17.817  0.00  0.00    +0.000 HD
ENDBRANCH  28  30
BRANCH  29  32
ATOM     32  O   UNL     1       2.267   8.524  17.175  0.00  0.00    +0.000 OA
ATOM     33  H   UNL     1       3.024   8.933  16.729  0.00  0.00    +0.000 HD
ENDBRANCH  29  32
BRANCH  27  34
ATOM     34  C   UNL     1      -0.572  10.568  20.427  0.00  0.00    +0.000 C 
BRANCH  34  35
ATOM     35  O   UNL     1      -1.293  10.728  19.205  0.00  0.00    +0.000 OA
ATOM     36  H   UNL     1      -1.723  11.602  19.259  0.00  0.00    +0.000 HD
ENDBRANCH  34  35
ENDBRANCH  27  34
ENDBRANCH  24  25
ENDBRANCH   4  24
TORSDOF 15
ENDMDL
MODEL 7
REMARK VINA RESULT:      -6.2      1.211      1.554
REMARK  Name = 
REMARK  16 active torsions:
REMARK  status: ('A' for Active; 'I' for Inactive)
REMARK    1  A    between atoms: C_1  and  O_2
REMARK    2  A    between atoms: O_2  and  C_3
REMARK    3  A    between atoms: C_5  and  C_6
REMARK    4  A    between atoms: C_6  and  O_7
REMARK    5  A    between atoms: O_7  and  C_8
REMARK    6  A    between atoms: C_10  and  C_11
REMARK    7  A    between atoms: C_11  and  O_12
REMARK    8  A    between atoms: C_13  and  O_14
REMARK    9  A    between atoms: O_14  and  C_15
REMARK   10  A    between atoms: C_17  and  C_18
REMARK   11  A    between atoms: C_18  and  O_19
REMARK   12  A    between atoms: C_20  and  O_21
REMARK   13  A    between atoms: C_22  and  O_23
REMARK   14  A    between atoms: C_24  and  O_25
REMARK   15  A    between atoms: C_26  and  O_27
REMARK   16  A    between atoms: C_28  and  O_29
REMARK                            x       y       z     vdW  Elec       q    Type
REMARK                         _______ _______ _______ _____ _____    ______ ____
ROOT
ATOM      1  C   UNL     1       2.399   7.733  19.346  0.00  0.00    +0.000 C 
ATOM      2  O   UNL     1       1.746   6.751  20.152  0.00  0.00    +0.000 OA
ATOM      3  C   UNL     1       2.084   5.440  19.641  0.00  0.00    +0.000 C 
ATOM      4  C   UNL     1       3.165   5.619  18.571  0.00  0.00    +0.000 C 
ATOM      5  C   UNL     1       2.881   7.032  18.078  0.00  0.00    +0.000 C 
ENDROOT
BRANCH   5   6
ATOM      6  O   UNL     1       4.035   7.651  17.499  0.00  0.00    +0.000 OA
ATOM      7  H   UNL     1       3.970   8.613  17.628  0.00  0.00    +0.000 HD
ENDBRANCH   5   6
BRANCH   1   8
ATOM      8  O   UNL     1       1.513   8.785  18.997  0.00  0.00    +0.000 OA
BRANCH   8   9
ATOM      9  C   UNL     1       0.665   9.144  20.090  0.00  0.00    +0.000 C 
BRANCH   9  12
ATOM     10  C   UNL     1       1.009  12.459  18.791  0.00  0.00    +0.000 C 
ATOM     11  O   UNL     1       1.377  11.440  19.734  0.00  0.00    +0.000 OA
ATOM     12  C   UNL     1       0.231  10.599  19.955  0.00  0.00    +0.000 C 
ATOM     13  C   UNL     1      -0.718  10.845  18.790  0.00  0.00    +0.000 C 
ATOM     14  C   UNL     1      -0.506  12.332  18.560  0.00  0.00    +0.000 C 
BRANCH  10  16
ATOM     15  C   UNL     1       2.467  13.725  20.135  0.00  0.00    +0.000 C 
ATOM     16  O   UNL     1       1.314  13.751  19.304  0.00  0.00    +0.000 OA
ENDBRANCH  10  16
BRANCH  13  17
ATOM     17  O   UNL     1      -2.062  10.494  19.097  0.00  0.00    +0.000 OA
ATOM     18  H   UNL     1      -2.453  11.196  19.645  0.00  0.00    +0.000 HD
ENDBRANCH  13  17
BRANCH  14  19
ATOM     19  O   UNL     1      -0.934  12.760  17.268  0.00  0.00    +0.000 OA
ATOM     20  H   UNL     1      -1.049  11.977  16.704  0.00  0.00    +0.000 HD
ENDBRANCH  14  19
ENDBRANCH   9  12
ENDBRANCH   8   9
ENDBRANCH   1   8
BRANCH   3  21
ATOM     21  C   UNL     1       2.560   4.623  20.843  0.00  0.00    +0.000 C 
BRANCH  21  22
ATOM     22  O   UNL     1       2.967   3.324  20.411  0.00  0.00    +0.000 OA
ATOM     23  H   UNL     1       2.147   2.852  20.160  0.00  0.00    +0.000 HD
ENDBRANCH  21  22
ENDBRANCH   3  21
BRANCH   4  24
ATOM     24  O   UNL     1       3.061   4.619  17.546  0.00  0.00    +0.000 OA
BRANCH  24  25
ATOM     25  C   UNL     1       4.337   4.213  17.055  0.00  0.00    +0.000 C 
ATOM     26  O   UNL     1       4.732   5.024  15.940  0.00  0.00    +0.000 OA
ATOM     27  C   UNL     1       6.159   5.240  16.027  0.00  0.00    +0.000 C 
ATOM     28  C   UNL     1       6.671   4.403  17.194  0.00  0.00    +0.000 C 
ATOM     29  C   UNL     1       5.449   4.346  18.104  0.00  0.00    +0.000 C 
BRANCH  28  30
ATOM     30  O   UNL     1       7.825   4.955  17.808  0.00  0.00    +0.000 OA
ATOM     31  H   UNL     1       8.616   4.654  17.326  0.00  0.00    +0.000 HD
ENDBRANCH  28  30
BRANCH  29  32
ATOM     32  O   UNL     1       5.509   3.255  19.021  0.00  0.00    +0.000 OA
ATOM     33  H   UNL     1       5.546   2.420  18.530  0.00  0.00    +0.000 HD
ENDBRANCH  29  32
BRANCH  27  34
ATOM     34  C   UNL     1       6.774   4.826  14.692  0.00  0.00    +0.000 C 
BRANCH  34  35
ATOM     35  O   UNL     1       6.345   3.507  14.350  0.00  0.00    +0.000 OA
ATOM     36  H   UNL     1       5.841   3.182  15.119  0.00  0.00    +0.000 HD
ENDBRANCH  34  35
ENDBRANCH  27  34
ENDBRANCH  24  25
ENDBRANCH   4  24
TORSDOF 15
ENDMDL
MODEL 8
REMARK VINA RESULT:      -6.2      1.633      8.341
REMARK  Name = 
REMARK  16 active torsions:
REMARK  status: ('A' for Active; 'I' for Inactive)
REMARK    1  A    between atoms: C_1  and  O_2
REMARK    2  A    between atoms: O_2  and  C_3
REMARK    3  A    between atoms: C_5  and  C_6
REMARK    4  A    between atoms: C_6  and  O_7
REMARK    5  A    between atoms: O_7  and  C_8
REMARK    6  A    between atoms: C_10  and  C_11
REMARK    7  A    between atoms: C_11  and  O_12
REMARK    8  A    between atoms: C_13  and  O_14
REMARK    9  A    between atoms: O_14  and  C_15
REMARK   10  A    between atoms: C_17  and  C_18
REMARK   11  A    between atoms: C_18  and  O_19
REMARK   12  A    between atoms: C_20  and  O_21
REMARK   13  A    between atoms: C_22  and  O_23
REMARK   14  A    between atoms: C_24  and  O_25
REMARK   15  A    between atoms: C_26  and  O_27
REMARK   16  A    between atoms: C_28  and  O_29
REMARK                            x       y       z     vdW  Elec       q    Type
REMARK                         _______ _______ _______ _____ _____    ______ ____
ROOT
ATOM      1  C   UNL     1       3.141   5.518  18.403  0.00  0.00    +0.000 C 
ATOM      2  O   UNL     1       2.823   4.401  19.233  0.00  0.00    +0.000 OA
ATOM      3  C   UNL     1       1.943   4.851  20.290  0.00  0.00    +0.000 C 
ATOM      4  C   UNL     1       1.541   6.296  19.981  0.00  0.00    +0.000 C 
ATOM      5  C   UNL     1       2.730   6.779  19.160  0.00  0.00    +0.000 C 
ENDROOT
BRANCH   5   6
ATOM      6  O   UNL     1       2.391   7.867  18.294  0.00  0.00    +0.000 OA
ATOM      7  H   UNL     1       3.166   8.082  17.746  0.00  0.00    +0.000 HD
ENDBRANCH   5   6
BRANCH   1   8
ATOM      8  O   UNL     1       4.531   5.570  18.118  0.00  0.00    +0.000 OA
BRANCH   8   9
ATOM      9  C   UNL     1       5.129   4.272  18.175  0.00  0.00    +0.000 C 
BRANCH   9  12
ATOM     10  C   UNL     1       5.548   4.745  14.654  0.00  0.00    +0.000 C 
ATOM     11  O   UNL     1       4.809   4.215  15.766  0.00  0.00    +0.000 OA
ATOM     12  C   UNL     1       5.740   3.922  16.823  0.00  0.00    +0.000 C 
ATOM     13  C   UNL     1       7.011   4.701  16.511  0.00  0.00    +0.000 C 
ATOM     14  C   UNL     1       7.040   4.599  14.995  0.00  0.00    +0.000 C 
BRANCH  10  16
ATOM     15  C   UNL     1       6.432   3.612  12.791  0.00  0.00    +0.000 C 
ATOM     16  O   UNL     1       5.250   4.023  13.465  0.00  0.00    +0.000 OA
ENDBRANCH  10  16
BRANCH  13  17
ATOM     17  O   UNL     1       8.158   4.153  17.149  0.00  0.00    +0.000 OA
ATOM     18  H   UNL     1       8.827   4.854  17.246  0.00  0.00    +0.000 HD
ENDBRANCH  13  17
BRANCH  14  19
ATOM     19  O   UNL     1       7.873   5.586  14.388  0.00  0.00    +0.000 OA
ATOM     20  H   UNL     1       8.139   5.268  13.508  0.00  0.00    +0.000 HD
ENDBRANCH  14  19
ENDBRANCH   9  12
ENDBRANCH   8   9
ENDBRANCH   1   8
BRANCH   3  21
ATOM     21  C   UNL     1       0.755   3.887  20.296  0.00  0.00    +0.000 C 
BRANCH  21  22
ATOM     22  O   UNL     1       0.916   2.932  21.347  0.00  0.00    +0.000 OA
ATOM     23  H   UNL     1       1.826   2.585  21.260  0.00  0.00    +0.000 HD
ENDBRANCH  21  22
ENDBRANCH   3  21
BRANCH   4  24
ATOM     24  O   UNL     1       1.326   7.051  21.183  0.00  0.00    +0.000 OA
BRANCH  24  25
ATOM     25  C   UNL     1       1.367   8.458  20.952  0.00  0.00    +0.000 C 
ATOM     26  O   UNL     1       0.373   8.843  19.992  0.00  0.00    +0.000 OA
ATOM     27  C   UNL     1      -0.161  10.125  20.392  0.00  0.00    +0.000 C 
ATOM     28  C   UNL     1       0.650  10.597  21.593  0.00  0.00    +0.000 C 
ATOM     29  C   UNL     1       1.087   9.278  22.219  0.00  0.00    +0.000 C 
BRANCH  28  30
ATOM     30  O   UNL     1      -0.090  11.435  22.468  0.00  0.00    +0.000 OA
ATOM     31  H   UNL     1      -0.253  10.959  23.301  0.00  0.00    +0.000 HD
ENDBRANCH  28  30
BRANCH  29  32
ATOM     32  O   UNL     1       2.224   9.433  23.067  0.00  0.00    +0.000 OA
ATOM     33  H   UNL     1       2.973   9.764  22.549  0.00  0.00    +0.000 HD
ENDBRANCH  29  32
BRANCH  27  34
ATOM     34  C   UNL     1      -0.046  11.070  19.197  0.00  0.00    +0.000 C 
BRANCH  34  35
ATOM     35  O   UNL     1       0.582  10.395  18.106  0.00  0.00    +0.000 OA
ATOM     36  H   UNL     1       1.310  10.976  17.816  0.00  0.00    +0.000 HD
ENDBRANCH  34  35
ENDBRANCH  27  34
ENDBRANCH  24  25
ENDBRANCH   4  24
TORSDOF 15
ENDMDL
MODEL 9
REMARK VINA RESULT:      -6.2      1.809      4.327
REMARK  Name = 
REMARK  16 active torsions:
REMARK  status: ('A' for Active; 'I' for Inactive)
REMARK    1  A    between atoms: C_1  and  O_2
REMARK    2  A    between atoms: O_2  and  C_3
REMARK    3  A    between atoms: C_5  and  C_6
REMARK    4  A    between atoms: C_6  and  O_7
REMARK    5  A    between atoms: O_7  and  C_8
REMARK    6  A    between atoms: C_10  and  C_11
REMARK    7  A    between atoms: C_11  and  O_12
REMARK    8  A    between atoms: C_13  and  O_14
REMARK    9  A    between atoms: O_14  and  C_15
REMARK   10  A    between atoms: C_17  and  C_18
REMARK   11  A    between atoms: C_18  and  O_19
REMARK   12  A    between atoms: C_20  and  O_21
REMARK   13  A    between atoms: C_22  and  O_23
REMARK   14  A    between atoms: C_24  and  O_25
REMARK   15  A    between atoms: C_26  and  O_27
REMARK   16  A    between atoms: C_28  and  O_29
REMARK                            x       y       z     vdW  Elec       q    Type
REMARK                         _______ _______ _______ _____ _____    ______ ____
ROOT
ATOM      1  C   UNL     1       3.234   7.547  17.539  0.00  0.00    +0.000 C 
ATOM      2  O   UNL     1       4.424   7.406  16.764  0.00  0.00    +0.000 OA
ATOM      3  C   UNL     1       5.052   6.150  17.112  0.00  0.00    +0.000 C 
ATOM      4  C   UNL     1       4.089   5.380  18.020  0.00  0.00    +0.000 C 
ATOM      5  C   UNL     1       3.298   6.513  18.662  0.00  0.00    +0.000 C 
ENDROOT
BRANCH   5   6
ATOM      6  O   UNL     1       2.005   6.091  19.110  0.00  0.00    +0.000 OA
ATOM      7  H   UNL     1       1.330   6.633  18.666  0.00  0.00    +0.000 HD
ENDBRANCH   5   6
BRANCH   1   8
ATOM      8  O   UNL     1       3.134   8.847  18.100  0.00  0.00    +0.000 OA
BRANCH   8   9
ATOM      9  C   UNL     1       1.997   9.552  17.596  0.00  0.00    +0.000 C 
BRANCH   9  12
ATOM     10  C   UNL     1       0.458   9.813  20.814  0.00  0.00    +0.000 C 
ATOM     11  O   UNL     1       1.298   9.113  19.882  0.00  0.00    +0.000 OA
ATOM     12  C   UNL     1       0.822   9.394  18.554  0.00  0.00    +0.000 C 
ATOM     13  C   UNL     1      -0.047  10.640  18.659  0.00  0.00    +0.000 C 
ATOM     14  C   UNL     1      -0.705  10.415  20.010  0.00  0.00    +0.000 C 
BRANCH  10  16
ATOM     15  C   UNL     1      -0.041   9.514  23.094  0.00  0.00    +0.000 C 
ATOM     16  O   UNL     1      -0.045   8.921  21.803  0.00  0.00    +0.000 OA
ENDBRANCH  10  16
BRANCH  13  17
ATOM     17  O   UNL     1      -0.968  10.758  17.580  0.00  0.00    +0.000 OA
ATOM     18  H   UNL     1      -1.513   9.953  17.544  0.00  0.00    +0.000 HD
ENDBRANCH  13  17
BRANCH  14  19
ATOM     19  O   UNL     1      -1.243  11.610  20.572  0.00  0.00    +0.000 OA
ATOM     20  H   UNL     1      -2.210  11.516  20.633  0.00  0.00    +0.000 HD
ENDBRANCH  14  19
ENDBRANCH   9  12
ENDBRANCH   8   9
ENDBRANCH   1   8
BRANCH   3  21
ATOM     21  C   UNL     1       5.333   5.432  15.790  0.00  0.00    +0.000 C 
BRANCH  21  22
ATOM     22  O   UNL     1       5.324   4.019  15.999  0.00  0.00    +0.000 OA
ATOM     23  H   UNL     1       6.063   3.661  15.467  0.00  0.00    +0.000 HD
ENDBRANCH  21  22
ENDBRANCH   3  21
BRANCH   4  24
ATOM     24  O   UNL     1       4.796   4.564  18.966  0.00  0.00    +0.000 OA
BRANCH  24  25
ATOM     25  C   UNL     1       4.015   3.459  19.417  0.00  0.00    +0.000 C 
ATOM     26  O   UNL     1       3.003   3.896  20.335  0.00  0.00    +0.000 OA
ATOM     27  C   UNL     1       1.814   3.109  20.097  0.00  0.00    +0.000 C 
ATOM     28  C   UNL     1       2.174   2.051  19.060  0.00  0.00    +0.000 C 
ATOM     29  C   UNL     1       3.284   2.740  18.275  0.00  0.00    +0.000 C 
BRANCH  28  30
ATOM     30  O   UNL     1       1.066   1.652  18.266  0.00  0.00    +0.000 OA
ATOM     31  H   UNL     1       1.392   1.174  17.483  0.00  0.00    +0.000 HD
ENDBRANCH  28  30
BRANCH  29  32
ATOM     32  O   UNL     1       4.101   1.810  17.564  0.00  0.00    +0.000 OA
ATOM     33  H   UNL     1       3.944   1.902  16.612  0.00  0.00    +0.000 HD
ENDBRANCH  29  32
BRANCH  27  34
ATOM     34  C   UNL     1       1.383   2.502  21.431  0.00  0.00    +0.000 C 
BRANCH  34  35
ATOM     35  O   UNL     1       2.349   2.809  22.436  0.00  0.00    +0.000 OA
ATOM     36  H   UNL     1       2.499   3.771  22.378  0.00  0.00    +0.000 HD
ENDBRANCH  34  35
ENDBRANCH  27  34
ENDBRANCH  24  25
ENDBRANCH   4  24
TORSDOF 15
ENDMDL
