MODEL 1
REMARK VINA RESULT:      -8.7      0.000      0.000
REMARK  Name = 
REMARK  6 active torsions:
REMARK  status: ('A' for Active; 'I' for Inactive)
REMARK    1  A    between atoms: C_9  and  O_10
REMARK    2  A    between atoms: O_10  and  C_11
REMARK    3  A    between atoms: C_11  and  C_12
REMARK    4  A    between atoms: C_12  and  C_13
REMARK    5  A    between atoms: C_13  and  N_14
REMARK    6  A    between atoms: N_17  and  C_18
REMARK                            x       y       z     vdW  Elec       q    Type
REMARK                         _______ _______ _______ _____ _____    ______ ____
ROOT
ATOM      1  C   UNL     1       7.950   9.059  17.782  0.00  0.00    +0.000 C 
ENDROOT
BRANCH   1   2
ATOM      2  C   UNL     1       8.978   9.804  18.621  0.00  0.00    +0.000 C 
BRANCH   2   3
ATOM      3  O   UNL     1       9.575  10.812  17.819  0.00  0.00    +0.000 OA
BRANCH   3  12
ATOM      4  O   UNL     1       7.031  17.346  18.435  0.00  0.00    +0.000 OA
ATOM      5  C   UNL     1       8.005  16.608  18.560  0.00  0.00    +0.000 C 
ATOM      6  C   UNL     1       9.364  17.129  18.965  0.00  0.00    +0.000 C 
ATOM      7  C   UNL     1      10.128  16.128  19.811  0.00  0.00    +0.000 C 
ATOM      8  C   UNL     1      10.049  14.739  19.247  0.00  0.00    +0.000 A 
ATOM      9  C   UNL     1      11.011  13.789  19.588  0.00  0.00    +0.000 A 
ATOM     10  C   UNL     1      10.914  12.460  19.156  0.00  0.00    +0.000 A 
ATOM     11 CL   UNL     1      12.215  11.461  19.717  0.00  0.00    +0.000 Cl
ATOM     12  C   UNL     1       9.833  12.050  18.350  0.00  0.00    +0.000 A 
ATOM     13  C   UNL     1       8.856  13.022  18.016  0.00  0.00    +0.000 A 
ATOM     14 CL   UNL     1       7.489  12.589  17.021  0.00  0.00    +0.000 Cl
ATOM     15  C   UNL     1       8.959  14.348  18.473  0.00  0.00    +0.000 A 
ATOM     16  N   UNL     1       7.944  15.285  18.220  0.00  0.00    +0.000 N 
ATOM     17  H   UNL     1       7.075  14.967  17.802  0.00  0.00    +0.000 HD
ENDBRANCH   3  12
ENDBRANCH   2   3
ENDBRANCH   1   2
BRANCH   1  18
ATOM     18  C   UNL     1       7.807   7.608  18.235  0.00  0.00    +0.000 C 
BRANCH  18  19
ATOM     19  N   UNL     1       7.582   6.648  17.145  0.00  0.00    +0.000 NA
ATOM     20  C   UNL     1       7.710   5.224  17.556  0.00  0.00    +0.000 C 
ATOM     21  C   UNL     1       6.546   4.624  18.399  0.00  0.00    +0.000 C 
ATOM     22  N   UNL     1       5.251   4.977  17.795  0.00  0.00    +0.000 N 
ATOM     23  C   UNL     1       5.093   6.415  17.528  0.00  0.00    +0.000 C 
ATOM     24  C   UNL     1       6.225   6.843  16.571  0.00  0.00    +0.000 C 
BRANCH  22  25
ATOM     25  C   UNL     1       4.103   4.222  17.993  0.00  0.00    +0.000 A 
ATOM     26  C   UNL     1       3.824   3.083  17.210  0.00  0.00    +0.000 A 
ATOM     27  C   UNL     1       2.675   2.319  17.392  0.00  0.00    +0.000 A 
ATOM     28  C   UNL     1       1.751   2.659  18.374  0.00  0.00    +0.000 A 
ATOM     29  C   UNL     1       1.989   3.797  19.159  0.00  0.00    +0.000 A 
ATOM     30  S   UNL     1       0.983   4.390  20.430  0.00  0.00    +0.000 S 
ATOM     31  C   UNL     1       1.986   5.734  20.705  0.00  0.00    +0.000 A 
ATOM     32  C   UNL     1       3.051   5.751  19.843  0.00  0.00    +0.000 A 
ATOM     33  C   UNL     1       3.123   4.597  18.975  0.00  0.00    +0.000 A 
ENDBRANCH  22  25
ENDBRANCH  18  19
ENDBRANCH   1  18
TORSDOF 6
ENDMDL
MODEL 2
REMARK VINA RESULT:      -8.6      2.043      2.244
REMARK  Name = 
REMARK  6 active torsions:
REMARK  status: ('A' for Active; 'I' for Inactive)
REMARK    1  A    between atoms: C_9  and  O_10
REMARK    2  A    between atoms: O_10  and  C_11
REMARK    3  A    between atoms: C_11  and  C_12
REMARK    4  A    between atoms: C_12  and  C_13
REMARK    5  A    between atoms: C_13  and  N_14
REMARK    6  A    between atoms: N_17  and  C_18
REMARK                            x       y       z     vdW  Elec       q    Type
REMARK                         _______ _______ _______ _____ _____    ______ ____
ROOT
ATOM      1  C   UNL     1       8.370   8.305  18.555  0.00  0.00    +0.000 C 
ENDROOT
BRANCH   1   2
ATOM      2  C   UNL     1       8.733   9.780  18.460  0.00  0.00    +0.000 C 
BRANCH   2   3
ATOM      3  O   UNL     1       9.517  10.129  19.590  0.00  0.00    +0.000 OA
BRANCH   3  12
ATOM      4  O   UNL     1       9.383  15.653  23.950  0.00  0.00    +0.000 OA
ATOM      5  C   UNL     1       9.643  15.243  22.822  0.00  0.00    +0.000 C 
ATOM      6  C   UNL     1      10.101  16.162  21.716  0.00  0.00    +0.000 C 
ATOM      7  C   UNL     1      11.084  15.483  20.782  0.00  0.00    +0.000 C 
ATOM      8  C   UNL     1      10.636  14.100  20.403  0.00  0.00    +0.000 A 
ATOM      9  C   UNL     1      11.128  13.497  19.246  0.00  0.00    +0.000 A 
ATOM     10  C   UNL     1      10.804  12.175  18.916  0.00  0.00    +0.000 A 
ATOM     11 CL   UNL     1      11.543  11.637  17.443  0.00  0.00    +0.000 Cl
ATOM     12  C   UNL     1       9.958  11.417  19.751  0.00  0.00    +0.000 A 
ATOM     13  C   UNL     1       9.470  12.038  20.929  0.00  0.00    +0.000 A 
ATOM     14 CL   UNL     1       8.417  11.165  22.012  0.00  0.00    +0.000 Cl
ATOM     15  C   UNL     1       9.820  13.361  21.255  0.00  0.00    +0.000 A 
ATOM     16  N   UNL     1       9.413  13.942  22.468  0.00  0.00    +0.000 N 
ATOM     17  H   UNL     1       8.960  13.358  23.164  0.00  0.00    +0.000 HD
ENDBRANCH   3  12
ENDBRANCH   2   3
ENDBRANCH   1   2
BRANCH   1  18
ATOM     18  C   UNL     1       7.407   7.895  17.444  0.00  0.00    +0.000 C 
BRANCH  18  19
ATOM     19  N   UNL     1       7.582   6.518  16.961  0.00  0.00    +0.000 NA
ATOM     20  C   UNL     1       7.671   5.503  18.045  0.00  0.00    +0.000 C 
ATOM     21  C   UNL     1       6.349   5.135  18.779  0.00  0.00    +0.000 C 
ATOM     22  N   UNL     1       5.276   4.899  17.800  0.00  0.00    +0.000 N 
ATOM     23  C   UNL     1       5.114   5.986  16.823  0.00  0.00    +0.000 C 
ATOM     24  C   UNL     1       6.452   6.146  16.071  0.00  0.00    +0.000 C 
BRANCH  22  25
ATOM     25  C   UNL     1       4.172   4.103  18.078  0.00  0.00    +0.000 A 
ATOM     26  C   UNL     1       3.969   2.869  17.426  0.00  0.00    +0.000 A 
ATOM     27  C   UNL     1       2.864   2.063  17.688  0.00  0.00    +0.000 A 
ATOM     28  C   UNL     1       1.912   2.455  18.623  0.00  0.00    +0.000 A 
ATOM     29  C   UNL     1       2.075   3.686  19.277  0.00  0.00    +0.000 A 
ATOM     30  S   UNL     1       1.025   4.355  20.470  0.00  0.00    +0.000 S 
ATOM     31  C   UNL     1       1.944   5.779  20.597  0.00  0.00    +0.000 A 
ATOM     32  C   UNL     1       3.014   5.763  19.742  0.00  0.00    +0.000 A 
ATOM     33  C   UNL     1       3.162   4.526  19.009  0.00  0.00    +0.000 A 
ENDBRANCH  22  25
ENDBRANCH  18  19
ENDBRANCH   1  18
TORSDOF 6
ENDMDL
MODEL 3
REMARK VINA RESULT:      -8.5      0.786      1.770
REMARK  Name = 
REMARK  6 active torsions:
REMARK  status: ('A' for Active; 'I' for Inactive)
REMARK    1  A    between atoms: C_9  and  O_10
REMARK    2  A    between atoms: O_10  and  C_11
REMARK    3  A    between atoms: C_11  and  C_12
REMARK    4  A    between atoms: C_12  and  C_13
REMARK    5  A    between atoms: C_13  and  N_14
REMARK    6  A    between atoms: N_17  and  C_18
REMARK                            x       y       z     vdW  Elec       q    Type
REMARK                         _______ _______ _______ _____ _____    ______ ____
ROOT
ATOM      1  C   UNL     1       8.434   8.916  17.620  0.00  0.00    +0.000 C 
ENDROOT
BRANCH   1   2
ATOM      2  C   UNL     1       8.894  10.020  18.561  0.00  0.00    +0.000 C 
BRANCH   2   3
ATOM      3  O   UNL     1       9.507  11.046  17.793  0.00  0.00    +0.000 OA
BRANCH   3  12
ATOM      4  O   UNL     1       7.004  17.577  18.581  0.00  0.00    +0.000 OA
ATOM      5  C   UNL     1       7.972  16.829  18.691  0.00  0.00    +0.000 C 
ATOM      6  C   UNL     1       9.331  17.328  19.120  0.00  0.00    +0.000 C 
ATOM      7  C   UNL     1      10.082  16.298  19.941  0.00  0.00    +0.000 C 
ATOM      8  C   UNL     1       9.998  14.926  19.337  0.00  0.00    +0.000 A 
ATOM      9  C   UNL     1      10.951  13.960  19.657  0.00  0.00    +0.000 A 
ATOM     10  C   UNL     1      10.848  12.645  19.186  0.00  0.00    +0.000 A 
ATOM     11 CL   UNL     1      12.139  11.622  19.726  0.00  0.00    +0.000 Cl
ATOM     12  C   UNL     1       9.770  12.265  18.361  0.00  0.00    +0.000 A 
ATOM     13  C   UNL     1       8.802  13.254  18.049  0.00  0.00    +0.000 A 
ATOM     14 CL   UNL     1       7.440  12.859  17.032  0.00  0.00    +0.000 Cl
ATOM     15  C   UNL     1       8.911  14.565  18.545  0.00  0.00    +0.000 A 
ATOM     16  N   UNL     1       7.904  15.516  18.313  0.00  0.00    +0.000 N 
ATOM     17  H   UNL     1       7.036  15.216  17.880  0.00  0.00    +0.000 HD
ENDBRANCH   3  12
ENDBRANCH   2   3
ENDBRANCH   1   2
BRANCH   1  18
ATOM     18  C   UNL     1       7.989   7.676  18.390  0.00  0.00    +0.000 C 
BRANCH  18  19
ATOM     19  N   UNL     1       7.423   6.608  17.554  0.00  0.00    +0.000 NA
ATOM     20  C   UNL     1       7.307   5.296  18.244  0.00  0.00    +0.000 C 
ATOM     21  C   UNL     1       6.170   5.149  19.297  0.00  0.00    +0.000 C 
ATOM     22  N   UNL     1       4.906   5.673  18.752  0.00  0.00    +0.000 N 
ATOM     23  C   UNL     1       5.016   7.032  18.202  0.00  0.00    +0.000 C 
ATOM     24  C   UNL     1       6.071   7.000  17.077  0.00  0.00    +0.000 C 
BRANCH  22  25
ATOM     25  C   UNL     1       3.664   5.253  19.210  0.00  0.00    +0.000 A 
ATOM     26  C   UNL     1       2.906   6.034  20.106  0.00  0.00    +0.000 A 
ATOM     27  C   UNL     1       1.662   5.625  20.579  0.00  0.00    +0.000 A 
ATOM     28  C   UNL     1       1.116   4.413  20.171  0.00  0.00    +0.000 A 
ATOM     29  C   UNL     1       1.854   3.603  19.294  0.00  0.00    +0.000 A 
ATOM     30  S   UNL     1       1.364   2.075  18.659  0.00  0.00    +0.000 S 
ATOM     31  C   UNL     1       2.829   1.861  17.824  0.00  0.00    +0.000 A 
ATOM     32  C   UNL     1       3.683   2.912  18.033  0.00  0.00    +0.000 A 
ATOM     33  C   UNL     1       3.118   3.980  18.827  0.00  0.00    +0.000 A 
ENDBRANCH  22  25
ENDBRANCH  18  19
ENDBRANCH   1  18
TORSDOF 6
ENDMDL
MODEL 4
REMARK VINA RESULT:      -8.4      2.239      2.916
REMARK  Name = 
REMARK  6 active torsions:
REMARK  status: ('A' for Active; 'I' for Inactive)
REMARK    1  A    between atoms: C_9  and  O_10
REMARK    2  A    between atoms: O_10  and  C_11
REMARK    3  A    between atoms: C_11  and  C_12
REMARK    4  A    between atoms: C_12  and  C_13
REMARK    5  A    between atoms: C_13  and  N_14
REMARK    6  A    between atoms: N_17  and  C_18
REMARK                            x       y       z     vdW  Elec       q    Type
REMARK                         _______ _______ _______ _____ _____    ______ ____
ROOT
ATOM      1  C   UNL     1       8.464   8.403  18.447  0.00  0.00    +0.000 C 
ENDROOT
BRANCH   1   2
ATOM      2  C   UNL     1       8.888   9.864  18.408  0.00  0.00    +0.000 C 
BRANCH   2   3
ATOM      3  O   UNL     1       9.314  10.248  19.707  0.00  0.00    +0.000 OA
BRANCH   3  12
ATOM      4  O   UNL     1       9.309  15.609  24.267  0.00  0.00    +0.000 OA
ATOM      5  C   UNL     1       9.577  15.230  23.130  0.00  0.00    +0.000 C 
ATOM      6  C   UNL     1      10.099  16.169  22.070  0.00  0.00    +0.000 C 
ATOM      7  C   UNL     1      11.074  15.483  21.132  0.00  0.00    +0.000 C 
ATOM      8  C   UNL     1      10.578  14.136  20.692  0.00  0.00    +0.000 A 
ATOM      9  C   UNL     1      11.071  13.555  19.524  0.00  0.00    +0.000 A 
ATOM     10  C   UNL     1      10.700  12.261  19.137  0.00  0.00    +0.000 A 
ATOM     11 CL   UNL     1      11.450  11.747  17.662  0.00  0.00    +0.000 Cl
ATOM     12  C   UNL     1       9.804  11.510  19.925  0.00  0.00    +0.000 A 
ATOM     13  C   UNL     1       9.316  12.107  21.115  0.00  0.00    +0.000 A 
ATOM     14 CL   UNL     1       8.202  11.240  22.141  0.00  0.00    +0.000 Cl
ATOM     15  C   UNL     1       9.712  13.401  21.498  0.00  0.00    +0.000 A 
ATOM     16  N   UNL     1       9.302  13.954  22.723  0.00  0.00    +0.000 N 
ATOM     17  H   UNL     1       8.809  13.365  23.387  0.00  0.00    +0.000 HD
ENDBRANCH   3  12
ENDBRANCH   2   3
ENDBRANCH   1   2
BRANCH   1  18
ATOM     18  C   UNL     1       7.363   8.115  17.430  0.00  0.00    +0.000 C 
BRANCH  18  19
ATOM     19  N   UNL     1       7.169   6.690  17.125  0.00  0.00    +0.000 NA
ATOM     20  C   UNL     1       7.252   5.800  18.315  0.00  0.00    +0.000 C 
ATOM     21  C   UNL     1       6.041   5.812  19.292  0.00  0.00    +0.000 C 
ATOM     22  N   UNL     1       4.781   5.716  18.536  0.00  0.00    +0.000 N 
ATOM     23  C   UNL     1       4.662   6.703  17.453  0.00  0.00    +0.000 C 
ATOM     24  C   UNL     1       5.844   6.484  16.486  0.00  0.00    +0.000 C 
BRANCH  22  25
ATOM     25  C   UNL     1       3.611   5.217  19.094  0.00  0.00    +0.000 A 
ATOM     26  C   UNL     1       2.829   5.985  19.980  0.00  0.00    +0.000 A 
ATOM     27  C   UNL     1       1.658   5.497  20.552  0.00  0.00    +0.000 A 
ATOM     28  C   UNL     1       1.211   4.214  20.258  0.00  0.00    +0.000 A 
ATOM     29  C   UNL     1       1.975   3.415  19.393  0.00  0.00    +0.000 A 
ATOM     30  S   UNL     1       1.602   1.808  18.891  0.00  0.00    +0.000 S 
ATOM     31  C   UNL     1       3.035   1.672  17.985  0.00  0.00    +0.000 A 
ATOM     32  C   UNL     1       3.793   2.810  18.074  0.00  0.00    +0.000 A 
ATOM     33  C   UNL     1       3.171   3.874  18.829  0.00  0.00    +0.000 A 
ENDBRANCH  22  25
ENDBRANCH  18  19
ENDBRANCH   1  18
TORSDOF 6
ENDMDL
MODEL 5
REMARK VINA RESULT:      -8.1      7.548     11.489
REMARK  Name = 
REMARK  6 active torsions:
REMARK  status: ('A' for Active; 'I' for Inactive)
REMARK    1  A    between atoms: C_9  and  O_10
REMARK    2  A    between atoms: O_10  and  C_11
REMARK    3  A    between atoms: C_11  and  C_12
REMARK    4  A    between atoms: C_12  and  C_13
REMARK    5  A    between atoms: C_13  and  N_14
REMARK    6  A    between atoms: N_17  and  C_18
REMARK                            x       y       z     vdW  Elec       q    Type
REMARK                         _______ _______ _______ _____ _____    ______ ____
ROOT
ATOM      1  C   UNL     1       0.665   9.654  18.052  0.00  0.00    +0.000 C 
ENDROOT
BRANCH   1   2
ATOM      2  C   UNL     1       1.927   8.958  17.564  0.00  0.00    +0.000 C 
BRANCH   2   3
ATOM      3  O   UNL     1       2.625   8.441  18.687  0.00  0.00    +0.000 OA
BRANCH   3  12
ATOM      4  O   UNL     1       1.447   2.472  22.225  0.00  0.00    +0.000 OA
ATOM      5  C   UNL     1       2.150   3.056  21.406  0.00  0.00    +0.000 C 
ATOM      6  C   UNL     1       3.381   2.423  20.802  0.00  0.00    +0.000 C 
ATOM      7  C   UNL     1       3.602   2.863  19.368  0.00  0.00    +0.000 C 
ATOM      8  C   UNL     1       3.421   4.344  19.199  0.00  0.00    +0.000 A 
ATOM      9  C   UNL     1       3.999   5.001  18.113  0.00  0.00    +0.000 A 
ATOM     10  C   UNL     1       3.772   6.363  17.875  0.00  0.00    +0.000 A 
ATOM     11 CL   UNL     1       4.581   6.954  16.461  0.00  0.00    +0.000 Cl
ATOM     12  C   UNL     1       2.950   7.111  18.743  0.00  0.00    +0.000 A 
ATOM     13  C   UNL     1       2.361   6.430  19.839  0.00  0.00    +0.000 A 
ATOM     14 CL   UNL     1       1.332   7.290  20.956  0.00  0.00    +0.000 Cl
ATOM     15  C   UNL     1       2.585   5.059  20.053  0.00  0.00    +0.000 A 
ATOM     16  N   UNL     1       1.926   4.367  21.083  0.00  0.00    +0.000 N 
ATOM     17  H   UNL     1       1.194   4.841  21.602  0.00  0.00    +0.000 HD
ENDBRANCH   3  12
ENDBRANCH   2   3
ENDBRANCH   1   2
BRANCH   1  18
ATOM     18  C   UNL     1       0.918  10.425  19.344  0.00  0.00    +0.000 C 
BRANCH  18  19
ATOM     19  N   UNL     1       0.665  11.870  19.252  0.00  0.00    +0.000 NA
ATOM     20  C   UNL     1      -0.711  12.217  18.806  0.00  0.00    +0.000 C 
ATOM     21  C   UNL     1      -1.859  12.026  19.840  0.00  0.00    +0.000 C 
ATOM     22  N   UNL     1      -1.470  12.600  21.138  0.00  0.00    +0.000 N 
ATOM     23  C   UNL     1      -0.165  12.130  21.627  0.00  0.00    +0.000 C 
ATOM     24  C   UNL     1       0.896  12.510  20.574  0.00  0.00    +0.000 C 
BRANCH  22  25
ATOM     25  C   UNL     1      -2.401  13.028  22.076  0.00  0.00    +0.000 A 
ATOM     26  C   UNL     1      -2.861  12.176  23.101  0.00  0.00    +0.000 A 
ATOM     27  C   UNL     1      -3.798  12.587  24.044  0.00  0.00    +0.000 A 
ATOM     28  C   UNL     1      -4.316  13.877  24.007  0.00  0.00    +0.000 A 
ATOM     29  C   UNL     1      -3.893  14.745  22.988  0.00  0.00    +0.000 A 
ATOM     30  S   UNL     1      -4.398  16.379  22.763  0.00  0.00    +0.000 S 
ATOM     31  C   UNL     1      -3.472  16.556  21.349  0.00  0.00    +0.000 A 
ATOM     32  C   UNL     1      -2.807  15.399  21.037  0.00  0.00    +0.000 A 
ATOM     33  C   UNL     1      -2.973  14.344  22.012  0.00  0.00    +0.000 A 
ENDBRANCH  22  25
ENDBRANCH  18  19
ENDBRANCH   1  18
TORSDOF 6
ENDMDL
MODEL 6
REMARK VINA RESULT:      -8.0      7.355     11.323
REMARK  Name = 
REMARK  6 active torsions:
REMARK  status: ('A' for Active; 'I' for Inactive)
REMARK    1  A    between atoms: C_9  and  O_10
REMARK    2  A    between atoms: O_10  and  C_11
REMARK    3  A    between atoms: C_11  and  C_12
REMARK    4  A    between atoms: C_12  and  C_13
REMARK    5  A    between atoms: C_13  and  N_14
REMARK    6  A    between atoms: N_17  and  C_18
REMARK                            x       y       z     vdW  Elec       q    Type
REMARK                         _______ _______ _______ _____ _____    ______ ____
ROOT
ATOM      1  C   UNL     1       1.666  10.174  17.992  0.00  0.00    +0.000 C 
ENDROOT
BRANCH   1   2
ATOM      2  C   UNL     1       1.795   8.684  17.705  0.00  0.00    +0.000 C 
BRANCH   2   3
ATOM      3  O   UNL     1       3.063   8.242  18.166  0.00  0.00    +0.000 OA
BRANCH   3  12
ATOM      4  O   UNL     1       1.590   2.676  22.216  0.00  0.00    +0.000 OA
ATOM      5  C   UNL     1       2.311   3.144  21.339  0.00  0.00    +0.000 C 
ATOM      6  C   UNL     1       3.488   2.386  20.772  0.00  0.00    +0.000 C 
ATOM      7  C   UNL     1       3.705   2.689  19.302  0.00  0.00    +0.000 C 
ATOM      8  C   UNL     1       3.614   4.159  19.012  0.00  0.00    +0.000 A 
ATOM      9  C   UNL     1       4.208   4.685  17.864  0.00  0.00    +0.000 A 
ATOM     10  C   UNL     1       4.061   6.033  17.516  0.00  0.00    +0.000 A 
ATOM     11 CL   UNL     1       4.875   6.452  16.044  0.00  0.00    +0.000 Cl
ATOM     12  C   UNL     1       3.306   6.902  18.329  0.00  0.00    +0.000 A 
ATOM     13  C   UNL     1       2.699   6.355  19.488  0.00  0.00    +0.000 A 
ATOM     14 CL   UNL     1       1.749   7.369  20.545  0.00  0.00    +0.000 Cl
ATOM     15  C   UNL     1       2.842   4.995  19.814  0.00  0.00    +0.000 A 
ATOM     16  N   UNL     1       2.163   4.435  20.910  0.00  0.00    +0.000 N 
ATOM     17  H   UNL     1       1.473   4.996  21.398  0.00  0.00    +0.000 HD
ENDBRANCH   3  12
ENDBRANCH   2   3
ENDBRANCH   1   2
BRANCH   1  18
ATOM     18  C   UNL     1       0.588  10.449  19.037  0.00  0.00    +0.000 C 
BRANCH  18  19
ATOM     19  N   UNL     1       1.011  11.332  20.133  0.00  0.00    +0.000 NA
ATOM     20  C   UNL     1       0.590  12.749  19.966  0.00  0.00    +0.000 C 
ATOM     21  C   UNL     1      -0.912  13.074  20.211  0.00  0.00    +0.000 C 
ATOM     22  N   UNL     1      -1.370  12.438  21.457  0.00  0.00    +0.000 N 
ATOM     23  C   UNL     1      -1.066  11.001  21.536  0.00  0.00    +0.000 C 
ATOM     24  C   UNL     1       0.463  10.837  21.422  0.00  0.00    +0.000 C 
BRANCH  22  25
ATOM     25  C   UNL     1      -2.449  12.917  22.188  0.00  0.00    +0.000 A 
ATOM     26  C   UNL     1      -3.773  12.541  21.883  0.00  0.00    +0.000 A 
ATOM     27  C   UNL     1      -4.866  13.017  22.601  0.00  0.00    +0.000 A 
ATOM     28  C   UNL     1      -4.682  13.892  23.666  0.00  0.00    +0.000 A 
ATOM     29  C   UNL     1      -3.378  14.301  23.986  0.00  0.00    +0.000 A 
ATOM     30  S   UNL     1      -2.926  15.367  25.265  0.00  0.00    +0.000 S 
ATOM     31  C   UNL     1      -1.282  15.312  24.838  0.00  0.00    +0.000 A 
ATOM     32  C   UNL     1      -1.075  14.521  23.739  0.00  0.00    +0.000 A 
ATOM     33  C   UNL     1      -2.266  13.858  23.259  0.00  0.00    +0.000 A 
ENDBRANCH  22  25
ENDBRANCH  18  19
ENDBRANCH   1  18
TORSDOF 6
ENDMDL
MODEL 7
REMARK VINA RESULT:      -8.0      7.027     10.953
REMARK  Name = 
REMARK  6 active torsions:
REMARK  status: ('A' for Active; 'I' for Inactive)
REMARK    1  A    between atoms: C_9  and  O_10
REMARK    2  A    between atoms: O_10  and  C_11
REMARK    3  A    between atoms: C_11  and  C_12
REMARK    4  A    between atoms: C_12  and  C_13
REMARK    5  A    between atoms: C_13  and  N_14
REMARK    6  A    between atoms: N_17  and  C_18
REMARK                            x       y       z     vdW  Elec       q    Type
REMARK                         _______ _______ _______ _____ _____    ______ ____
ROOT
ATOM      1  C   UNL     1       0.986   9.858  18.293  0.00  0.00    +0.000 C 
ENDROOT
BRANCH   1   2
ATOM      2  C   UNL     1       1.756   8.740  17.604  0.00  0.00    +0.000 C 
BRANCH   2   3
ATOM      3  O   UNL     1       2.788   8.297  18.472  0.00  0.00    +0.000 OA
BRANCH   3  12
ATOM      4  O   UNL     1       1.469   2.524  22.275  0.00  0.00    +0.000 OA
ATOM      5  C   UNL     1       2.178   3.050  21.422  0.00  0.00    +0.000 C 
ATOM      6  C   UNL     1       3.378   2.351  20.828  0.00  0.00    +0.000 C 
ATOM      7  C   UNL     1       3.591   2.723  19.374  0.00  0.00    +0.000 C 
ATOM      8  C   UNL     1       3.457   4.201  19.145  0.00  0.00    +0.000 A 
ATOM      9  C   UNL     1       4.039   4.792  18.024  0.00  0.00    +0.000 A 
ATOM     10  C   UNL     1       3.853   6.149  17.732  0.00  0.00    +0.000 A 
ATOM     11 CL   UNL     1       4.659   6.654  16.283  0.00  0.00    +0.000 Cl
ATOM     12  C   UNL     1       3.070   6.960  18.579  0.00  0.00    +0.000 A 
ATOM     13  C   UNL     1       2.476   6.346  19.711  0.00  0.00    +0.000 A 
ATOM     14 CL   UNL     1       1.494   7.286  20.806  0.00  0.00    +0.000 Cl
ATOM     15  C   UNL     1       2.658   4.978  19.980  0.00  0.00    +0.000 A 
ATOM     16  N   UNL     1       1.993   4.352  21.047  0.00  0.00    +0.000 N 
ATOM     17  H   UNL     1       1.285   4.872  21.557  0.00  0.00    +0.000 HD
ENDBRANCH   3  12
ENDBRANCH   2   3
ENDBRANCH   1   2
BRANCH   1  18
ATOM     18  C   UNL     1       1.800  11.147  18.344  0.00  0.00    +0.000 C 
BRANCH  18  19
ATOM     19  N   UNL     1       1.494  12.017  19.489  0.00  0.00    +0.000 NA
ATOM     20  C   UNL     1       0.773  13.266  19.124  0.00  0.00    +0.000 C 
ATOM     21  C   UNL     1      -0.733  13.130  18.755  0.00  0.00    +0.000 C 
ATOM     22  N   UNL     1      -1.422  12.287  19.746  0.00  0.00    +0.000 N 
ATOM     23  C   UNL     1      -0.764  10.994  19.984  0.00  0.00    +0.000 C 
ATOM     24  C   UNL     1       0.669  11.279  20.480  0.00  0.00    +0.000 C 
BRANCH  22  25
ATOM     25  C   UNL     1      -2.788  12.377  19.984  0.00  0.00    +0.000 A 
ATOM     26  C   UNL     1      -3.293  12.785  21.234  0.00  0.00    +0.000 A 
ATOM     27  C   UNL     1      -4.659  12.874  21.491  0.00  0.00    +0.000 A 
ATOM     28  C   UNL     1      -5.584  12.561  20.501  0.00  0.00    +0.000 A 
ATOM     29  C   UNL     1      -5.114  12.134  19.249  0.00  0.00    +0.000 A 
ATOM     30  S   UNL     1      -6.081  11.707  17.886  0.00  0.00    +0.000 S 
ATOM     31  C   UNL     1      -4.724  11.290  16.952  0.00  0.00    +0.000 A 
ATOM     32  C   UNL     1      -3.561  11.450  17.658  0.00  0.00    +0.000 A 
ATOM     33  C   UNL     1      -3.746  12.009  18.978  0.00  0.00    +0.000 A 
ENDBRANCH  22  25
ENDBRANCH  18  19
ENDBRANCH   1  18
TORSDOF 6
ENDMDL
MODEL 8
REMARK VINA RESULT:      -7.9      7.372     11.650
REMARK  Name = 
REMARK  6 active torsions:
REMARK  status: ('A' for Active; 'I' for Inactive)
REMARK    1  A    between atoms: C_9  and  O_10
REMARK    2  A    between atoms: O_10  and  C_11
REMARK    3  A    between atoms: C_11  and  C_12
REMARK    4  A    between atoms: C_12  and  C_13
REMARK    5  A    between atoms: C_13  and  N_14
REMARK    6  A    between atoms: N_17  and  C_18
REMARK                            x       y       z     vdW  Elec       q    Type
REMARK                         _______ _______ _______ _____ _____    ______ ____
ROOT
ATOM      1  C   UNL     1       2.079  10.561  18.181  0.00  0.00    +0.000 C 
ENDROOT
BRANCH   1   2
ATOM      2  C   UNL     1       1.821   9.103  17.828  0.00  0.00    +0.000 C 
BRANCH   2   3
ATOM      3  O   UNL     1       2.830   8.305  18.428  0.00  0.00    +0.000 OA
BRANCH   3  12
ATOM      4  O   UNL     1       3.661   1.316  18.540  0.00  0.00    +0.000 OA
ATOM      5  C   UNL     1       3.033   2.281  18.967  0.00  0.00    +0.000 C 
ATOM      6  C   UNL     1       1.851   2.128  19.894  0.00  0.00    +0.000 C 
ATOM      7  C   UNL     1       1.753   3.271  20.885  0.00  0.00    +0.000 C 
ATOM      8  C   UNL     1       1.960   4.605  20.228  0.00  0.00    +0.000 A 
ATOM      9  C   UNL     1       1.480   5.766  20.833  0.00  0.00    +0.000 A 
ATOM     10  C   UNL     1       1.737   7.033  20.294  0.00  0.00    +0.000 A 
ATOM     11 CL   UNL     1       1.053   8.325  21.226  0.00  0.00    +0.000 Cl
ATOM     12  C   UNL     1       2.490   7.165  19.110  0.00  0.00    +0.000 A 
ATOM     13  C   UNL     1       2.981   5.979  18.508  0.00  0.00    +0.000 A 
ATOM     14 CL   UNL     1       3.921   6.062  17.040  0.00  0.00    +0.000 Cl
ATOM     15  C   UNL     1       2.728   4.715  19.072  0.00  0.00    +0.000 A 
ATOM     16  N   UNL     1       3.294   3.550  18.527  0.00  0.00    +0.000 N 
ATOM     17  H   UNL     1       3.984   3.639  17.789  0.00  0.00    +0.000 HD
ENDBRANCH   3  12
ENDBRANCH   2   3
ENDBRANCH   1   2
BRANCH   1  18
ATOM     18  C   UNL     1       0.801  11.257  18.640  0.00  0.00    +0.000 C 
BRANCH  18  19
ATOM     19  N   UNL     1       1.012  12.569  19.268  0.00  0.00    +0.000 NA
ATOM     20  C   UNL     1      -0.124  13.514  19.094  0.00  0.00    +0.000 C 
ATOM     21  C   UNL     1      -1.399  13.250  19.947  0.00  0.00    +0.000 C 
ATOM     22  N   UNL     1      -1.026  12.986  21.346  0.00  0.00    +0.000 N 
ATOM     23  C   UNL     1       0.000  11.944  21.499  0.00  0.00    +0.000 C 
ATOM     24  C   UNL     1       1.254  12.400  20.724  0.00  0.00    +0.000 C 
BRANCH  22  25
ATOM     25  C   UNL     1      -1.897  13.204  22.406  0.00  0.00    +0.000 A 
ATOM     26  C   UNL     1      -2.754  12.189  22.877  0.00  0.00    +0.000 A 
ATOM     27  C   UNL     1      -3.637  12.394  23.934  0.00  0.00    +0.000 A 
ATOM     28  C   UNL     1      -3.698  13.627  24.573  0.00  0.00    +0.000 A 
ATOM     29  C   UNL     1      -2.869  14.664  24.118  0.00  0.00    +0.000 A 
ATOM     30  S   UNL     1      -2.778  16.259  24.769  0.00  0.00    +0.000 S 
ATOM     31  C   UNL     1      -1.645  16.757  23.603  0.00  0.00    +0.000 A 
ATOM     32  C   UNL     1      -1.353  15.747  22.724  0.00  0.00    +0.000 A 
ATOM     33  C   UNL     1      -1.995  14.491  23.038  0.00  0.00    +0.000 A 
ENDBRANCH  22  25
ENDBRANCH  18  19
ENDBRANCH   1  18
TORSDOF 6
ENDMDL
MODEL 9
REMARK VINA RESULT:      -7.9      6.936     11.201
REMARK  Name = 
REMARK  6 active torsions:
REMARK  status: ('A' for Active; 'I' for Inactive)
REMARK    1  A    between atoms: C_9  and  O_10
REMARK    2  A    between atoms: O_10  and  C_11
REMARK    3  A    between atoms: C_11  and  C_12
REMARK    4  A    between atoms: C_12  and  C_13
REMARK    5  A    between atoms: C_13  and  N_14
REMARK    6  A    between atoms: N_17  and  C_18
REMARK                            x       y       z     vdW  Elec       q    Type
REMARK                         _______ _______ _______ _____ _____    ______ ____
ROOT
ATOM      1  C   UNL     1       1.204   9.713  18.247  0.00  0.00    +0.000 C 
ENDROOT
BRANCH   1   2
ATOM      2  C   UNL     1       2.121   8.686  17.598  0.00  0.00    +0.000 C 
BRANCH   2   3
ATOM      3  O   UNL     1       2.929   8.098  18.606  0.00  0.00    +0.000 OA
BRANCH   3  12
ATOM      4  O   UNL     1       3.704   1.110  18.282  0.00  0.00    +0.000 OA
ATOM      5  C   UNL     1       3.062   2.051  18.743  0.00  0.00    +0.000 C 
ATOM      6  C   UNL     1       1.835   1.847  19.599  0.00  0.00    +0.000 C 
ATOM      7  C   UNL     1       1.697   2.922  20.660  0.00  0.00    +0.000 C 
ATOM      8  C   UNL     1       1.945   4.295  20.106  0.00  0.00    +0.000 A 
ATOM      9  C   UNL     1       1.444   5.417  20.765  0.00  0.00    +0.000 A 
ATOM     10  C   UNL     1       1.737   6.715  20.327  0.00  0.00    +0.000 A 
ATOM     11 CL   UNL     1       1.017   7.948  21.311  0.00  0.00    +0.000 Cl
ATOM     12  C   UNL     1       2.548   6.919  19.192  0.00  0.00    +0.000 A 
ATOM     13  C   UNL     1       3.059   5.771  18.535  0.00  0.00    +0.000 A 
ATOM     14 CL   UNL     1       4.070   5.944  17.124  0.00  0.00    +0.000 Cl
ATOM     15  C   UNL     1       2.770   4.475  18.999  0.00  0.00    +0.000 A 
ATOM     16  N   UNL     1       3.353   3.344  18.404  0.00  0.00    +0.000 N 
ATOM     17  H   UNL     1       4.080   3.475  17.707  0.00  0.00    +0.000 HD
ENDBRANCH   3  12
ENDBRANCH   2   3
ENDBRANCH   1   2
BRANCH   1  18
ATOM     18  C   UNL     1       1.792  11.119  18.160  0.00  0.00    +0.000 C 
BRANCH  18  19
ATOM     19  N   UNL     1       1.519  11.968  19.329  0.00  0.00    +0.000 NA
ATOM     20  C   UNL     1       0.805  13.232  19.006  0.00  0.00    +0.000 C 
ATOM     21  C   UNL     1      -0.710  13.121  18.665  0.00  0.00    +0.000 C 
ATOM     22  N   UNL     1      -1.388  12.264  19.652  0.00  0.00    +0.000 N 
ATOM     23  C   UNL     1      -0.740  10.959  19.849  0.00  0.00    +0.000 C 
ATOM     24  C   UNL     1       0.706  11.218  20.321  0.00  0.00    +0.000 C 
BRANCH  22  25
ATOM     25  C   UNL     1      -2.748  12.364  19.920  0.00  0.00    +0.000 A 
ATOM     26  C   UNL     1      -3.223  12.760  21.186  0.00  0.00    +0.000 A 
ATOM     27  C   UNL     1      -4.582  12.859  21.473  0.00  0.00    +0.000 A 
ATOM     28  C   UNL     1      -5.530  12.568  20.498  0.00  0.00    +0.000 A 
ATOM     29  C   UNL     1      -5.091  12.153  19.231  0.00  0.00    +0.000 A 
ATOM     30  S   UNL     1      -6.091  11.755  17.884  0.00  0.00    +0.000 S 
ATOM     31  C   UNL     1      -4.758  11.338  16.915  0.00  0.00    +0.000 A 
ATOM     32  C   UNL     1      -3.578  11.476  17.598  0.00  0.00    +0.000 A 
ATOM     33  C   UNL     1      -3.730  12.019  18.929  0.00  0.00    +0.000 A 
ENDBRANCH  22  25
ENDBRANCH  18  19
ENDBRANCH   1  18
TORSDOF 6
ENDMDL
