MODEL 1
REMARK VINA RESULT:      -7.4      0.000      0.000
REMARK  Name = 
REMARK  4 active torsions:
REMARK  status: ('A' for Active; 'I' for Inactive)
REMARK    1  A    between atoms: O_1  and  C_2
REMARK    2  A    between atoms: C_4  and  O_5
REMARK    3  A    between atoms: C_7  and  C_8
REMARK    4  A    between atoms: C_12  and  O_13
REMARK                            x       y       z     vdW  Elec       q    Type
REMARK                         _______ _______ _______ _____ _____    ______ ____
ROOT
ATOM      1  C   UNL     1       4.455   3.991  18.191  0.00  0.00    +0.000 A 
ATOM      2  C   UNL     1       4.666   3.424  19.434  0.00  0.00    +0.000 A 
ATOM      3  C   UNL     1       3.391   3.230  20.027  0.00  0.00    +0.000 A 
ATOM      4  C   UNL     1       2.918   2.694  21.238  0.00  0.00    +0.000 A 
ATOM      5  C   UNL     1       1.536   2.671  21.449  0.00  0.00    +0.000 A 
ATOM      6  C   UNL     1       0.638   3.164  20.505  0.00  0.00    +0.000 A 
ATOM      7  C   UNL     1       1.092   3.704  19.297  0.00  0.00    +0.000 A 
ATOM      8  C   UNL     1       2.472   3.712  19.102  0.00  0.00    +0.000 A 
ATOM      9  O   UNL     1       3.113   4.177  17.997  0.00  0.00    +0.000 OA
ENDROOT
BRANCH   1  14
ATOM     10  C   UNL     1       6.264   4.020  14.878  0.00  0.00    +0.000 A 
ATOM     11  C   UNL     1       7.122   5.106  15.025  0.00  0.00    +0.000 A 
ATOM     12  C   UNL     1       7.072   5.833  16.208  0.00  0.00    +0.000 A 
ATOM     13  C   UNL     1       6.190   5.487  17.230  0.00  0.00    +0.000 A 
ATOM     14  C   UNL     1       5.336   4.382  17.092  0.00  0.00    +0.000 A 
ATOM     15  C   UNL     1       5.379   3.658  15.892  0.00  0.00    +0.000 A 
BRANCH  10  16
ATOM     16  O   UNL     1       6.265   3.266  13.740  0.00  0.00    +0.000 OA
ATOM     17  H   UNL     1       6.341   3.851  12.970  0.00  0.00    +0.000 HD
ENDBRANCH  10  16
BRANCH  12  18
ATOM     18  O   UNL     1       7.888   6.906  16.421  0.00  0.00    +0.000 OA
ATOM     19  H   UNL     1       7.576   7.652  15.884  0.00  0.00    +0.000 HD
ENDBRANCH  12  18
ENDBRANCH   1  14
BRANCH   5  20
ATOM     20  O   UNL     1       1.014   2.156  22.602  0.00  0.00    +0.000 OA
ATOM     21  H   UNL     1       0.584   2.874  23.097  0.00  0.00    +0.000 HD
ENDBRANCH   5  20
TORSDOF 4
ENDMDL
MODEL 2
REMARK VINA RESULT:      -7.3      0.091      1.962
REMARK  Name = 
REMARK  4 active torsions:
REMARK  status: ('A' for Active; 'I' for Inactive)
REMARK    1  A    between atoms: O_1  and  C_2
REMARK    2  A    between atoms: C_4  and  O_5
REMARK    3  A    between atoms: C_7  and  C_8
REMARK    4  A    between atoms: C_12  and  O_13
REMARK                            x       y       z     vdW  Elec       q    Type
REMARK                         _______ _______ _______ _____ _____    ______ ____
ROOT
ATOM      1  C   UNL     1       4.526   3.975  18.282  0.00  0.00    +0.000 A 
ATOM      2  C   UNL     1       4.700   3.371  19.515  0.00  0.00    +0.000 A 
ATOM      3  C   UNL     1       3.411   3.204  20.085  0.00  0.00    +0.000 A 
ATOM      4  C   UNL     1       2.903   2.653  21.275  0.00  0.00    +0.000 A 
ATOM      5  C   UNL     1       1.518   2.670  21.466  0.00  0.00    +0.000 A 
ATOM      6  C   UNL     1       0.650   3.214  20.521  0.00  0.00    +0.000 A 
ATOM      7  C   UNL     1       1.140   3.768  19.334  0.00  0.00    +0.000 A 
ATOM      8  C   UNL     1       2.522   3.737  19.159  0.00  0.00    +0.000 A 
ATOM      9  O   UNL     1       3.194   4.208  18.075  0.00  0.00    +0.000 OA
ENDROOT
BRANCH   1  14
ATOM     10  C   UNL     1       7.105   5.856  16.268  0.00  0.00    +0.000 A 
ATOM     11  C   UNL     1       7.108   5.149  15.069  0.00  0.00    +0.000 A 
ATOM     12  C   UNL     1       6.279   4.041  14.952  0.00  0.00    +0.000 A 
ATOM     13  C   UNL     1       5.454   3.644  16.002  0.00  0.00    +0.000 A 
ATOM     14  C   UNL     1       5.435   4.364  17.206  0.00  0.00    +0.000 A 
ATOM     15  C   UNL     1       6.283   5.474  17.327  0.00  0.00    +0.000 A 
BRANCH  10  16
ATOM     16  O   UNL     1       7.897   6.954  16.446  0.00  0.00    +0.000 OA
ATOM     17  H   UNL     1       7.791   7.549  15.687  0.00  0.00    +0.000 HD
ENDBRANCH  10  16
BRANCH  12  18
ATOM     18  O   UNL     1       6.229   3.305  13.803  0.00  0.00    +0.000 OA
ATOM     19  H   UNL     1       7.084   3.373  13.347  0.00  0.00    +0.000 HD
ENDBRANCH  12  18
ENDBRANCH   1  14
BRANCH   5  20
ATOM     20  O   UNL     1       0.963   2.144  22.598  0.00  0.00    +0.000 OA
ATOM     21  H   UNL     1       0.963   2.826  23.290  0.00  0.00    +0.000 HD
ENDBRANCH   5  20
TORSDOF 4
ENDMDL
MODEL 3
REMARK VINA RESULT:      -7.3      4.460      6.632
REMARK  Name = 
REMARK  4 active torsions:
REMARK  status: ('A' for Active; 'I' for Inactive)
REMARK    1  A    between atoms: O_1  and  C_2
REMARK    2  A    between atoms: C_4  and  O_5
REMARK    3  A    between atoms: C_7  and  C_8
REMARK    4  A    between atoms: C_12  and  O_13
REMARK                            x       y       z     vdW  Elec       q    Type
REMARK                         _______ _______ _______ _____ _____    ______ ____
ROOT
ATOM      1  C   UNL     1       2.302   6.607  19.639  0.00  0.00    +0.000 A 
ATOM      2  C   UNL     1       2.457   7.375  18.500  0.00  0.00    +0.000 A 
ATOM      3  C   UNL     1       1.896   8.650  18.774  0.00  0.00    +0.000 A 
ATOM      4  C   UNL     1       1.754   9.857  18.068  0.00  0.00    +0.000 A 
ATOM      5  C   UNL     1       1.131  10.927  18.718  0.00  0.00    +0.000 A 
ATOM      6  C   UNL     1       0.654  10.820  20.023  0.00  0.00    +0.000 A 
ATOM      7  C   UNL     1       0.785   9.625  20.738  0.00  0.00    +0.000 A 
ATOM      8  C   UNL     1       1.415   8.573  20.076  0.00  0.00    +0.000 A 
ATOM      9  O   UNL     1       1.652   7.339  20.596  0.00  0.00    +0.000 OA
ENDROOT
BRANCH   1  14
ATOM     10  C   UNL     1       4.146   3.316  19.765  0.00  0.00    +0.000 A 
ATOM     11  C   UNL     1       3.383   2.591  20.675  0.00  0.00    +0.000 A 
ATOM     12  C   UNL     1       2.284   3.209  21.259  0.00  0.00    +0.000 A 
ATOM     13  C   UNL     1       1.943   4.522  20.941  0.00  0.00    +0.000 A 
ATOM     14  C   UNL     1       2.699   5.251  20.010  0.00  0.00    +0.000 A 
ATOM     15  C   UNL     1       3.815   4.629  19.432  0.00  0.00    +0.000 A 
BRANCH  10  16
ATOM     16  O   UNL     1       5.237   2.765  19.157  0.00  0.00    +0.000 OA
ATOM     17  H   UNL     1       5.960   2.700  19.800  0.00  0.00    +0.000 HD
ENDBRANCH  10  16
BRANCH  12  18
ATOM     18  O   UNL     1       1.491   2.555  22.156  0.00  0.00    +0.000 OA
ATOM     19  H   UNL     1       0.612   2.423  21.764  0.00  0.00    +0.000 HD
ENDBRANCH  12  18
ENDBRANCH   1  14
BRANCH   5  20
ATOM     20  O   UNL     1       0.968  12.128  18.087  0.00  0.00    +0.000 OA
ATOM     21  H   UNL     1       0.794  11.965  17.145  0.00  0.00    +0.000 HD
ENDBRANCH   5  20
TORSDOF 4
ENDMDL
MODEL 4
REMARK VINA RESULT:      -7.2      4.441      6.632
REMARK  Name = 
REMARK  4 active torsions:
REMARK  status: ('A' for Active; 'I' for Inactive)
REMARK    1  A    between atoms: O_1  and  C_2
REMARK    2  A    between atoms: C_4  and  O_5
REMARK    3  A    between atoms: C_7  and  C_8
REMARK    4  A    between atoms: C_12  and  O_13
REMARK                            x       y       z     vdW  Elec       q    Type
REMARK                         _______ _______ _______ _____ _____    ______ ____
ROOT
ATOM      1  C   UNL     1       2.278   6.568  19.590  0.00  0.00    +0.000 A 
ATOM      2  C   UNL     1       2.449   7.342  18.456  0.00  0.00    +0.000 A 
ATOM      3  C   UNL     1       1.919   8.626  18.742  0.00  0.00    +0.000 A 
ATOM      4  C   UNL     1       1.804   9.843  18.046  0.00  0.00    +0.000 A 
ATOM      5  C   UNL     1       1.208  10.922  18.706  0.00  0.00    +0.000 A 
ATOM      6  C   UNL     1       0.731  10.815  20.011  0.00  0.00    +0.000 A 
ATOM      7  C   UNL     1       0.836   9.612  20.716  0.00  0.00    +0.000 A 
ATOM      8  C   UNL     1       1.439   8.551  20.044  0.00  0.00    +0.000 A 
ATOM      9  O   UNL     1       1.648   7.307  20.554  0.00  0.00    +0.000 OA
ENDROOT
BRANCH   1  14
ATOM     10  C   UNL     1       2.303   3.177  21.248  0.00  0.00    +0.000 A 
ATOM     11  C   UNL     1       3.438   2.592  20.695  0.00  0.00    +0.000 A 
ATOM     12  C   UNL     1       4.166   3.315  19.758  0.00  0.00    +0.000 A 
ATOM     13  C   UNL     1       3.779   4.599  19.381  0.00  0.00    +0.000 A 
ATOM     14  C   UNL     1       2.645   5.200  19.949  0.00  0.00    +0.000 A 
ATOM     15  C   UNL     1       1.904   4.463  20.884  0.00  0.00    +0.000 A 
BRANCH  10  16
ATOM     16  O   UNL     1       1.545   2.519  22.173  0.00  0.00    +0.000 OA
ATOM     17  H   UNL     1       2.064   2.404  22.986  0.00  0.00    +0.000 HD
ENDBRANCH  10  16
BRANCH  12  18
ATOM     18  O   UNL     1       5.291   2.804  19.180  0.00  0.00    +0.000 OA
ATOM     19  H   UNL     1       6.006   3.458  19.247  0.00  0.00    +0.000 HD
ENDBRANCH  12  18
ENDBRANCH   1  14
BRANCH   5  20
ATOM     20  O   UNL     1       1.072  12.132  18.086  0.00  0.00    +0.000 OA
ATOM     21  H   UNL     1       0.930  12.815  18.762  0.00  0.00    +0.000 HD
ENDBRANCH   5  20
TORSDOF 4
ENDMDL
MODEL 5
REMARK VINA RESULT:      -7.1      1.963      3.426
REMARK  Name = 
REMARK  4 active torsions:
REMARK  status: ('A' for Active; 'I' for Inactive)
REMARK    1  A    between atoms: O_1  and  C_2
REMARK    2  A    between atoms: C_4  and  O_5
REMARK    3  A    between atoms: C_7  and  C_8
REMARK    4  A    between atoms: C_12  and  O_13
REMARK                            x       y       z     vdW  Elec       q    Type
REMARK                         _______ _______ _______ _____ _____    ______ ____
ROOT
ATOM      1  C   UNL     1       5.151   4.648  16.037  0.00  0.00    +0.000 A 
ATOM      2  C   UNL     1       4.707   5.736  16.767  0.00  0.00    +0.000 A 
ATOM      3  C   UNL     1       4.097   5.229  17.944  0.00  0.00    +0.000 A 
ATOM      4  C   UNL     1       3.484   5.791  19.078  0.00  0.00    +0.000 A 
ATOM      5  C   UNL     1       3.003   4.921  20.062  0.00  0.00    +0.000 A 
ATOM      6  C   UNL     1       3.113   3.537  19.939  0.00  0.00    +0.000 A 
ATOM      7  C   UNL     1       3.717   2.963  18.816  0.00  0.00    +0.000 A 
ATOM      8  C   UNL     1       4.196   3.846  17.850  0.00  0.00    +0.000 A 
ATOM      9  O   UNL     1       4.825   3.494  16.697  0.00  0.00    +0.000 OA
ENDROOT
BRANCH   1  14
ATOM     10  C   UNL     1       7.688   5.133  13.285  0.00  0.00    +0.000 A 
ATOM     11  C   UNL     1       7.223   4.261  12.305  0.00  0.00    +0.000 A 
ATOM     12  C   UNL     1       6.092   3.501  12.577  0.00  0.00    +0.000 A 
ATOM     13  C   UNL     1       5.429   3.608  13.798  0.00  0.00    +0.000 A 
ATOM     14  C   UNL     1       5.885   4.500  14.782  0.00  0.00    +0.000 A 
ATOM     15  C   UNL     1       7.034   5.256  14.510  0.00  0.00    +0.000 A 
BRANCH  10  16
ATOM     16  O   UNL     1       8.793   5.907  13.079  0.00  0.00    +0.000 OA
ATOM     17  H   UNL     1       8.712   6.356  12.222  0.00  0.00    +0.000 HD
ENDBRANCH  10  16
BRANCH  12  18
ATOM     18  O   UNL     1       5.580   2.630  11.660  0.00  0.00    +0.000 OA
ATOM     19  H   UNL     1       4.680   2.382  11.928  0.00  0.00    +0.000 HD
ENDBRANCH  12  18
ENDBRANCH   1  14
BRANCH   5  20
ATOM     20  O   UNL     1       2.403   5.405  21.190  0.00  0.00    +0.000 OA
ATOM     21  H   UNL     1       2.914   6.165  21.513  0.00  0.00    +0.000 HD
ENDBRANCH   5  20
TORSDOF 4
ENDMDL
MODEL 6
REMARK VINA RESULT:      -7.1      1.969      2.862
REMARK  Name = 
REMARK  4 active torsions:
REMARK  status: ('A' for Active; 'I' for Inactive)
REMARK    1  A    between atoms: O_1  and  C_2
REMARK    2  A    between atoms: C_4  and  O_5
REMARK    3  A    between atoms: C_7  and  C_8
REMARK    4  A    between atoms: C_12  and  O_13
REMARK                            x       y       z     vdW  Elec       q    Type
REMARK                         _______ _______ _______ _____ _____    ______ ____
ROOT
ATOM      1  C   UNL     1       5.086   4.681  15.999  0.00  0.00    +0.000 A 
ATOM      2  C   UNL     1       4.705   5.762  16.772  0.00  0.00    +0.000 A 
ATOM      3  C   UNL     1       4.084   5.245  17.938  0.00  0.00    +0.000 A 
ATOM      4  C   UNL     1       3.512   5.795  19.100  0.00  0.00    +0.000 A 
ATOM      5  C   UNL     1       2.998   4.915  20.057  0.00  0.00    +0.000 A 
ATOM      6  C   UNL     1       3.036   3.532  19.884  0.00  0.00    +0.000 A 
ATOM      7  C   UNL     1       3.599   2.970  18.733  0.00  0.00    +0.000 A 
ATOM      8  C   UNL     1       4.112   3.863  17.794  0.00  0.00    +0.000 A 
ATOM      9  O   UNL     1       4.710   3.522  16.621  0.00  0.00    +0.000 OA
ENDROOT
BRANCH   1  14
ATOM     10  C   UNL     1       6.094   3.492  12.561  0.00  0.00    +0.000 A 
ATOM     11  C   UNL     1       7.255   4.225  12.330  0.00  0.00    +0.000 A 
ATOM     12  C   UNL     1       7.675   5.124  13.302  0.00  0.00    +0.000 A 
ATOM     13  C   UNL     1       6.960   5.291  14.486  0.00  0.00    +0.000 A 
ATOM     14  C   UNL     1       5.798   4.542  14.731  0.00  0.00    +0.000 A 
ATOM     15  C   UNL     1       5.370   3.644  13.742  0.00  0.00    +0.000 A 
BRANCH  10  16
ATOM     16  O   UNL     1       5.629   2.593  11.646  0.00  0.00    +0.000 OA
ATOM     17  H   UNL     1       4.667   2.511  11.740  0.00  0.00    +0.000 HD
ENDBRANCH  10  16
BRANCH  12  18
ATOM     18  O   UNL     1       8.806   5.871  13.142  0.00  0.00    +0.000 OA
ATOM     19  H   UNL     1       8.593   6.660  12.618  0.00  0.00    +0.000 HD
ENDBRANCH  12  18
ENDBRANCH   1  14
BRANCH   5  20
ATOM     20  O   UNL     1       2.435   5.387  21.209  0.00  0.00    +0.000 OA
ATOM     21  H   UNL     1       3.140   5.546  21.858  0.00  0.00    +0.000 HD
ENDBRANCH   5  20
TORSDOF 4
ENDMDL
MODEL 7
REMARK VINA RESULT:      -7.0      2.194      3.505
REMARK  Name = 
REMARK  4 active torsions:
REMARK  status: ('A' for Active; 'I' for Inactive)
REMARK    1  A    between atoms: O_1  and  C_2
REMARK    2  A    between atoms: C_4  and  O_5
REMARK    3  A    between atoms: C_7  and  C_8
REMARK    4  A    between atoms: C_12  and  O_13
REMARK                            x       y       z     vdW  Elec       q    Type
REMARK                         _______ _______ _______ _____ _____    ______ ____
ROOT
ATOM      1  C   UNL     1       5.206   4.699  16.082  0.00  0.00    +0.000 A 
ATOM      2  C   UNL     1       4.927   3.860  17.145  0.00  0.00    +0.000 A 
ATOM      3  C   UNL     1       4.142   4.600  18.067  0.00  0.00    +0.000 A 
ATOM      4  C   UNL     1       3.530   4.334  19.305  0.00  0.00    +0.000 A 
ATOM      5  C   UNL     1       2.805   5.364  19.913  0.00  0.00    +0.000 A 
ATOM      6  C   UNL     1       2.686   6.624  19.330  0.00  0.00    +0.000 A 
ATOM      7  C   UNL     1       3.291   6.906  18.101  0.00  0.00    +0.000 A 
ATOM      8  C   UNL     1       4.003   5.865  17.508  0.00  0.00    +0.000 A 
ATOM      9  O   UNL     1       4.650   5.927  16.314  0.00  0.00    +0.000 OA
ENDROOT
BRANCH   1  14
ATOM     10  C   UNL     1       7.689   5.137  13.273  0.00  0.00    +0.000 A 
ATOM     11  C   UNL     1       7.206   4.249  12.317  0.00  0.00    +0.000 A 
ATOM     12  C   UNL     1       6.081   3.493  12.625  0.00  0.00    +0.000 A 
ATOM     13  C   UNL     1       5.442   3.621  13.856  0.00  0.00    +0.000 A 
ATOM     14  C   UNL     1       5.915   4.529  14.816  0.00  0.00    +0.000 A 
ATOM     15  C   UNL     1       7.059   5.281  14.508  0.00  0.00    +0.000 A 
BRANCH  10  16
ATOM     16  O   UNL     1       8.790   5.908  13.032  0.00  0.00    +0.000 OA
ATOM     17  H   UNL     1       8.506   6.814  12.830  0.00  0.00    +0.000 HD
ENDBRANCH  10  16
BRANCH  12  18
ATOM     18  O   UNL     1       5.551   2.607  11.732  0.00  0.00    +0.000 OA
ATOM     19  H   UNL     1       5.271   3.088  10.937  0.00  0.00    +0.000 HD
ENDBRANCH  12  18
ENDBRANCH   1  14
BRANCH   5  20
ATOM     20  O   UNL     1       2.182   5.166  21.113  0.00  0.00    +0.000 OA
ATOM     21  H   UNL     1       1.787   6.006  21.400  0.00  0.00    +0.000 HD
ENDBRANCH   5  20
TORSDOF 4
ENDMDL
MODEL 8
REMARK VINA RESULT:      -6.9      2.175      2.952
REMARK  Name = 
REMARK  4 active torsions:
REMARK  status: ('A' for Active; 'I' for Inactive)
REMARK    1  A    between atoms: O_1  and  C_2
REMARK    2  A    between atoms: C_4  and  O_5
REMARK    3  A    between atoms: C_7  and  C_8
REMARK    4  A    between atoms: C_12  and  O_13
REMARK                            x       y       z     vdW  Elec       q    Type
REMARK                         _______ _______ _______ _____ _____    ______ ____
ROOT
ATOM      1  C   UNL     1       5.231   4.721  16.085  0.00  0.00    +0.000 A 
ATOM      2  C   UNL     1       4.985   3.880  17.154  0.00  0.00    +0.000 A 
ATOM      3  C   UNL     1       4.194   4.605  18.083  0.00  0.00    +0.000 A 
ATOM      4  C   UNL     1       3.603   4.328  19.329  0.00  0.00    +0.000 A 
ATOM      5  C   UNL     1       2.862   5.344  19.942  0.00  0.00    +0.000 A 
ATOM      6  C   UNL     1       2.706   6.598  19.357  0.00  0.00    +0.000 A 
ATOM      7  C   UNL     1       3.290   6.890  18.120  0.00  0.00    +0.000 A 
ATOM      8  C   UNL     1       4.018   5.864  17.522  0.00  0.00    +0.000 A 
ATOM      9  O   UNL     1       4.650   5.938  16.320  0.00  0.00    +0.000 OA
ENDROOT
BRANCH   1  14
ATOM     10  C   UNL     1       6.205   3.480  12.656  0.00  0.00    +0.000 A 
ATOM     11  C   UNL     1       7.359   4.214  12.398  0.00  0.00    +0.000 A 
ATOM     12  C   UNL     1       7.785   5.132  13.350  0.00  0.00    +0.000 A 
ATOM     13  C   UNL     1       7.084   5.315  14.540  0.00  0.00    +0.000 A 
ATOM     14  C   UNL     1       5.929   4.564  14.811  0.00  0.00    +0.000 A 
ATOM     15  C   UNL     1       5.494   3.648  13.843  0.00  0.00    +0.000 A 
BRANCH  10  16
ATOM     16  O   UNL     1       5.734   2.562  11.762  0.00  0.00    +0.000 OA
ATOM     17  H   UNL     1       6.431   2.359  11.117  0.00  0.00    +0.000 HD
ENDBRANCH  10  16
BRANCH  12  18
ATOM     18  O   UNL     1       8.911   5.881  13.164  0.00  0.00    +0.000 OA
ATOM     19  H   UNL     1       8.962   6.149  12.232  0.00  0.00    +0.000 HD
ENDBRANCH  12  18
ENDBRANCH   1  14
BRANCH   5  20
ATOM     20  O   UNL     1       2.258   5.135  21.150  0.00  0.00    +0.000 OA
ATOM     21  H   UNL     1       2.853   5.444  21.854  0.00  0.00    +0.000 HD
ENDBRANCH   5  20
TORSDOF 4
ENDMDL
MODEL 9
REMARK VINA RESULT:      -6.9      4.398      5.168
REMARK  Name = 
REMARK  4 active torsions:
REMARK  status: ('A' for Active; 'I' for Inactive)
REMARK    1  A    between atoms: O_1  and  C_2
REMARK    2  A    between atoms: C_4  and  O_5
REMARK    3  A    between atoms: C_7  and  C_8
REMARK    4  A    between atoms: C_12  and  O_13
REMARK                            x       y       z     vdW  Elec       q    Type
REMARK                         _______ _______ _______ _____ _____    ______ ____
ROOT
ATOM      1  C   UNL     1       2.961   7.336  18.370  0.00  0.00    +0.000 A 
ATOM      2  C   UNL     1       2.319   8.421  17.802  0.00  0.00    +0.000 A 
ATOM      3  C   UNL     1       1.467   8.971  18.795  0.00  0.00    +0.000 A 
ATOM      4  C   UNL     1       0.584  10.063  18.868  0.00  0.00    +0.000 A 
ATOM      5  C   UNL     1      -0.085  10.285  20.076  0.00  0.00    +0.000 A 
ATOM      6  C   UNL     1       0.100   9.459  21.184  0.00  0.00    +0.000 A 
ATOM      7  C   UNL     1       0.972   8.367  21.126  0.00  0.00    +0.000 A 
ATOM      8  C   UNL     1       1.634   8.166  19.916  0.00  0.00    +0.000 A 
ATOM      9  O   UNL     1       2.530   7.176  19.659  0.00  0.00    +0.000 OA
ENDROOT
BRANCH   1  14
ATOM     10  C   UNL     1       5.537   5.624  16.206  0.00  0.00    +0.000 A 
ATOM     11  C   UNL     1       5.861   4.507  16.969  0.00  0.00    +0.000 A 
ATOM     12  C   UNL     1       5.245   4.348  18.204  0.00  0.00    +0.000 A 
ATOM     13  C   UNL     1       4.318   5.277  18.672  0.00  0.00    +0.000 A 
ATOM     14  C   UNL     1       3.976   6.396  17.898  0.00  0.00    +0.000 A 
ATOM     15  C   UNL     1       4.609   6.562  16.657  0.00  0.00    +0.000 A 
BRANCH  10  16
ATOM     16  O   UNL     1       6.107   5.838  14.984  0.00  0.00    +0.000 OA
ATOM     17  H   UNL     1       6.172   6.793  14.826  0.00  0.00    +0.000 HD
ENDBRANCH  10  16
BRANCH  12  18
ATOM     18  O   UNL     1       5.512   3.273  19.002  0.00  0.00    +0.000 OA
ATOM     19  H   UNL     1       4.692   2.774  19.145  0.00  0.00    +0.000 HD
ENDBRANCH  12  18
ENDBRANCH   1  14
BRANCH   5  20
ATOM     20  O   UNL     1      -0.951  11.332  20.213  0.00  0.00    +0.000 OA
ATOM     21  H   UNL     1      -0.622  11.920  20.913  0.00  0.00    +0.000 HD
ENDBRANCH   5  20
TORSDOF 4
ENDMDL
