MODEL 1
REMARK VINA RESULT:      -7.7      0.000      0.000
REMARK  Name = 
REMARK  7 active torsions:
REMARK  status: ('A' for Active; 'I' for Inactive)
REMARK    1  A    between atoms: C_1  and  C_2
REMARK    2  A    between atoms: C_2  and  C_3
REMARK    3  A    between atoms: C_2  and  C_4
REMARK    4  A    between atoms: C_4  and  S_5
REMARK    5  A    between atoms: S_5  and  C_8
REMARK    6  A    between atoms: C_11  and  C_12
REMARK    7  A    between atoms: N_14  and  C_15
REMARK                            x       y       z     vdW  Elec       q    Type
REMARK                         _______ _______ _______ _____ _____    ______ ____
ROOT
ATOM      1  C   UNL     1       4.543   5.797  17.505  0.00  0.00    +0.000 A 
ATOM      2  C   UNL     1       3.857   6.980  17.240  0.00  0.00    +0.000 A 
ATOM      3  C   UNL     1       2.931   7.451  18.172  0.00  0.00    +0.000 A 
ATOM      4  C   UNL     1       2.674   6.741  19.359  0.00  0.00    +0.000 A 
ATOM      5  C   UNL     1       3.381   5.564  19.620  0.00  0.00    +0.000 A 
ATOM      6  C   UNL     1       4.308   5.099  18.685  0.00  0.00    +0.000 A 
ATOM      7  F   UNL     1       4.977   3.972  18.962  0.00  0.00    +0.000 F 
ENDROOT
BRANCH   4   8
ATOM      8  C   UNL     1       1.668   7.327  20.291  0.00  0.00    +0.000 C 
ATOM      9  O   UNL     1       1.080   6.550  21.037  0.00  0.00    +0.000 OA
ATOM     10  N   UNL     1       1.474   8.697  20.241  0.00  0.00    +0.000 N 
ATOM     11  H   UNL     1       1.944   9.232  19.524  0.00  0.00    +0.000 HD
BRANCH  10  12
ATOM     12  C   UNL     1       0.616   9.430  21.098  0.00  0.00    +0.000 A 
ATOM     13  C   UNL     1       0.495   9.193  22.468  0.00  0.00    +0.000 A 
ATOM     14  C   UNL     1      -0.397   9.944  23.232  0.00  0.00    +0.000 A 
ATOM     15  C   UNL     1      -1.140  10.917  22.592  0.00  0.00    +0.000 A 
ATOM     16 CL   UNL     1      -2.288  11.854  23.454  0.00  0.00    +0.000 Cl
ATOM     17  N   UNL     1      -1.040  11.207  21.280  0.00  0.00    +0.000 NA
ATOM     18  C   UNL     1      -0.159  10.462  20.569  0.00  0.00    +0.000 A 
ENDBRANCH  10  12
ENDBRANCH   4   8
BRANCH   1  19
ATOM     19  S   UNL     1       5.681   5.147  16.321  0.00  0.00    +0.000 S 
ATOM     20  O   UNL     1       5.648   6.039  15.173  0.00  0.00    +0.000 OA
ATOM     21  O   UNL     1       5.349   3.745  16.175  0.00  0.00    +0.000 OA
BRANCH  19  22
ATOM     22  C   UNL     1       7.283   5.318  17.087  0.00  0.00    +0.000 C 
BRANCH  22  24
ATOM     23  C   UNL     1       8.175   5.868  19.357  0.00  0.00    +0.000 C 
ATOM     24  C   UNL     1       7.333   6.387  18.188  0.00  0.00    +0.000 C 
ATOM     25  C   UNL     1       7.910   7.717  17.701  0.00  0.00    +0.000 C 
ENDBRANCH  22  24
ENDBRANCH  19  22
ENDBRANCH   1  19
TORSDOF 5
ENDMDL
MODEL 2
REMARK VINA RESULT:      -7.3      2.064      2.524
REMARK  Name = 
REMARK  7 active torsions:
REMARK  status: ('A' for Active; 'I' for Inactive)
REMARK    1  A    between atoms: C_1  and  C_2
REMARK    2  A    between atoms: C_2  and  C_3
REMARK    3  A    between atoms: C_2  and  C_4
REMARK    4  A    between atoms: C_4  and  S_5
REMARK    5  A    between atoms: S_5  and  C_8
REMARK    6  A    between atoms: C_11  and  C_12
REMARK    7  A    between atoms: N_14  and  C_15
REMARK                            x       y       z     vdW  Elec       q    Type
REMARK                         _______ _______ _______ _____ _____    ______ ____
ROOT
ATOM      1  C   UNL     1       3.397   5.469  18.804  0.00  0.00    +0.000 A 
ATOM      2  C   UNL     1       3.339   6.590  17.978  0.00  0.00    +0.000 A 
ATOM      3  C   UNL     1       2.597   7.697  18.390  0.00  0.00    +0.000 A 
ATOM      4  C   UNL     1       1.901   7.689  19.613  0.00  0.00    +0.000 A 
ATOM      5  C   UNL     1       1.981   6.564  20.439  0.00  0.00    +0.000 A 
ATOM      6  C   UNL     1       2.727   5.460  20.022  0.00  0.00    +0.000 A 
ATOM      7  F   UNL     1       2.793   4.397  20.836  0.00  0.00    +0.000 F 
ENDROOT
BRANCH   4   8
ATOM      8  C   UNL     1       1.138   8.922  19.963  0.00  0.00    +0.000 C 
ATOM      9  O   UNL     1       0.612   9.533  19.037  0.00  0.00    +0.000 OA
ATOM     10  N   UNL     1       1.083   9.281  21.298  0.00  0.00    +0.000 N 
ATOM     11  H   UNL     1       1.629   8.757  21.969  0.00  0.00    +0.000 HD
BRANCH  10  12
ATOM     12  C   UNL     1       0.347  10.373  21.819  0.00  0.00    +0.000 A 
ATOM     13  C   UNL     1      -0.727  10.240  22.700  0.00  0.00    +0.000 A 
ATOM     14  C   UNL     1      -1.415  11.370  23.140  0.00  0.00    +0.000 A 
ATOM     15  C   UNL     1      -0.998  12.604  22.681  0.00  0.00    +0.000 A 
ATOM     16 CL   UNL     1      -1.818  14.037  23.143  0.00  0.00    +0.000 Cl
ATOM     17  N   UNL     1       0.050  12.791  21.854  0.00  0.00    +0.000 NA
ATOM     18  C   UNL     1       0.700  11.672  21.452  0.00  0.00    +0.000 A 
ENDBRANCH  10  12
ENDBRANCH   4   8
BRANCH   1  19
ATOM     19  S   UNL     1       4.283   4.031  18.286  0.00  0.00    +0.000 S 
ATOM     20  O   UNL     1       3.347   2.919  18.343  0.00  0.00    +0.000 OA
ATOM     21  O   UNL     1       5.502   4.009  19.068  0.00  0.00    +0.000 OA
BRANCH  19  22
ATOM     22  C   UNL     1       4.664   4.324  16.568  0.00  0.00    +0.000 C 
BRANCH  22  24
ATOM     23  C   UNL     1       6.447   3.998  14.846  0.00  0.00    +0.000 C 
ATOM     24  C   UNL     1       6.167   4.455  16.280  0.00  0.00    +0.000 C 
ATOM     25  C   UNL     1       6.687   5.882  16.467  0.00  0.00    +0.000 C 
ENDBRANCH  22  24
ENDBRANCH  19  22
ENDBRANCH   1  19
TORSDOF 5
ENDMDL
MODEL 3
REMARK VINA RESULT:      -7.3      2.380      3.155
REMARK  Name = 
REMARK  7 active torsions:
REMARK  status: ('A' for Active; 'I' for Inactive)
REMARK    1  A    between atoms: C_1  and  C_2
REMARK    2  A    between atoms: C_2  and  C_3
REMARK    3  A    between atoms: C_2  and  C_4
REMARK    4  A    between atoms: C_4  and  S_5
REMARK    5  A    between atoms: S_5  and  C_8
REMARK    6  A    between atoms: C_11  and  C_12
REMARK    7  A    between atoms: N_14  and  C_15
REMARK                            x       y       z     vdW  Elec       q    Type
REMARK                         _______ _______ _______ _____ _____    ______ ____
ROOT
ATOM      1  C   UNL     1       4.942   4.913  16.841  0.00  0.00    +0.000 A 
ATOM      2  C   UNL     1       4.289   4.145  17.803  0.00  0.00    +0.000 A 
ATOM      3  C   UNL     1       3.426   4.773  18.701  0.00  0.00    +0.000 A 
ATOM      4  C   UNL     1       3.220   6.164  18.656  0.00  0.00    +0.000 A 
ATOM      5  C   UNL     1       3.869   6.921  17.676  0.00  0.00    +0.000 A 
ATOM      6  C   UNL     1       4.730   6.286  16.778  0.00  0.00    +0.000 A 
ATOM      7  F   UNL     1       5.334   7.034  15.845  0.00  0.00    +0.000 F 
ENDROOT
BRANCH   4   8
ATOM      8  C   UNL     1       2.277   6.739  19.658  0.00  0.00    +0.000 C 
ATOM      9  O   UNL     1       1.775   5.960  20.463  0.00  0.00    +0.000 OA
ATOM     10  N   UNL     1       2.041   8.102  19.602  0.00  0.00    +0.000 N 
ATOM     11  H   UNL     1       2.435   8.637  18.841  0.00  0.00    +0.000 HD
BRANCH  10  12
ATOM     12  C   UNL     1       1.236   8.827  20.516  0.00  0.00    +0.000 A 
ATOM     13  C   UNL     1       1.326   8.702  21.903  0.00  0.00    +0.000 A 
ATOM     14  C   UNL     1       0.473   9.433  22.728  0.00  0.00    +0.000 A 
ATOM     15  C   UNL     1      -0.445  10.275  22.130  0.00  0.00    +0.000 A 
ATOM     16 CL   UNL     1      -1.556  11.176  23.074  0.00  0.00    +0.000 Cl
ATOM     17  N   UNL     1      -0.553  10.455  20.799  0.00  0.00    +0.000 NA
ATOM     18  C   UNL     1       0.295   9.734  20.028  0.00  0.00    +0.000 A 
ENDBRANCH  10  12
ENDBRANCH   4   8
BRANCH   1  19
ATOM     19  S   UNL     1       6.083   4.157  15.726  0.00  0.00    +0.000 S 
ATOM     20  O   UNL     1       5.935   2.719  15.884  0.00  0.00    +0.000 OA
ATOM     21  O   UNL     1       7.360   4.797  15.964  0.00  0.00    +0.000 OA
BRANCH  19  22
ATOM     22  C   UNL     1       5.482   4.583  14.101  0.00  0.00    +0.000 C 
BRANCH  22  24
ATOM     23  C   UNL     1       5.000   3.282  12.021  0.00  0.00    +0.000 C 
ATOM     24  C   UNL     1       6.105   3.751  12.971  0.00  0.00    +0.000 C 
ATOM     25  C   UNL     1       7.161   4.522  12.176  0.00  0.00    +0.000 C 
ENDBRANCH  22  24
ENDBRANCH  19  22
ENDBRANCH   1  19
TORSDOF 5
ENDMDL
MODEL 4
REMARK VINA RESULT:      -7.3      1.878      2.640
REMARK  Name = 
REMARK  7 active torsions:
REMARK  status: ('A' for Active; 'I' for Inactive)
REMARK    1  A    between atoms: C_1  and  C_2
REMARK    2  A    between atoms: C_2  and  C_3
REMARK    3  A    between atoms: C_2  and  C_4
REMARK    4  A    between atoms: C_4  and  S_5
REMARK    5  A    between atoms: S_5  and  C_8
REMARK    6  A    between atoms: C_11  and  C_12
REMARK    7  A    between atoms: N_14  and  C_15
REMARK                            x       y       z     vdW  Elec       q    Type
REMARK                         _______ _______ _______ _____ _____    ______ ____
ROOT
ATOM      1  C   UNL     1       5.087   5.115  17.456  0.00  0.00    +0.000 A 
ATOM      2  C   UNL     1       4.417   6.254  17.016  0.00  0.00    +0.000 A 
ATOM      3  C   UNL     1       3.463   6.842  17.846  0.00  0.00    +0.000 A 
ATOM      4  C   UNL     1       3.162   6.294  19.106  0.00  0.00    +0.000 A 
ATOM      5  C   UNL     1       3.853   5.160  19.542  0.00  0.00    +0.000 A 
ATOM      6  C   UNL     1       4.809   4.576  18.708  0.00  0.00    +0.000 A 
ATOM      7  F   UNL     1       5.461   3.494  19.153  0.00  0.00    +0.000 F 
ENDROOT
BRANCH   4   8
ATOM      8  C   UNL     1       2.127   6.997  19.918  0.00  0.00    +0.000 C 
ATOM      9  O   UNL     1       1.504   6.322  20.732  0.00  0.00    +0.000 OA
ATOM     10  N   UNL     1       1.950   8.351  19.691  0.00  0.00    +0.000 N 
ATOM     11  H   UNL     1       2.452   8.790  18.932  0.00  0.00    +0.000 HD
BRANCH  10  12
ATOM     12  C   UNL     1       1.068   9.191  20.417  0.00  0.00    +0.000 A 
ATOM     13  C   UNL     1       0.054   9.947  19.830  0.00  0.00    +0.000 A 
ATOM     14  C   UNL     1      -0.750  10.770  20.618  0.00  0.00    +0.000 A 
ATOM     15  C   UNL     1      -0.509  10.804  21.978  0.00  0.00    +0.000 A 
ATOM     16 CL   UNL     1      -1.426  11.821  23.007  0.00  0.00    +0.000 Cl
ATOM     17  N   UNL     1       0.437  10.071  22.598  0.00  0.00    +0.000 NA
ATOM     18  C   UNL     1       1.194   9.278  21.803  0.00  0.00    +0.000 A 
ENDBRANCH  10  12
ENDBRANCH   4   8
BRANCH   1  19
ATOM     19  S   UNL     1       6.261   4.314  16.407  0.00  0.00    +0.000 S 
ATOM     20  O   UNL     1       5.807   2.943  16.238  0.00  0.00    +0.000 OA
ATOM     21  O   UNL     1       7.563   4.595  16.976  0.00  0.00    +0.000 OA
BRANCH  19  22
ATOM     22  C   UNL     1       6.095   5.133  14.830  0.00  0.00    +0.000 C 
BRANCH  22  24
ATOM     23  C   UNL     1       5.634   3.768  12.787  0.00  0.00    +0.000 C 
ATOM     24  C   UNL     1       6.737   4.367  13.664  0.00  0.00    +0.000 C 
ATOM     25  C   UNL     1       7.645   5.247  12.802  0.00  0.00    +0.000 C 
ENDBRANCH  22  24
ENDBRANCH  19  22
ENDBRANCH   1  19
TORSDOF 5
ENDMDL
MODEL 5
REMARK VINA RESULT:      -7.2      0.997      1.395
REMARK  Name = 
REMARK  7 active torsions:
REMARK  status: ('A' for Active; 'I' for Inactive)
REMARK    1  A    between atoms: C_1  and  C_2
REMARK    2  A    between atoms: C_2  and  C_3
REMARK    3  A    between atoms: C_2  and  C_4
REMARK    4  A    between atoms: C_4  and  S_5
REMARK    5  A    between atoms: S_5  and  C_8
REMARK    6  A    between atoms: C_11  and  C_12
REMARK    7  A    between atoms: N_14  and  C_15
REMARK                            x       y       z     vdW  Elec       q    Type
REMARK                         _______ _______ _______ _____ _____    ______ ____
ROOT
ATOM      1  C   UNL     1       4.486   5.545  17.325  0.00  0.00    +0.000 A 
ATOM      2  C   UNL     1       4.036   4.840  18.438  0.00  0.00    +0.000 A 
ATOM      3  C   UNL     1       3.153   5.460  19.322  0.00  0.00    +0.000 A 
ATOM      4  C   UNL     1       2.726   6.784  19.111  0.00  0.00    +0.000 A 
ATOM      5  C   UNL     1       3.173   7.475  17.980  0.00  0.00    +0.000 A 
ATOM      6  C   UNL     1       4.056   6.848  17.098  0.00  0.00    +0.000 A 
ATOM      7  F   UNL     1       4.463   7.530  16.020  0.00  0.00    +0.000 F 
ENDROOT
BRANCH   4   8
ATOM      8  C   UNL     1       1.780   7.356  20.112  0.00  0.00    +0.000 C 
ATOM      9  O   UNL     1       1.343   6.591  20.967  0.00  0.00    +0.000 OA
ATOM     10  N   UNL     1       1.468   8.700  19.999  0.00  0.00    +0.000 N 
ATOM     11  H   UNL     1       1.812   9.217  19.202  0.00  0.00    +0.000 HD
BRANCH  10  12
ATOM     12  C   UNL     1       0.650   9.425  20.901  0.00  0.00    +0.000 A 
ATOM     13  C   UNL     1       0.571   9.158  22.268  0.00  0.00    +0.000 A 
ATOM     14  C   UNL     1      -0.285   9.903  23.078  0.00  0.00    +0.000 A 
ATOM     15  C   UNL     1      -1.035  10.901  22.486  0.00  0.00    +0.000 A 
ATOM     16 CL   UNL     1      -2.140  11.833  23.406  0.00  0.00    +0.000 Cl
ATOM     17  N   UNL     1      -0.974  11.219  21.177  0.00  0.00    +0.000 NA
ATOM     18  C   UNL     1      -0.127  10.479  20.421  0.00  0.00    +0.000 A 
ENDBRANCH  10  12
ENDBRANCH   4   8
BRANCH   1  19
ATOM     19  S   UNL     1       5.648   4.808  16.217  0.00  0.00    +0.000 S 
ATOM     20  O   UNL     1       5.427   5.413  14.913  0.00  0.00    +0.000 OA
ATOM     21  O   UNL     1       5.520   3.377  16.397  0.00  0.00    +0.000 OA
BRANCH  19  22
ATOM     22  C   UNL     1       7.243   5.356  16.799  0.00  0.00    +0.000 C 
BRANCH  22  24
ATOM     23  C   UNL     1       7.913   5.810  19.164  0.00  0.00    +0.000 C 
ATOM     24  C   UNL     1       7.169   6.370  17.949  0.00  0.00    +0.000 C 
ATOM     25  C   UNL     1       7.757   7.733  17.581  0.00  0.00    +0.000 C 
ENDBRANCH  22  24
ENDBRANCH  19  22
ENDBRANCH   1  19
TORSDOF 5
ENDMDL
MODEL 6
REMARK VINA RESULT:      -7.2      2.469      3.290
REMARK  Name = 
REMARK  7 active torsions:
REMARK  status: ('A' for Active; 'I' for Inactive)
REMARK    1  A    between atoms: C_1  and  C_2
REMARK    2  A    between atoms: C_2  and  C_3
REMARK    3  A    between atoms: C_2  and  C_4
REMARK    4  A    between atoms: C_4  and  S_5
REMARK    5  A    between atoms: S_5  and  C_8
REMARK    6  A    between atoms: C_11  and  C_12
REMARK    7  A    between atoms: N_14  and  C_15
REMARK                            x       y       z     vdW  Elec       q    Type
REMARK                         _______ _______ _______ _____ _____    ______ ____
ROOT
ATOM      1  C   UNL     1       5.183   5.302  16.433  0.00  0.00    +0.000 A 
ATOM      2  C   UNL     1       5.118   6.667  16.703  0.00  0.00    +0.000 A 
ATOM      3  C   UNL     1       4.198   7.129  17.644  0.00  0.00    +0.000 A 
ATOM      4  C   UNL     1       3.332   6.241  18.307  0.00  0.00    +0.000 A 
ATOM      5  C   UNL     1       3.419   4.871  18.039  0.00  0.00    +0.000 A 
ATOM      6  C   UNL     1       4.343   4.415  17.097  0.00  0.00    +0.000 A 
ATOM      7  F   UNL     1       4.410   3.097  16.864  0.00  0.00    +0.000 F 
ENDROOT
BRANCH   4   8
ATOM      8  C   UNL     1       2.386   6.833  19.296  0.00  0.00    +0.000 C 
ATOM      9  O   UNL     1       1.980   6.097  20.190  0.00  0.00    +0.000 OA
ATOM     10  N   UNL     1       2.037   8.163  19.128  0.00  0.00    +0.000 N 
ATOM     11  H   UNL     1       2.357   8.652  18.304  0.00  0.00    +0.000 HD
BRANCH  10  12
ATOM     12  C   UNL     1       1.213   8.906  20.008  0.00  0.00    +0.000 A 
ATOM     13  C   UNL     1       0.323   9.897  19.592  0.00  0.00    +0.000 A 
ATOM     14  C   UNL     1      -0.430  10.600  20.530  0.00  0.00    +0.000 A 
ATOM     15  C   UNL     1      -0.267  10.282  21.865  0.00  0.00    +0.000 A 
ATOM     16 CL   UNL     1      -1.125  11.130  23.082  0.00  0.00    +0.000 Cl
ATOM     17  N   UNL     1       0.556   9.315  22.318  0.00  0.00    +0.000 NA
ATOM     18  C   UNL     1       1.267   8.647  21.378  0.00  0.00    +0.000 A 
ENDBRANCH  10  12
ENDBRANCH   4   8
BRANCH   1  19
ATOM     19  S   UNL     1       6.299   4.691  15.207  0.00  0.00    +0.000 S 
ATOM     20  O   UNL     1       6.699   3.358  15.630  0.00  0.00    +0.000 OA
ATOM     21  O   UNL     1       7.289   5.731  15.014  0.00  0.00    +0.000 OA
BRANCH  19  22
ATOM     22  C   UNL     1       5.306   4.513  13.736  0.00  0.00    +0.000 C 
BRANCH  22  24
ATOM     23  C   UNL     1       4.762   3.148  11.714  0.00  0.00    +0.000 C 
ATOM     24  C   UNL     1       5.844   3.469  12.747  0.00  0.00    +0.000 C 
ATOM     25  C   UNL     1       7.112   3.930  12.025  0.00  0.00    +0.000 C 
ENDBRANCH  22  24
ENDBRANCH  19  22
ENDBRANCH   1  19
TORSDOF 5
ENDMDL
MODEL 7
REMARK VINA RESULT:      -7.2      2.266      3.156
REMARK  Name = 
REMARK  7 active torsions:
REMARK  status: ('A' for Active; 'I' for Inactive)
REMARK    1  A    between atoms: C_1  and  C_2
REMARK    2  A    between atoms: C_2  and  C_3
REMARK    3  A    between atoms: C_2  and  C_4
REMARK    4  A    between atoms: C_4  and  S_5
REMARK    5  A    between atoms: S_5  and  C_8
REMARK    6  A    between atoms: C_11  and  C_12
REMARK    7  A    between atoms: N_14  and  C_15
REMARK                            x       y       z     vdW  Elec       q    Type
REMARK                         _______ _______ _______ _____ _____    ______ ____
ROOT
ATOM      1  C   UNL     1       5.613   5.476  17.154  0.00  0.00    +0.000 A 
ATOM      2  C   UNL     1       5.408   4.981  18.439  0.00  0.00    +0.000 A 
ATOM      3  C   UNL     1       4.366   5.498  19.208  0.00  0.00    +0.000 A 
ATOM      4  C   UNL     1       3.533   6.517  18.708  0.00  0.00    +0.000 A 
ATOM      5  C   UNL     1       3.740   6.994  17.410  0.00  0.00    +0.000 A 
ATOM      6  C   UNL     1       4.784   6.471  16.645  0.00  0.00    +0.000 A 
ATOM      7  F   UNL     1       4.956   6.941  15.402  0.00  0.00    +0.000 F 
ENDROOT
BRANCH   4   8
ATOM      8  C   UNL     1       2.447   7.002  19.606  0.00  0.00    +0.000 C 
ATOM      9  O   UNL     1       1.897   6.166  20.318  0.00  0.00    +0.000 OA
ATOM     10  N   UNL     1       2.142   8.352  19.567  0.00  0.00    +0.000 N 
ATOM     11  H   UNL     1       2.593   8.936  18.878  0.00  0.00    +0.000 HD
BRANCH  10  12
ATOM     12  C   UNL     1       1.194   8.997  20.400  0.00  0.00    +0.000 A 
ATOM     13  C   UNL     1       0.106   9.729  19.920  0.00  0.00    +0.000 A 
ATOM     14  C   UNL     1      -0.762  10.357  20.812  0.00  0.00    +0.000 A 
ATOM     15  C   UNL     1      -0.511  10.226  22.164  0.00  0.00    +0.000 A 
ATOM     16 CL   UNL     1      -1.507  11.002  23.322  0.00  0.00    +0.000 Cl
ATOM     17  N   UNL     1       0.506   9.507  22.680  0.00  0.00    +0.000 NA
ATOM     18  C   UNL     1       1.326   8.905  21.785  0.00  0.00    +0.000 A 
ENDBRANCH  10  12
ENDBRANCH   4   8
BRANCH   1  19
ATOM     19  S   UNL     1       6.958   4.881  16.176  0.00  0.00    +0.000 S 
ATOM     20  O   UNL     1       7.802   4.091  17.059  0.00  0.00    +0.000 OA
ATOM     21  O   UNL     1       7.493   6.037  15.485  0.00  0.00    +0.000 OA
BRANCH  19  22
ATOM     22  C   UNL     1       6.210   3.762  15.005  0.00  0.00    +0.000 C 
BRANCH  22  24
ATOM     23  C   UNL     1       7.374   4.334  12.868  0.00  0.00    +0.000 C 
ATOM     24  C   UNL     1       6.031   4.361  13.602  0.00  0.00    +0.000 C 
ATOM     25  C   UNL     1       4.984   3.621  12.768  0.00  0.00    +0.000 C 
ENDBRANCH  22  24
ENDBRANCH  19  22
ENDBRANCH   1  19
TORSDOF 5
ENDMDL
MODEL 8
REMARK VINA RESULT:      -7.2      2.793      4.006
REMARK  Name = 
REMARK  7 active torsions:
REMARK  status: ('A' for Active; 'I' for Inactive)
REMARK    1  A    between atoms: C_1  and  C_2
REMARK    2  A    between atoms: C_2  and  C_3
REMARK    3  A    between atoms: C_2  and  C_4
REMARK    4  A    between atoms: C_4  and  S_5
REMARK    5  A    between atoms: S_5  and  C_8
REMARK    6  A    between atoms: C_11  and  C_12
REMARK    7  A    between atoms: N_14  and  C_15
REMARK                            x       y       z     vdW  Elec       q    Type
REMARK                         _______ _______ _______ _____ _____    ______ ____
ROOT
ATOM      1  C   UNL     1       3.649   5.288  18.715  0.00  0.00    +0.000 A 
ATOM      2  C   UNL     1       2.854   5.733  19.769  0.00  0.00    +0.000 A 
ATOM      3  C   UNL     1       2.259   6.991  19.685  0.00  0.00    +0.000 A 
ATOM      4  C   UNL     1       2.462   7.815  18.563  0.00  0.00    +0.000 A 
ATOM      5  C   UNL     1       3.249   7.350  17.505  0.00  0.00    +0.000 A 
ATOM      6  C   UNL     1       3.841   6.088  17.594  0.00  0.00    +0.000 A 
ATOM      7  F   UNL     1       4.585   5.664  16.564  0.00  0.00    +0.000 F 
ENDROOT
BRANCH   4   8
ATOM      8  C   UNL     1       1.781   9.142  18.568  0.00  0.00    +0.000 C 
ATOM      9  O   UNL     1       1.912   9.840  17.567  0.00  0.00    +0.000 OA
ATOM     10  N   UNL     1       1.057   9.483  19.698  0.00  0.00    +0.000 N 
ATOM     11  H   UNL     1       1.090   8.873  20.503  0.00  0.00    +0.000 HD
BRANCH  10  12
ATOM     12  C   UNL     1       0.290  10.665  19.848  0.00  0.00    +0.000 A 
ATOM     13  C   UNL     1      -0.982  10.843  19.301  0.00  0.00    +0.000 A 
ATOM     14  C   UNL     1      -1.654  12.052  19.474  0.00  0.00    +0.000 A 
ATOM     15  C   UNL     1      -1.025  13.047  20.197  0.00  0.00    +0.000 A 
ATOM     16 CL   UNL     1      -1.768  14.576  20.417  0.00  0.00    +0.000 Cl
ATOM     17  N   UNL     1       0.187  12.917  20.770  0.00  0.00    +0.000 NA
ATOM     18  C   UNL     1       0.809  11.727  20.588  0.00  0.00    +0.000 A 
ENDBRANCH  10  12
ENDBRANCH   4   8
BRANCH   1  19
ATOM     19  S   UNL     1       4.462   3.723  18.815  0.00  0.00    +0.000 S 
ATOM     20  O   UNL     1       5.811   3.979  19.294  0.00  0.00    +0.000 OA
ATOM     21  O   UNL     1       4.243   3.076  17.538  0.00  0.00    +0.000 OA
BRANCH  19  22
ATOM     22  C   UNL     1       3.595   2.840  20.101  0.00  0.00    +0.000 C 
BRANCH  22  24
ATOM     23  C   UNL     1       1.522   1.973  19.004  0.00  0.00    +0.000 C 
ATOM     24  C   UNL     1       2.067   2.976  20.024  0.00  0.00    +0.000 C 
ATOM     25  C   UNL     1       1.381   2.749  21.373  0.00  0.00    +0.000 C 
ENDBRANCH  22  24
ENDBRANCH  19  22
ENDBRANCH   1  19
TORSDOF 5
ENDMDL
MODEL 9
REMARK VINA RESULT:      -7.2      1.203      1.250
REMARK  Name = 
REMARK  7 active torsions:
REMARK  status: ('A' for Active; 'I' for Inactive)
REMARK    1  A    between atoms: C_1  and  C_2
REMARK    2  A    between atoms: C_2  and  C_3
REMARK    3  A    between atoms: C_2  and  C_4
REMARK    4  A    between atoms: C_4  and  S_5
REMARK    5  A    between atoms: S_5  and  C_8
REMARK    6  A    between atoms: C_11  and  C_12
REMARK    7  A    between atoms: N_14  and  C_15
REMARK                            x       y       z     vdW  Elec       q    Type
REMARK                         _______ _______ _______ _____ _____    ______ ____
ROOT
ATOM      1  C   UNL     1       4.262   5.837  17.540  0.00  0.00    +0.000 A 
ATOM      2  C   UNL     1       3.844   7.089  17.094  0.00  0.00    +0.000 A 
ATOM      3  C   UNL     1       2.970   7.834  17.885  0.00  0.00    +0.000 A 
ATOM      4  C   UNL     1       2.498   7.333  19.112  0.00  0.00    +0.000 A 
ATOM      5  C   UNL     1       2.937   6.082  19.555  0.00  0.00    +0.000 A 
ATOM      6  C   UNL     1       3.814   5.342  18.759  0.00  0.00    +0.000 A 
ATOM      7  F   UNL     1       4.224   4.149  19.211  0.00  0.00    +0.000 F 
ENDROOT
BRANCH   4   8
ATOM      8  C   UNL     1       1.568   8.207  19.884  0.00  0.00    +0.000 C 
ATOM      9  O   UNL     1       1.227   7.812  20.996  0.00  0.00    +0.000 OA
ATOM     10  N   UNL     1       1.162   9.389  19.290  0.00  0.00    +0.000 N 
ATOM     11  H   UNL     1       1.430   9.573  18.333  0.00  0.00    +0.000 HD
BRANCH  10  12
ATOM     12  C   UNL     1       0.344  10.370  19.903  0.00  0.00    +0.000 A 
ATOM     13  C   UNL     1       0.688  11.054  21.070  0.00  0.00    +0.000 A 
ATOM     14  C   UNL     1      -0.192  11.983  21.622  0.00  0.00    +0.000 A 
ATOM     15  C   UNL     1      -1.395  12.200  20.978  0.00  0.00    +0.000 A 
ATOM     16 CL   UNL     1      -2.548  13.296  21.616  0.00  0.00    +0.000 Cl
ATOM     17  N   UNL     1      -1.763  11.590  19.834  0.00  0.00    +0.000 NA
ATOM     18  C   UNL     1      -0.881  10.698  19.322  0.00  0.00    +0.000 A 
ENDBRANCH  10  12
ENDBRANCH   4   8
BRANCH   1  19
ATOM     19  S   UNL     1       5.324   4.845  16.536  0.00  0.00    +0.000 S 
ATOM     20  O   UNL     1       5.431   5.514  15.249  0.00  0.00    +0.000 OA
ATOM     21  O   UNL     1       4.811   3.494  16.624  0.00  0.00    +0.000 OA
BRANCH  19  22
ATOM     22  C   UNL     1       6.921   4.945  17.326  0.00  0.00    +0.000 C 
BRANCH  22  24
ATOM     23  C   UNL     1       7.959   5.765  19.446  0.00  0.00    +0.000 C 
ATOM     24  C   UNL     1       7.077   6.155  18.258  0.00  0.00    +0.000 C 
ATOM     25  C   UNL     1       7.683   7.372  17.556  0.00  0.00    +0.000 C 
ENDBRANCH  22  24
ENDBRANCH  19  22
ENDBRANCH   1  19
TORSDOF 5
ENDMDL
