MODEL 1
REMARK VINA RESULT:      -8.0      0.000      0.000
REMARK  Name = 
REMARK  10 active torsions:
REMARK  status: ('A' for Active; 'I' for Inactive)
REMARK    1  A    between atoms: C_1  and  C_2
REMARK    2  A    between atoms: C_5  and  C_6
REMARK    3  A    between atoms: C_6  and  C_7
REMARK    4  A    between atoms: N_9  and  C_10
REMARK    5  A    between atoms: N_9  and  C_23
REMARK    6  A    between atoms: C_10  and  C_11
REMARK    7  A    between atoms: C_13  and  C_14
REMARK    8  A    between atoms: C_17  and  C_18
REMARK    9  A    between atoms: C_23  and  C_24
REMARK   10  A    between atoms: C_23  and  C_25
REMARK                            x       y       z     vdW  Elec       q    Type
REMARK                         _______ _______ _______ _____ _____    ______ ____
ROOT
ATOM      1  C   UNL     1       6.345   4.535  16.812  0.00  0.00    +0.000 C 
ATOM      2  O   UNL     1       7.401   3.962  17.107  0.00  0.00    +0.000 OA
ATOM      3  N   UNL     1       6.232   5.931  16.880  0.00  0.00    +0.000 N 
ENDROOT
BRANCH   3   4
ATOM      4  C   UNL     1       7.366   6.647  17.516  0.00  0.00    +0.000 C 
ATOM      5  C   UNL     1       7.328   8.170  17.402  0.00  0.00    +0.000 C 
ATOM      6  C   UNL     1       7.546   6.187  18.967  0.00  0.00    +0.000 C 
ENDBRANCH   3   4
BRANCH   1   7
ATOM      7  C   UNL     1       5.143   3.679  16.436  0.00  0.00    +0.000 C 
BRANCH   7  12
ATOM      8  C   UNL     1       1.129   2.743  20.580  0.00  0.00    +0.000 C 
ATOM      9  C   UNL     1       2.139   2.992  19.498  0.00  0.00    +0.000 A 
ATOM     10  C   UNL     1       1.745   3.273  18.185  0.00  0.00    +0.000 A 
ATOM     11  C   UNL     1       2.701   3.517  17.189  0.00  0.00    +0.000 A 
ATOM     12  C   UNL     1       4.070   3.503  17.489  0.00  0.00    +0.000 A 
ATOM     13  C   UNL     1       4.456   3.181  18.799  0.00  0.00    +0.000 A 
ATOM     14  C   UNL     1       3.503   2.935  19.793  0.00  0.00    +0.000 A 
ENDBRANCH   7  12
ENDBRANCH   1   7
BRANCH   3  15
ATOM     15  C   UNL     1       5.108   6.707  16.306  0.00  0.00    +0.000 C 
BRANCH  15  16
ATOM     16  C   UNL     1       4.096   7.155  17.314  0.00  0.00    +0.000 A 
ATOM     17  N   UNL     1       3.246   8.167  17.303  0.00  0.00    +0.000 NA
ATOM     18  C   UNL     1       2.567   8.016  18.500  0.00  0.00    +0.000 A 
ATOM     19  N   UNL     1       2.970   6.935  19.198  0.00  0.00    +0.000 NA
ATOM     20  O   UNL     1       3.974   6.374  18.423  0.00  0.00    +0.000 OA
BRANCH  18  21
ATOM     21  C   UNL     1       1.536   8.934  18.995  0.00  0.00    +0.000 A 
ATOM     22  C   UNL     1       1.090   8.921  20.323  0.00  0.00    +0.000 A 
ATOM     23  C   UNL     1       0.041   9.767  20.735  0.00  0.00    +0.000 A 
ATOM     24  C   UNL     1      -0.571  10.645  19.830  0.00  0.00    +0.000 A 
ATOM     25  C   UNL     1      -1.732  11.514  20.224  0.00  0.00    +0.000 C 
ATOM     26  C   UNL     1      -0.105  10.685  18.515  0.00  0.00    +0.000 A 
ATOM     27  C   UNL     1       0.933   9.842  18.106  0.00  0.00    +0.000 A 
ENDBRANCH  18  21
ENDBRANCH  15  16
ENDBRANCH   3  15
TORSDOF 6
ENDMDL
MODEL 2
REMARK VINA RESULT:      -7.8      1.957      4.241
REMARK  Name = 
REMARK  10 active torsions:
REMARK  status: ('A' for Active; 'I' for Inactive)
REMARK    1  A    between atoms: C_1  and  C_2
REMARK    2  A    between atoms: C_5  and  C_6
REMARK    3  A    between atoms: C_6  and  C_7
REMARK    4  A    between atoms: N_9  and  C_10
REMARK    5  A    between atoms: N_9  and  C_23
REMARK    6  A    between atoms: C_10  and  C_11
REMARK    7  A    between atoms: C_13  and  C_14
REMARK    8  A    between atoms: C_17  and  C_18
REMARK    9  A    between atoms: C_23  and  C_24
REMARK   10  A    between atoms: C_23  and  C_25
REMARK                            x       y       z     vdW  Elec       q    Type
REMARK                         _______ _______ _______ _____ _____    ______ ____
ROOT
ATOM      1  C   UNL     1       5.384   5.081  18.981  0.00  0.00    +0.000 C 
ATOM      2  O   UNL     1       6.257   4.759  19.797  0.00  0.00    +0.000 OA
ATOM      3  N   UNL     1       4.102   4.517  19.027  0.00  0.00    +0.000 N 
ENDROOT
BRANCH   3   4
ATOM      4  C   UNL     1       3.923   3.378  19.963  0.00  0.00    +0.000 C 
ATOM      5  C   UNL     1       2.653   3.418  20.812  0.00  0.00    +0.000 C 
ATOM      6  C   UNL     1       4.074   2.045  19.221  0.00  0.00    +0.000 C 
ENDBRANCH   3   4
BRANCH   1   7
ATOM      7  C   UNL     1       5.759   6.061  17.878  0.00  0.00    +0.000 C 
BRANCH   7  12
ATOM      8  C   UNL     1       6.466   3.601  12.623  0.00  0.00    +0.000 C 
ATOM      9  C   UNL     1       6.312   4.240  13.973  0.00  0.00    +0.000 A 
ATOM     10  C   UNL     1       7.421   4.692  14.695  0.00  0.00    +0.000 A 
ATOM     11  C   UNL     1       7.259   5.300  15.948  0.00  0.00    +0.000 A 
ATOM     12  C   UNL     1       5.983   5.485  16.496  0.00  0.00    +0.000 A 
ATOM     13  C   UNL     1       4.880   4.994  15.782  0.00  0.00    +0.000 A 
ATOM     14  C   UNL     1       5.041   4.386  14.533  0.00  0.00    +0.000 A 
ENDBRANCH   7  12
ENDBRANCH   1   7
BRANCH   3  15
ATOM     15  C   UNL     1       2.937   5.027  18.267  0.00  0.00    +0.000 C 
BRANCH  15  16
ATOM     16  C   UNL     1       2.458   6.374  18.710  0.00  0.00    +0.000 A 
ATOM     17  N   UNL     1       1.830   6.757  19.808  0.00  0.00    +0.000 NA
ATOM     18  C   UNL     1       1.702   8.124  19.632  0.00  0.00    +0.000 A 
ATOM     19  N   UNL     1       2.257   8.559  18.484  0.00  0.00    +0.000 NA
ATOM     20  O   UNL     1       2.748   7.411  17.878  0.00  0.00    +0.000 OA
BRANCH  18  21
ATOM     21  C   UNL     1       1.015   9.023  20.565  0.00  0.00    +0.000 A 
ATOM     22  C   UNL     1       0.541   8.595  21.813  0.00  0.00    +0.000 A 
ATOM     23  C   UNL     1      -0.184   9.472  22.643  0.00  0.00    +0.000 A 
ATOM     24  C   UNL     1      -0.438  10.792  22.246  0.00  0.00    +0.000 A 
ATOM     25  C   UNL     1      -1.260  11.733  23.082  0.00  0.00    +0.000 C 
ATOM     26  C   UNL     1       0.064  11.231  21.019  0.00  0.00    +0.000 A 
ATOM     27  C   UNL     1       0.779  10.359  20.194  0.00  0.00    +0.000 A 
ENDBRANCH  18  21
ENDBRANCH  15  16
ENDBRANCH   3  15
TORSDOF 6
ENDMDL
MODEL 3
REMARK VINA RESULT:      -7.7      0.465      1.537
REMARK  Name = 
REMARK  10 active torsions:
REMARK  status: ('A' for Active; 'I' for Inactive)
REMARK    1  A    between atoms: C_1  and  C_2
REMARK    2  A    between atoms: C_5  and  C_6
REMARK    3  A    between atoms: C_6  and  C_7
REMARK    4  A    between atoms: N_9  and  C_10
REMARK    5  A    between atoms: N_9  and  C_23
REMARK    6  A    between atoms: C_10  and  C_11
REMARK    7  A    between atoms: C_13  and  C_14
REMARK    8  A    between atoms: C_17  and  C_18
REMARK    9  A    between atoms: C_23  and  C_24
REMARK   10  A    between atoms: C_23  and  C_25
REMARK                            x       y       z     vdW  Elec       q    Type
REMARK                         _______ _______ _______ _____ _____    ______ ____
ROOT
ATOM      1  C   UNL     1       6.346   4.692  17.315  0.00  0.00    +0.000 C 
ATOM      2  O   UNL     1       7.430   4.252  17.717  0.00  0.00    +0.000 OA
ATOM      3  N   UNL     1       6.043   6.059  17.392  0.00  0.00    +0.000 N 
ENDROOT
BRANCH   3   4
ATOM      4  C   UNL     1       6.996   6.896  18.164  0.00  0.00    +0.000 C 
ATOM      5  C   UNL     1       7.888   6.139  19.148  0.00  0.00    +0.000 C 
ATOM      6  C   UNL     1       7.811   7.788  17.222  0.00  0.00    +0.000 C 
ENDBRANCH   3   4
BRANCH   1   7
ATOM      7  C   UNL     1       5.316   3.700  16.793  0.00  0.00    +0.000 C 
BRANCH   7  12
ATOM      8  C   UNL     1       0.614   2.848  20.159  0.00  0.00    +0.000 C 
ATOM      9  C   UNL     1       1.838   3.056  19.315  0.00  0.00    +0.000 A 
ATOM     10  C   UNL     1       3.123   2.913  19.849  0.00  0.00    +0.000 A 
ATOM     11  C   UNL     1       4.257   3.098  19.044  0.00  0.00    +0.000 A 
ATOM     12  C   UNL     1       4.128   3.411  17.685  0.00  0.00    +0.000 A 
ATOM     13  C   UNL     1       2.836   3.591  17.168  0.00  0.00    +0.000 A 
ATOM     14  C   UNL     1       1.705   3.409  17.970  0.00  0.00    +0.000 A 
ENDBRANCH   7  12
ENDBRANCH   1   7
BRANCH   3  15
ATOM     15  C   UNL     1       4.896   6.700  16.709  0.00  0.00    +0.000 C 
BRANCH  15  16
ATOM     16  C   UNL     1       3.825   7.187  17.635  0.00  0.00    +0.000 A 
ATOM     17  N   UNL     1       2.989   8.207  17.540  0.00  0.00    +0.000 NA
ATOM     18  C   UNL     1       2.233   8.097  18.694  0.00  0.00    +0.000 A 
ATOM     19  N   UNL     1       2.577   7.034  19.447  0.00  0.00    +0.000 NA
ATOM     20  O   UNL     1       3.623   6.441  18.756  0.00  0.00    +0.000 OA
BRANCH  18  21
ATOM     21  C   UNL     1       1.183   9.039  19.093  0.00  0.00    +0.000 A 
ATOM     22  C   UNL     1       0.446   9.786  18.164  0.00  0.00    +0.000 A 
ATOM     23  C   UNL     1      -0.498  10.738  18.595  0.00  0.00    +0.000 A 
ATOM     24  C   UNL     1      -0.729  10.952  19.961  0.00  0.00    +0.000 A 
ATOM     25  C   UNL     1      -1.684  12.003  20.453  0.00  0.00    +0.000 C 
ATOM     26  C   UNL     1      -0.022  10.186  20.889  0.00  0.00    +0.000 A 
ATOM     27  C   UNL     1       0.918   9.244  20.460  0.00  0.00    +0.000 A 
ENDBRANCH  18  21
ENDBRANCH  15  16
ENDBRANCH   3  15
TORSDOF 6
ENDMDL
MODEL 4
REMARK VINA RESULT:      -7.7      1.868      4.393
REMARK  Name = 
REMARK  10 active torsions:
REMARK  status: ('A' for Active; 'I' for Inactive)
REMARK    1  A    between atoms: C_1  and  C_2
REMARK    2  A    between atoms: C_5  and  C_6
REMARK    3  A    between atoms: C_6  and  C_7
REMARK    4  A    between atoms: N_9  and  C_10
REMARK    5  A    between atoms: N_9  and  C_23
REMARK    6  A    between atoms: C_10  and  C_11
REMARK    7  A    between atoms: C_13  and  C_14
REMARK    8  A    between atoms: C_17  and  C_18
REMARK    9  A    between atoms: C_23  and  C_24
REMARK   10  A    between atoms: C_23  and  C_25
REMARK                            x       y       z     vdW  Elec       q    Type
REMARK                         _______ _______ _______ _____ _____    ______ ____
ROOT
ATOM      1  C   UNL     1       4.195   3.579  18.314  0.00  0.00    +0.000 C 
ATOM      2  O   UNL     1       3.989   2.471  17.803  0.00  0.00    +0.000 OA
ATOM      3  N   UNL     1       3.212   4.221  19.080  0.00  0.00    +0.000 N 
ENDROOT
BRANCH   3   4
ATOM      4  C   UNL     1       1.864   3.598  19.066  0.00  0.00    +0.000 C 
ATOM      5  C   UNL     1       1.030   3.807  20.329  0.00  0.00    +0.000 C 
ATOM      6  C   UNL     1       1.099   4.002  17.801  0.00  0.00    +0.000 C 
ENDBRANCH   3   4
BRANCH   1   7
ATOM      7  C   UNL     1       5.525   4.265  18.031  0.00  0.00    +0.000 C 
BRANCH   7  12
ATOM      8  C   UNL     1       7.316   4.837  12.497  0.00  0.00    +0.000 C 
ATOM      9  C   UNL     1       6.832   4.677  13.909  0.00  0.00    +0.000 A 
ATOM     10  C   UNL     1       5.526   4.261  14.188  0.00  0.00    +0.000 A 
ATOM     11  C   UNL     1       5.094   4.103  15.513  0.00  0.00    +0.000 A 
ATOM     12  C   UNL     1       5.964   4.341  16.585  0.00  0.00    +0.000 A 
ATOM     13  C   UNL     1       7.259   4.797  16.295  0.00  0.00    +0.000 A 
ATOM     14  C   UNL     1       7.691   4.956  14.975  0.00  0.00    +0.000 A 
ENDBRANCH   7  12
ENDBRANCH   1   7
BRANCH   3  15
ATOM     15  C   UNL     1       3.458   5.408  19.930  0.00  0.00    +0.000 C 
BRANCH  15  16
ATOM     16  C   UNL     1       2.746   6.645  19.477  0.00  0.00    +0.000 A 
ATOM     17  N   UNL     1       1.967   7.490  20.129  0.00  0.00    +0.000 NA
ATOM     18  C   UNL     1       1.657   8.434  19.165  0.00  0.00    +0.000 A 
ATOM     19  N   UNL     1       2.250   8.188  17.981  0.00  0.00    +0.000 NA
ATOM     20  O   UNL     1       2.960   7.013  18.183  0.00  0.00    +0.000 OA
BRANCH  18  21
ATOM     21  C   UNL     1       0.760   9.575  19.376  0.00  0.00    +0.000 A 
ATOM     22  C   UNL     1       0.594  10.183  20.627  0.00  0.00    +0.000 A 
ATOM     23  C   UNL     1      -0.338  11.225  20.801  0.00  0.00    +0.000 A 
ATOM     24  C   UNL     1      -1.112  11.681  19.726  0.00  0.00    +0.000 A 
ATOM     25  C   UNL     1      -2.158  12.747  19.892  0.00  0.00    +0.000 C 
ATOM     26  C   UNL     1      -0.925  11.101  18.470  0.00  0.00    +0.000 A 
ATOM     27  C   UNL     1      -0.002  10.065  18.300  0.00  0.00    +0.000 A 
ENDBRANCH  18  21
ENDBRANCH  15  16
ENDBRANCH   3  15
TORSDOF 6
ENDMDL
MODEL 5
REMARK VINA RESULT:      -7.7      1.884      4.676
REMARK  Name = 
REMARK  10 active torsions:
REMARK  status: ('A' for Active; 'I' for Inactive)
REMARK    1  A    between atoms: C_1  and  C_2
REMARK    2  A    between atoms: C_5  and  C_6
REMARK    3  A    between atoms: C_6  and  C_7
REMARK    4  A    between atoms: N_9  and  C_10
REMARK    5  A    between atoms: N_9  and  C_23
REMARK    6  A    between atoms: C_10  and  C_11
REMARK    7  A    between atoms: C_13  and  C_14
REMARK    8  A    between atoms: C_17  and  C_18
REMARK    9  A    between atoms: C_23  and  C_24
REMARK   10  A    between atoms: C_23  and  C_25
REMARK                            x       y       z     vdW  Elec       q    Type
REMARK                         _______ _______ _______ _____ _____    ______ ____
ROOT
ATOM      1  C   UNL     1       4.062   3.170  18.630  0.00  0.00    +0.000 C 
ATOM      2  O   UNL     1       4.207   2.504  17.598  0.00  0.00    +0.000 OA
ATOM      3  N   UNL     1       2.789   3.546  19.080  0.00  0.00    +0.000 N 
ENDROOT
BRANCH   3   4
ATOM      4  C   UNL     1       1.663   3.281  18.148  0.00  0.00    +0.000 C 
ATOM      5  C   UNL     1       0.443   2.601  18.768  0.00  0.00    +0.000 C 
ATOM      6  C   UNL     1       1.283   4.557  17.390  0.00  0.00    +0.000 C 
ENDBRANCH   3   4
BRANCH   1   7
ATOM      7  C   UNL     1       5.311   3.633  19.368  0.00  0.00    +0.000 C 
BRANCH   7  12
ATOM      8  C   UNL     1       7.816   8.445  17.193  0.00  0.00    +0.000 C 
ATOM      9  C   UNL     1       7.192   7.209  17.773  0.00  0.00    +0.000 A 
ATOM     10  C   UNL     1       7.819   6.487  18.794  0.00  0.00    +0.000 A 
ATOM     11  C   UNL     1       7.216   5.342  19.335  0.00  0.00    +0.000 A 
ATOM     12  C   UNL     1       5.966   4.906  18.877  0.00  0.00    +0.000 A 
ATOM     13  C   UNL     1       5.364   5.613  17.825  0.00  0.00    +0.000 A 
ATOM     14  C   UNL     1       5.965   6.754  17.285  0.00  0.00    +0.000 A 
ENDBRANCH   7  12
ENDBRANCH   1   7
BRANCH   3  15
ATOM     15  C   UNL     1       2.509   4.111  20.420  0.00  0.00    +0.000 C 
BRANCH  15  16
ATOM     16  C   UNL     1       2.154   5.565  20.411  0.00  0.00    +0.000 A 
ATOM     17  N   UNL     1       1.357   6.272  21.193  0.00  0.00    +0.000 NA
ATOM     18  C   UNL     1       1.485   7.555  20.689  0.00  0.00    +0.000 A 
ATOM     19  N   UNL     1       2.349   7.629  19.658  0.00  0.00    +0.000 NA
ATOM     20  O   UNL     1       2.783   6.324  19.472  0.00  0.00    +0.000 OA
BRANCH  18  21
ATOM     21  C   UNL     1       0.749   8.722  21.186  0.00  0.00    +0.000 A 
ATOM     22  C   UNL     1       0.254   8.799  22.495  0.00  0.00    +0.000 A 
ATOM     23  C   UNL     1      -0.517   9.905  22.906  0.00  0.00    +0.000 A 
ATOM     24  C   UNL     1      -0.797  10.954  22.020  0.00  0.00    +0.000 A 
ATOM     25  C   UNL     1      -1.667  12.116  22.409  0.00  0.00    +0.000 C 
ATOM     26  C   UNL     1      -0.276  10.896  20.726  0.00  0.00    +0.000 A 
ATOM     27  C   UNL     1       0.485   9.796  20.318  0.00  0.00    +0.000 A 
ENDBRANCH  18  21
ENDBRANCH  15  16
ENDBRANCH   3  15
TORSDOF 6
ENDMDL
MODEL 6
REMARK VINA RESULT:      -7.6      3.205      6.102
REMARK  Name = 
REMARK  10 active torsions:
REMARK  status: ('A' for Active; 'I' for Inactive)
REMARK    1  A    between atoms: C_1  and  C_2
REMARK    2  A    between atoms: C_5  and  C_6
REMARK    3  A    between atoms: C_6  and  C_7
REMARK    4  A    between atoms: N_9  and  C_10
REMARK    5  A    between atoms: N_9  and  C_23
REMARK    6  A    between atoms: C_10  and  C_11
REMARK    7  A    between atoms: C_13  and  C_14
REMARK    8  A    between atoms: C_17  and  C_18
REMARK    9  A    between atoms: C_23  and  C_24
REMARK   10  A    between atoms: C_23  and  C_25
REMARK                            x       y       z     vdW  Elec       q    Type
REMARK                         _______ _______ _______ _____ _____    ______ ____
ROOT
ATOM      1  C   UNL     1       5.074   5.674  17.111  0.00  0.00    +0.000 C 
ATOM      2  O   UNL     1       4.359   5.455  16.125  0.00  0.00    +0.000 OA
ATOM      3  N   UNL     1       6.421   5.287  17.132  0.00  0.00    +0.000 N 
ENDROOT
BRANCH   3   4
ATOM      4  C   UNL     1       6.871   4.428  16.007  0.00  0.00    +0.000 C 
ATOM      5  C   UNL     1       5.907   3.312  15.606  0.00  0.00    +0.000 C 
ATOM      6  C   UNL     1       7.282   5.288  14.807  0.00  0.00    +0.000 C 
ENDBRANCH   3   4
BRANCH   1   7
ATOM      7  C   UNL     1       4.434   6.316  18.334  0.00  0.00    +0.000 C 
BRANCH   7  12
ATOM      8  C   UNL     1       1.426   2.602  21.700  0.00  0.00    +0.000 C 
ATOM      9  C   UNL     1       2.184   3.578  20.847  0.00  0.00    +0.000 A 
ATOM     10  C   UNL     1       1.801   4.921  20.761  0.00  0.00    +0.000 A 
ATOM     11  C   UNL     1       2.528   5.822  19.971  0.00  0.00    +0.000 A 
ATOM     12  C   UNL     1       3.663   5.404  19.264  0.00  0.00    +0.000 A 
ATOM     13  C   UNL     1       4.016   4.047  19.325  0.00  0.00    +0.000 A 
ATOM     14  C   UNL     1       3.291   3.147  20.111  0.00  0.00    +0.000 A 
ENDBRANCH   7  12
ENDBRANCH   1   7
BRANCH   3  15
ATOM     15  C   UNL     1       7.402   5.732  18.148  0.00  0.00    +0.000 C 
BRANCH  15  16
ATOM     16  C   UNL     1       7.741   7.188  18.077  0.00  0.00    +0.000 A 
ATOM     17  N   UNL     1       8.558   7.929  18.805  0.00  0.00    +0.000 NA
ATOM     18  C   UNL     1       8.453   9.177  18.217  0.00  0.00    +0.000 A 
ATOM     19  N   UNL     1       7.627   9.187  17.153  0.00  0.00    +0.000 NA
ATOM     20  O   UNL     1       7.156   7.886  17.064  0.00  0.00    +0.000 OA
BRANCH  18  21
ATOM     21  C   UNL     1       9.136  10.383  18.697  0.00  0.00    +0.000 A 
ATOM     22  C   UNL     1       9.563  11.402  17.834  0.00  0.00    +0.000 A 
ATOM     23  C   UNL     1      10.285  12.505  18.330  0.00  0.00    +0.000 A 
ATOM     24  C   UNL     1      10.584  12.614  19.694  0.00  0.00    +0.000 A 
ATOM     25  C   UNL     1      11.405  13.746  20.244  0.00  0.00    +0.000 C 
ATOM     26  C   UNL     1      10.130  11.618  20.561  0.00  0.00    +0.000 A 
ATOM     27  C   UNL     1       9.416  10.521  20.068  0.00  0.00    +0.000 A 
ENDBRANCH  18  21
ENDBRANCH  15  16
ENDBRANCH   3  15
TORSDOF 6
ENDMDL
MODEL 7
REMARK VINA RESULT:      -7.5      1.904      4.538
REMARK  Name = 
REMARK  10 active torsions:
REMARK  status: ('A' for Active; 'I' for Inactive)
REMARK    1  A    between atoms: C_1  and  C_2
REMARK    2  A    between atoms: C_5  and  C_6
REMARK    3  A    between atoms: C_6  and  C_7
REMARK    4  A    between atoms: N_9  and  C_10
REMARK    5  A    between atoms: N_9  and  C_23
REMARK    6  A    between atoms: C_10  and  C_11
REMARK    7  A    between atoms: C_13  and  C_14
REMARK    8  A    between atoms: C_17  and  C_18
REMARK    9  A    between atoms: C_23  and  C_24
REMARK   10  A    between atoms: C_23  and  C_25
REMARK                            x       y       z     vdW  Elec       q    Type
REMARK                         _______ _______ _______ _____ _____    ______ ____
ROOT
ATOM      1  C   UNL     1       4.327   3.778  18.091  0.00  0.00    +0.000 C 
ATOM      2  O   UNL     1       4.124   2.660  17.602  0.00  0.00    +0.000 OA
ATOM      3  N   UNL     1       3.363   4.406  18.893  0.00  0.00    +0.000 N 
ENDROOT
BRANCH   3   4
ATOM      4  C   UNL     1       2.031   3.752  18.944  0.00  0.00    +0.000 C 
ATOM      5  C   UNL     1       1.261   3.933  20.252  0.00  0.00    +0.000 C 
ATOM      6  C   UNL     1       1.190   4.149  17.726  0.00  0.00    +0.000 C 
ENDBRANCH   3   4
BRANCH   1   7
ATOM      7  C   UNL     1       5.627   4.490  17.743  0.00  0.00    +0.000 C 
BRANCH   7  12
ATOM      8  C   UNL     1       7.033   4.392  12.070  0.00  0.00    +0.000 C 
ATOM      9  C   UNL     1       6.696   4.431  13.533  0.00  0.00    +0.000 A 
ATOM     10  C   UNL     1       7.625   4.869  14.483  0.00  0.00    +0.000 A 
ATOM     11  C   UNL     1       7.290   4.913  15.843  0.00  0.00    +0.000 A 
ATOM     12  C   UNL     1       6.012   4.538  16.280  0.00  0.00    +0.000 A 
ATOM     13  C   UNL     1       5.101   4.063  15.325  0.00  0.00    +0.000 A 
ATOM     14  C   UNL     1       5.435   4.017  13.968  0.00  0.00    +0.000 A 
ENDBRANCH   7  12
ENDBRANCH   1   7
BRANCH   3  15
ATOM     15  C   UNL     1       3.618   5.609  19.718  0.00  0.00    +0.000 C 
BRANCH  15  16
ATOM     16  C   UNL     1       2.847   6.819  19.292  0.00  0.00    +0.000 A 
ATOM     17  N   UNL     1       1.987   7.579  19.948  0.00  0.00    +0.000 NA
ATOM     18  C   UNL     1       1.657   8.549  19.018  0.00  0.00    +0.000 A 
ATOM     19  N   UNL     1       2.315   8.402  17.851  0.00  0.00    +0.000 NA
ATOM     20  O   UNL     1       3.090   7.266  18.029  0.00  0.00    +0.000 OA
BRANCH  18  21
ATOM     21  C   UNL     1       0.679   9.619  19.242  0.00  0.00    +0.000 A 
ATOM     22  C   UNL     1      -0.126  10.131  18.216  0.00  0.00    +0.000 A 
ATOM     23  C   UNL     1      -0.995  11.213  18.458  0.00  0.00    +0.000 A 
ATOM     24  C   UNL     1      -1.081  11.793  19.731  0.00  0.00    +0.000 A 
ATOM     25  C   UNL     1      -1.952  12.987  20.006  0.00  0.00    +0.000 C 
ATOM     26  C   UNL     1      -0.306  11.262  20.764  0.00  0.00    +0.000 A 
ATOM     27  C   UNL     1       0.559  10.192  20.521  0.00  0.00    +0.000 A 
ENDBRANCH  18  21
ENDBRANCH  15  16
ENDBRANCH   3  15
TORSDOF 6
ENDMDL
MODEL 8
REMARK VINA RESULT:      -7.5      2.073      4.458
REMARK  Name = 
REMARK  10 active torsions:
REMARK  status: ('A' for Active; 'I' for Inactive)
REMARK    1  A    between atoms: C_1  and  C_2
REMARK    2  A    between atoms: C_5  and  C_6
REMARK    3  A    between atoms: C_6  and  C_7
REMARK    4  A    between atoms: N_9  and  C_10
REMARK    5  A    between atoms: N_9  and  C_23
REMARK    6  A    between atoms: C_10  and  C_11
REMARK    7  A    between atoms: C_13  and  C_14
REMARK    8  A    between atoms: C_17  and  C_18
REMARK    9  A    between atoms: C_23  and  C_24
REMARK   10  A    between atoms: C_23  and  C_25
REMARK                            x       y       z     vdW  Elec       q    Type
REMARK                         _______ _______ _______ _____ _____    ______ ____
ROOT
ATOM      1  C   UNL     1       4.912   4.362  18.652  0.00  0.00    +0.000 C 
ATOM      2  O   UNL     1       5.743   3.796  19.373  0.00  0.00    +0.000 OA
ATOM      3  N   UNL     1       3.571   3.951  18.626  0.00  0.00    +0.000 N 
ENDROOT
BRANCH   3   4
ATOM      4  C   UNL     1       3.263   2.687  19.342  0.00  0.00    +0.000 C 
ATOM      5  C   UNL     1       1.903   2.641  20.038  0.00  0.00    +0.000 C 
ATOM      6  C   UNL     1       3.473   1.482  18.418  0.00  0.00    +0.000 C 
ENDBRANCH   3   4
BRANCH   1   7
ATOM      7  C   UNL     1       5.396   5.478  17.737  0.00  0.00    +0.000 C 
BRANCH   7  12
ATOM      8  C   UNL     1       6.788   3.709  12.343  0.00  0.00    +0.000 C 
ATOM      9  C   UNL     1       6.451   4.184  13.727  0.00  0.00    +0.000 A 
ATOM     10  C   UNL     1       7.257   5.111  14.395  0.00  0.00    +0.000 A 
ATOM     11  C   UNL     1       6.921   5.554  15.682  0.00  0.00    +0.000 A 
ATOM     12  C   UNL     1       5.761   5.094  16.319  0.00  0.00    +0.000 A 
ATOM     13  C   UNL     1       4.980   4.135  15.657  0.00  0.00    +0.000 A 
ATOM     14  C   UNL     1       5.316   3.691  14.374  0.00  0.00    +0.000 A 
ENDBRANCH   7  12
ENDBRANCH   1   7
BRANCH   3  15
ATOM     15  C   UNL     1       2.472   4.722  18.001  0.00  0.00    +0.000 C 
BRANCH  15  16
ATOM     16  C   UNL     1       2.236   6.064  18.621  0.00  0.00    +0.000 A 
ATOM     17  N   UNL     1       2.021   7.249  18.077  0.00  0.00    +0.000 NA
ATOM     18  C   UNL     1       1.842   8.069  19.178  0.00  0.00    +0.000 A 
ATOM     19  N   UNL     1       1.917   7.401  20.346  0.00  0.00    +0.000 NA
ATOM     20  O   UNL     1       2.179   6.089  19.981  0.00  0.00    +0.000 OA
BRANCH  18  21
ATOM     21  C   UNL     1       1.622   9.517  19.111  0.00  0.00    +0.000 A 
ATOM     22  C   UNL     1       2.166  10.315  18.096  0.00  0.00    +0.000 A 
ATOM     23  C   UNL     1       1.996  11.714  18.115  0.00  0.00    +0.000 A 
ATOM     24  C   UNL     1       1.272  12.335  19.141  0.00  0.00    +0.000 A 
ATOM     25  C   UNL     1       1.126  13.829  19.223  0.00  0.00    +0.000 C 
ATOM     26  C   UNL     1       0.700  11.539  20.135  0.00  0.00    +0.000 A 
ATOM     27  C   UNL     1       0.873  10.152  20.118  0.00  0.00    +0.000 A 
ENDBRANCH  18  21
ENDBRANCH  15  16
ENDBRANCH   3  15
TORSDOF 6
ENDMDL
MODEL 9
REMARK VINA RESULT:      -7.5      2.294      7.525
REMARK  Name = 
REMARK  10 active torsions:
REMARK  status: ('A' for Active; 'I' for Inactive)
REMARK    1  A    between atoms: C_1  and  C_2
REMARK    2  A    between atoms: C_5  and  C_6
REMARK    3  A    between atoms: C_6  and  C_7
REMARK    4  A    between atoms: N_9  and  C_10
REMARK    5  A    between atoms: N_9  and  C_23
REMARK    6  A    between atoms: C_10  and  C_11
REMARK    7  A    between atoms: C_13  and  C_14
REMARK    8  A    between atoms: C_17  and  C_18
REMARK    9  A    between atoms: C_23  and  C_24
REMARK   10  A    between atoms: C_23  and  C_25
REMARK                            x       y       z     vdW  Elec       q    Type
REMARK                         _______ _______ _______ _____ _____    ______ ____
ROOT
ATOM      1  C   UNL     1       2.374   5.173  19.067  0.00  0.00    +0.000 C 
ATOM      2  O   UNL     1       1.218   5.170  18.626  0.00  0.00    +0.000 OA
ATOM      3  N   UNL     1       2.994   3.989  19.490  0.00  0.00    +0.000 N 
ENDROOT
BRANCH   3   4
ATOM      4  C   UNL     1       2.123   2.789  19.572  0.00  0.00    +0.000 C 
ATOM      5  C   UNL     1       2.678   1.528  18.912  0.00  0.00    +0.000 C 
ATOM      6  C   UNL     1       1.693   2.536  21.021  0.00  0.00    +0.000 C 
ENDBRANCH   3   4
BRANCH   1   7
ATOM      7  C   UNL     1       3.088   6.511  19.204  0.00  0.00    +0.000 C 
BRANCH   7  12
ATOM      8  C   UNL     1      -0.453  11.162  19.162  0.00  0.00    +0.000 C 
ATOM      9  C   UNL     1       0.465   9.974  19.146  0.00  0.00    +0.000 A 
ATOM     10  C   UNL     1       1.090   9.552  17.968  0.00  0.00    +0.000 A 
ATOM     11  C   UNL     1       1.955   8.449  17.972  0.00  0.00    +0.000 A 
ATOM     12  C   UNL     1       2.227   7.756  19.159  0.00  0.00    +0.000 A 
ATOM     13  C   UNL     1       1.565   8.161  20.328  0.00  0.00    +0.000 A 
ATOM     14  C   UNL     1       0.700   9.260  20.323  0.00  0.00    +0.000 A 
ENDBRANCH   7  12
ENDBRANCH   1   7
BRANCH   3  15
ATOM     15  C   UNL     1       4.441   3.861  19.783  0.00  0.00    +0.000 C 
BRANCH  15  16
ATOM     16  C   UNL     1       5.329   4.117  18.606  0.00  0.00    +0.000 A 
ATOM     17  N   UNL     1       5.116   3.980  17.308  0.00  0.00    +0.000 NA
ATOM     18  C   UNL     1       6.308   4.411  16.751  0.00  0.00    +0.000 A 
ATOM     19  N   UNL     1       7.200   4.820  17.674  0.00  0.00    +0.000 NA
ATOM     20  O   UNL     1       6.561   4.623  18.889  0.00  0.00    +0.000 OA
BRANCH  18  21
ATOM     21  C   UNL     1       6.606   4.405  15.315  0.00  0.00    +0.000 A 
ATOM     22  C   UNL     1       7.614   5.198  14.751  0.00  0.00    +0.000 A 
ATOM     23  C   UNL     1       7.812   5.221  13.356  0.00  0.00    +0.000 A 
ATOM     24  C   UNL     1       7.013   4.446  12.505  0.00  0.00    +0.000 A 
ATOM     25  C   UNL     1       7.159   4.496  11.010  0.00  0.00    +0.000 C 
ATOM     26  C   UNL     1       6.031   3.629  13.067  0.00  0.00    +0.000 A 
ATOM     27  C   UNL     1       5.832   3.609  14.451  0.00  0.00    +0.000 A 
ENDBRANCH  18  21
ENDBRANCH  15  16
ENDBRANCH   3  15
TORSDOF 6
ENDMDL
