MODEL 1
REMARK VINA RESULT:      -7.2      0.000      0.000
REMARK  Name = 
REMARK  9 active torsions:
REMARK  status: ('A' for Active; 'I' for Inactive)
REMARK    1  A    between atoms: C_1  and  N_2
REMARK    2  A    between atoms: C_3  and  C_5
REMARK    3  A    between atoms: C_5  and  C_6
REMARK    4  A    between atoms: C_6  and  C_7
REMARK    5  A    between atoms: C_6  and  N_8
REMARK    6  A    between atoms: N_8  and  C_9
REMARK    7  A    between atoms: C_10  and  C_12
REMARK    8  A    between atoms: C_14  and  C_15
REMARK    9  A    between atoms: C_16  and  C_17
REMARK                            x       y       z     vdW  Elec       q    Type
REMARK                         _______ _______ _______ _____ _____    ______ ____
ROOT
ATOM      1  N   UNL     1       3.807   5.693  17.921  0.00  0.00    +0.000 N 
ATOM      2  C   UNL     1       3.825   7.058  17.399  0.00  0.00    +0.000 C 
ATOM      3  C   UNL     1       4.633   4.639  17.455  0.00  0.00    +0.000 C 
ATOM      4  O   UNL     1       4.560   3.520  17.972  0.00  0.00    +0.000 OA
ENDROOT
BRANCH   3   5
ATOM      5  C   UNL     1       5.542   4.850  16.259  0.00  0.00    +0.000 A 
ATOM      6  C   UNL     1       5.186   4.494  15.019  0.00  0.00    +0.000 A 
ATOM      7  C   UNL     1       6.091   4.390  13.908  0.00  0.00    +0.000 A 
ATOM      8  C   UNL     1       5.660   3.482  12.778  0.00  0.00    +0.000 C 
ATOM      9  C   UNL     1       7.257   5.042  13.986  0.00  0.00    +0.000 A 
ATOM     10  C   UNL     1       8.273   5.070  12.891  0.00  0.00    +0.000 C 
ATOM     11  N   UNL     1       7.579   5.676  15.170  0.00  0.00    +0.000 N 
ATOM     12  C   UNL     1       6.844   5.572  16.344  0.00  0.00    +0.000 A 
ATOM     13  O   UNL     1       7.292   6.100  17.380  0.00  0.00    +0.000 OA
ATOM     14  H   UNL     1       8.439   6.199  15.244  0.00  0.00    +0.000 HD
ENDBRANCH   3   5
BRANCH   1  15
ATOM     15  C   UNL     1       2.853   5.386  19.011  0.00  0.00    +0.000 C 
ATOM     16  C   UNL     1       2.426   6.652  19.771  0.00  0.00    +0.000 C 
BRANCH  15  17
ATOM     17  C   UNL     1       1.622   4.581  18.552  0.00  0.00    +0.000 C 
BRANCH  17  20
ATOM     18  C   UNL     1       1.419   2.485  21.718  0.00  0.00    +0.000 C 
ATOM     19  N   UNL     1       1.706   3.517  20.754  0.00  0.00    +0.000 N 
ATOM     20  C   UNL     1       1.299   3.400  19.448  0.00  0.00    +0.000 C 
ATOM     21  O   UNL     1       0.664   2.434  19.028  0.00  0.00    +0.000 OA
ATOM     22  H   UNL     1       2.299   4.287  21.038  0.00  0.00    +0.000 HD
ENDBRANCH  17  20
ENDBRANCH  15  17
ENDBRANCH   1  15
TORSDOF 4
ENDMDL
MODEL 2
REMARK VINA RESULT:      -7.0      1.826      6.793
REMARK  Name = 
REMARK  9 active torsions:
REMARK  status: ('A' for Active; 'I' for Inactive)
REMARK    1  A    between atoms: C_1  and  N_2
REMARK    2  A    between atoms: C_3  and  C_5
REMARK    3  A    between atoms: C_5  and  C_6
REMARK    4  A    between atoms: C_6  and  C_7
REMARK    5  A    between atoms: C_6  and  N_8
REMARK    6  A    between atoms: N_8  and  C_9
REMARK    7  A    between atoms: C_10  and  C_12
REMARK    8  A    between atoms: C_14  and  C_15
REMARK    9  A    between atoms: C_16  and  C_17
REMARK                            x       y       z     vdW  Elec       q    Type
REMARK                         _______ _______ _______ _____ _____    ______ ____
ROOT
ATOM      1  N   UNL     1       5.785   5.438  17.765  0.00  0.00    +0.000 N 
ATOM      2  C   UNL     1       6.241   5.502  19.152  0.00  0.00    +0.000 C 
ATOM      3  C   UNL     1       4.520   4.947  17.352  0.00  0.00    +0.000 C 
ATOM      4  O   UNL     1       4.216   4.949  16.155  0.00  0.00    +0.000 OA
ENDROOT
BRANCH   3   5
ATOM      5  C   UNL     1       3.572   4.329  18.361  0.00  0.00    +0.000 A 
ATOM      6  C   UNL     1       2.649   5.048  19.010  0.00  0.00    +0.000 A 
ATOM      7  C   UNL     1       1.934   4.601  20.173  0.00  0.00    +0.000 A 
ATOM      8  C   UNL     1       1.372   5.682  21.069  0.00  0.00    +0.000 C 
ATOM      9  C   UNL     1       1.875   3.284  20.405  0.00  0.00    +0.000 A 
ATOM     10  C   UNL     1       1.126   2.669  21.541  0.00  0.00    +0.000 C 
ATOM     11  N   UNL     1       2.602   2.440  19.589  0.00  0.00    +0.000 N 
ATOM     12  C   UNL     1       3.509   2.862  18.626  0.00  0.00    +0.000 A 
ATOM     13  O   UNL     1       4.188   2.007  18.026  0.00  0.00    +0.000 OA
ATOM     14  H   UNL     1       2.551   1.440  19.726  0.00  0.00    +0.000 HD
ENDBRANCH   3   5
BRANCH   1  15
ATOM     15  C   UNL     1       6.713   5.913  16.713  0.00  0.00    +0.000 C 
ATOM     16  C   UNL     1       7.659   7.005  17.237  0.00  0.00    +0.000 C 
BRANCH  15  17
ATOM     17  C   UNL     1       7.507   4.785  16.027  0.00  0.00    +0.000 C 
BRANCH  17  20
ATOM     18  C   UNL     1       6.005   3.542  12.763  0.00  0.00    +0.000 C 
ATOM     19  N   UNL     1       6.368   3.710  14.148  0.00  0.00    +0.000 N 
ATOM     20  C   UNL     1       7.254   4.684  14.535  0.00  0.00    +0.000 C 
ATOM     21  O   UNL     1       7.775   5.469  13.744  0.00  0.00    +0.000 OA
ATOM     22  H   UNL     1       6.027   3.032  14.818  0.00  0.00    +0.000 HD
ENDBRANCH  17  20
ENDBRANCH  15  17
ENDBRANCH   1  15
TORSDOF 4
ENDMDL
MODEL 3
REMARK VINA RESULT:      -7.0      2.756      6.524
REMARK  Name = 
REMARK  9 active torsions:
REMARK  status: ('A' for Active; 'I' for Inactive)
REMARK    1  A    between atoms: C_1  and  N_2
REMARK    2  A    between atoms: C_3  and  C_5
REMARK    3  A    between atoms: C_5  and  C_6
REMARK    4  A    between atoms: C_6  and  C_7
REMARK    5  A    between atoms: C_6  and  N_8
REMARK    6  A    between atoms: N_8  and  C_9
REMARK    7  A    between atoms: C_10  and  C_12
REMARK    8  A    between atoms: C_14  and  C_15
REMARK    9  A    between atoms: C_16  and  C_17
REMARK                            x       y       z     vdW  Elec       q    Type
REMARK                         _______ _______ _______ _____ _____    ______ ____
ROOT
ATOM      1  N   UNL     1       2.750   4.705  18.416  0.00  0.00    +0.000 N 
ATOM      2  C   UNL     1       1.433   4.700  17.782  0.00  0.00    +0.000 C 
ATOM      3  C   UNL     1       3.287   5.789  19.156  0.00  0.00    +0.000 C 
ATOM      4  O   UNL     1       4.405   5.694  19.672  0.00  0.00    +0.000 OA
ENDROOT
BRANCH   3   5
ATOM      5  C   UNL     1       2.537   7.105  19.239  0.00  0.00    +0.000 A 
ATOM      6  C   UNL     1       1.932   7.515  20.360  0.00  0.00    +0.000 A 
ATOM      7  C   UNL     1       0.972   8.581  20.427  0.00  0.00    +0.000 A 
ATOM      8  C   UNL     1       0.016   8.547  21.599  0.00  0.00    +0.000 C 
ATOM      9  C   UNL     1       0.954   9.472  19.429  0.00  0.00    +0.000 A 
ATOM     10  C   UNL     1       0.049  10.661  19.387  0.00  0.00    +0.000 C 
ATOM     11  N   UNL     1       1.769   9.253  18.337  0.00  0.00    +0.000 N 
ATOM     12  C   UNL     1       2.510   8.098  18.126  0.00  0.00    +0.000 A 
ATOM     13  O   UNL     1       3.123   7.967  17.049  0.00  0.00    +0.000 OA
ATOM     14  H   UNL     1       1.795   9.926  17.584  0.00  0.00    +0.000 HD
ENDBRANCH   3   5
BRANCH   1  15
ATOM     15  C   UNL     1       3.589   3.493  18.270  0.00  0.00    +0.000 C 
ATOM     16  C   UNL     1       2.803   2.212  18.594  0.00  0.00    +0.000 C 
BRANCH  15  17
ATOM     17  C   UNL     1       4.282   3.378  16.898  0.00  0.00    +0.000 C 
BRANCH  17  20
ATOM     18  C   UNL     1       7.664   4.756  17.954  0.00  0.00    +0.000 C 
ATOM     19  N   UNL     1       6.380   4.103  17.927  0.00  0.00    +0.000 N 
ATOM     20  C   UNL     1       5.585   4.150  16.809  0.00  0.00    +0.000 C 
ATOM     21  O   UNL     1       5.916   4.727  15.774  0.00  0.00    +0.000 OA
ATOM     22  H   UNL     1       6.034   3.690  18.784  0.00  0.00    +0.000 HD
ENDBRANCH  17  20
ENDBRANCH  15  17
ENDBRANCH   1  15
TORSDOF 4
ENDMDL
MODEL 4
REMARK VINA RESULT:      -6.9      2.618      6.227
REMARK  Name = 
REMARK  9 active torsions:
REMARK  status: ('A' for Active; 'I' for Inactive)
REMARK    1  A    between atoms: C_1  and  N_2
REMARK    2  A    between atoms: C_3  and  C_5
REMARK    3  A    between atoms: C_5  and  C_6
REMARK    4  A    between atoms: C_6  and  C_7
REMARK    5  A    between atoms: C_6  and  N_8
REMARK    6  A    between atoms: N_8  and  C_9
REMARK    7  A    between atoms: C_10  and  C_12
REMARK    8  A    between atoms: C_14  and  C_15
REMARK    9  A    between atoms: C_16  and  C_17
REMARK                            x       y       z     vdW  Elec       q    Type
REMARK                         _______ _______ _______ _____ _____    ______ ____
ROOT
ATOM      1  N   UNL     1       2.321   4.546  20.117  0.00  0.00    +0.000 N 
ATOM      2  C   UNL     1       0.872   4.566  20.306  0.00  0.00    +0.000 C 
ATOM      3  C   UNL     1       3.115   5.686  19.832  0.00  0.00    +0.000 C 
ATOM      4  O   UNL     1       4.338   5.575  19.707  0.00  0.00    +0.000 OA
ENDROOT
BRANCH   3   5
ATOM      5  C   UNL     1       2.460   7.031  19.583  0.00  0.00    +0.000 A 
ATOM      6  C   UNL     1       1.823   7.707  20.547  0.00  0.00    +0.000 A 
ATOM      7  C   UNL     1       0.941   8.818  20.320  0.00  0.00    +0.000 A 
ATOM      8  C   UNL     1      -0.080   9.092  21.402  0.00  0.00    +0.000 C 
ATOM      9  C   UNL     1       1.046   9.475  19.159  0.00  0.00    +0.000 A 
ATOM     10  C   UNL     1       0.235  10.678  18.804  0.00  0.00    +0.000 C 
ATOM     11  N   UNL     1       1.905   8.979  18.198  0.00  0.00    +0.000 N 
ATOM     12  C   UNL     1       2.570   7.763  18.288  0.00  0.00    +0.000 A 
ATOM     13  O   UNL     1       3.233   7.369  17.310  0.00  0.00    +0.000 OA
ATOM     14  H   UNL     1       2.023   9.472  17.325  0.00  0.00    +0.000 HD
ENDBRANCH   3   5
BRANCH   1  15
ATOM     15  C   UNL     1       3.012   3.241  20.226  0.00  0.00    +0.000 C 
ATOM     16  C   UNL     1       2.643   2.505  21.524  0.00  0.00    +0.000 C 
BRANCH  15  17
ATOM     17  C   UNL     1       2.810   2.326  19.002  0.00  0.00    +0.000 C 
BRANCH  17  20
ATOM     18  C   UNL     1       5.046   3.855  16.335  0.00  0.00    +0.000 C 
ATOM     19  N   UNL     1       4.535   3.280  17.553  0.00  0.00    +0.000 N 
ATOM     20  C   UNL     1       3.203   2.974  17.688  0.00  0.00    +0.000 C 
ATOM     21  O   UNL     1       2.380   3.152  16.792  0.00  0.00    +0.000 OA
ATOM     22  H   UNL     1       5.162   3.196  18.343  0.00  0.00    +0.000 HD
ENDBRANCH  17  20
ENDBRANCH  15  17
ENDBRANCH   1  15
TORSDOF 4
ENDMDL
MODEL 5
REMARK VINA RESULT:      -6.8      2.336      7.013
REMARK  Name = 
REMARK  9 active torsions:
REMARK  status: ('A' for Active; 'I' for Inactive)
REMARK    1  A    between atoms: C_1  and  N_2
REMARK    2  A    between atoms: C_3  and  C_5
REMARK    3  A    between atoms: C_5  and  C_6
REMARK    4  A    between atoms: C_6  and  C_7
REMARK    5  A    between atoms: C_6  and  N_8
REMARK    6  A    between atoms: N_8  and  C_9
REMARK    7  A    between atoms: C_10  and  C_12
REMARK    8  A    between atoms: C_14  and  C_15
REMARK    9  A    between atoms: C_16  and  C_17
REMARK                            x       y       z     vdW  Elec       q    Type
REMARK                         _______ _______ _______ _____ _____    ______ ____
ROOT
ATOM      1  N   UNL     1       5.741   4.800  17.439  0.00  0.00    +0.000 N 
ATOM      2  C   UNL     1       4.640   4.469  16.536  0.00  0.00    +0.000 C 
ATOM      3  C   UNL     1       5.736   4.566  18.838  0.00  0.00    +0.000 C 
ATOM      4  O   UNL     1       6.723   4.863  19.519  0.00  0.00    +0.000 OA
ENDROOT
BRANCH   3   5
ATOM      5  C   UNL     1       4.489   4.040  19.522  0.00  0.00    +0.000 A 
ATOM      6  C   UNL     1       3.363   4.758  19.607  0.00  0.00    +0.000 A 
ATOM      7  C   UNL     1       2.264   4.453  20.480  0.00  0.00    +0.000 A 
ATOM      8  C   UNL     1       1.362   5.610  20.848  0.00  0.00    +0.000 C 
ATOM      9  C   UNL     1       2.162   3.203  20.947  0.00  0.00    +0.000 A 
ATOM     10  C   UNL     1       1.047   2.725  21.820  0.00  0.00    +0.000 C 
ATOM     11  N   UNL     1       3.177   2.310  20.664  0.00  0.00    +0.000 N 
ATOM     12  C   UNL     1       4.374   2.649  20.047  0.00  0.00    +0.000 A 
ATOM     13  O   UNL     1       5.261   1.780  19.944  0.00  0.00    +0.000 OA
ATOM     14  H   UNL     1       3.109   1.353  20.980  0.00  0.00    +0.000 HD
ENDBRANCH   3   5
BRANCH   1  15
ATOM     15  C   UNL     1       6.946   5.431  16.853  0.00  0.00    +0.000 C 
ATOM     16  C   UNL     1       7.279   4.851  15.469  0.00  0.00    +0.000 C 
BRANCH  15  17
ATOM     17  C   UNL     1       6.879   6.969  16.801  0.00  0.00    +0.000 C 
BRANCH  17  20
ATOM     18  C   UNL     1       8.741   9.786  18.548  0.00  0.00    +0.000 C 
ATOM     19  N   UNL     1       7.930   9.012  17.643  0.00  0.00    +0.000 N 
ATOM     20  C   UNL     1       7.804   7.652  17.791  0.00  0.00    +0.000 C 
ATOM     21  O   UNL     1       8.351   7.022  18.694  0.00  0.00    +0.000 OA
ATOM     22  H   UNL     1       7.532   9.479  16.838  0.00  0.00    +0.000 HD
ENDBRANCH  17  20
ENDBRANCH  15  17
ENDBRANCH   1  15
TORSDOF 4
ENDMDL
MODEL 6
REMARK VINA RESULT:      -6.7      1.675      1.742
REMARK  Name = 
REMARK  9 active torsions:
REMARK  status: ('A' for Active; 'I' for Inactive)
REMARK    1  A    between atoms: C_1  and  N_2
REMARK    2  A    between atoms: C_3  and  C_5
REMARK    3  A    between atoms: C_5  and  C_6
REMARK    4  A    between atoms: C_6  and  C_7
REMARK    5  A    between atoms: C_6  and  N_8
REMARK    6  A    between atoms: N_8  and  C_9
REMARK    7  A    between atoms: C_10  and  C_12
REMARK    8  A    between atoms: C_14  and  C_15
REMARK    9  A    between atoms: C_16  and  C_17
REMARK                            x       y       z     vdW  Elec       q    Type
REMARK                         _______ _______ _______ _____ _____    ______ ____
ROOT
ATOM      1  N   UNL     1       3.790   5.368  18.615  0.00  0.00    +0.000 N 
ATOM      2  C   UNL     1       3.008   6.122  17.638  0.00  0.00    +0.000 C 
ATOM      3  C   UNL     1       5.117   4.912  18.409  0.00  0.00    +0.000 C 
ATOM      4  O   UNL     1       5.706   4.295  19.303  0.00  0.00    +0.000 OA
ENDROOT
BRANCH   3   5
ATOM      5  C   UNL     1       5.787   5.091  17.061  0.00  0.00    +0.000 A 
ATOM      6  C   UNL     1       5.213   4.700  15.918  0.00  0.00    +0.000 A 
ATOM      7  C   UNL     1       5.898   4.567  14.662  0.00  0.00    +0.000 A 
ATOM      8  C   UNL     1       5.273   3.626  13.656  0.00  0.00    +0.000 C 
ATOM      9  C   UNL     1       7.053   5.224  14.506  0.00  0.00    +0.000 A 
ATOM     10  C   UNL     1       7.850   5.224  13.242  0.00  0.00    +0.000 C 
ATOM     11  N   UNL     1       7.582   5.893  15.592  0.00  0.00    +0.000 N 
ATOM     12  C   UNL     1       7.077   5.820  16.884  0.00  0.00    +0.000 A 
ATOM     13  O   UNL     1       7.704   6.378  17.804  0.00  0.00    +0.000 OA
ATOM     14  H   UNL     1       8.437   6.420  15.492  0.00  0.00    +0.000 HD
ENDBRANCH   3   5
BRANCH   1  15
ATOM     15  C   UNL     1       3.149   5.050  19.912  0.00  0.00    +0.000 C 
ATOM     16  C   UNL     1       2.169   6.150  20.349  0.00  0.00    +0.000 C 
BRANCH  15  17
ATOM     17  C   UNL     1       2.471   3.667  19.948  0.00  0.00    +0.000 C 
BRANCH  17  20
ATOM     18  C   UNL     1       5.096   1.196  21.157  0.00  0.00    +0.000 C 
ATOM     19  N   UNL     1       4.318   2.117  20.368  0.00  0.00    +0.000 N 
ATOM     20  C   UNL     1       3.164   2.674  20.863  0.00  0.00    +0.000 C 
ATOM     21  O   UNL     1       2.737   2.440  21.992  0.00  0.00    +0.000 OA
ATOM     22  H   UNL     1       4.588   2.271  19.405  0.00  0.00    +0.000 HD
ENDBRANCH  17  20
ENDBRANCH  15  17
ENDBRANCH   1  15
TORSDOF 4
ENDMDL
MODEL 7
REMARK VINA RESULT:      -6.6      1.280      1.416
REMARK  Name = 
REMARK  9 active torsions:
REMARK  status: ('A' for Active; 'I' for Inactive)
REMARK    1  A    between atoms: C_1  and  N_2
REMARK    2  A    between atoms: C_3  and  C_5
REMARK    3  A    between atoms: C_5  and  C_6
REMARK    4  A    between atoms: C_6  and  C_7
REMARK    5  A    between atoms: C_6  and  N_8
REMARK    6  A    between atoms: N_8  and  C_9
REMARK    7  A    between atoms: C_10  and  C_12
REMARK    8  A    between atoms: C_14  and  C_15
REMARK    9  A    between atoms: C_16  and  C_17
REMARK                            x       y       z     vdW  Elec       q    Type
REMARK                         _______ _______ _______ _____ _____    ______ ____
ROOT
ATOM      1  N   UNL     1       3.583   5.881  18.567  0.00  0.00    +0.000 N 
ATOM      2  C   UNL     1       3.036   6.839  17.608  0.00  0.00    +0.000 C 
ATOM      3  C   UNL     1       4.801   5.175  18.398  0.00  0.00    +0.000 C 
ATOM      4  O   UNL     1       5.193   4.397  19.273  0.00  0.00    +0.000 OA
ENDROOT
BRANCH   3   5
ATOM      5  C   UNL     1       5.582   5.295  17.103  0.00  0.00    +0.000 A 
ATOM      6  C   UNL     1       5.087   4.887  15.928  0.00  0.00    +0.000 A 
ATOM      7  C   UNL     1       5.864   4.697  14.736  0.00  0.00    +0.000 A 
ATOM      8  C   UNL     1       5.291   3.746  13.708  0.00  0.00    +0.000 C 
ATOM      9  C   UNL     1       7.048   5.315  14.654  0.00  0.00    +0.000 A 
ATOM     10  C   UNL     1       7.943   5.253  13.459  0.00  0.00    +0.000 C 
ATOM     11  N   UNL     1       7.511   5.998  15.761  0.00  0.00    +0.000 N 
ATOM     12  C   UNL     1       6.904   5.978  17.010  0.00  0.00    +0.000 A 
ATOM     13  O   UNL     1       7.474   6.544  17.962  0.00  0.00    +0.000 OA
ATOM     14  H   UNL     1       8.389   6.497  15.715  0.00  0.00    +0.000 HD
ENDBRANCH   3   5
BRANCH   1  15
ATOM     15  C   UNL     1       2.808   5.624  19.802  0.00  0.00    +0.000 C 
ATOM     16  C   UNL     1       2.226   6.918  20.392  0.00  0.00    +0.000 C 
BRANCH  15  17
ATOM     17  C   UNL     1       1.708   4.557  19.635  0.00  0.00    +0.000 C 
BRANCH  17  20
ATOM     18  C   UNL     1       3.362   1.354  18.424  0.00  0.00    +0.000 C 
ATOM     19  N   UNL     1       2.957   2.498  19.202  0.00  0.00    +0.000 N 
ATOM     20  C   UNL     1       2.091   3.432  18.691  0.00  0.00    +0.000 C 
ATOM     21  O   UNL     1       1.603   3.349  17.565  0.00  0.00    +0.000 OA
ATOM     22  H   UNL     1       3.400   2.648  20.100  0.00  0.00    +0.000 HD
ENDBRANCH  17  20
ENDBRANCH  15  17
ENDBRANCH   1  15
TORSDOF 4
ENDMDL
MODEL 8
REMARK VINA RESULT:      -6.5      2.238      6.754
REMARK  Name = 
REMARK  9 active torsions:
REMARK  status: ('A' for Active; 'I' for Inactive)
REMARK    1  A    between atoms: C_1  and  N_2
REMARK    2  A    between atoms: C_3  and  C_5
REMARK    3  A    between atoms: C_5  and  C_6
REMARK    4  A    between atoms: C_6  and  C_7
REMARK    5  A    between atoms: C_6  and  N_8
REMARK    6  A    between atoms: N_8  and  C_9
REMARK    7  A    between atoms: C_10  and  C_12
REMARK    8  A    between atoms: C_14  and  C_15
REMARK    9  A    between atoms: C_16  and  C_17
REMARK                            x       y       z     vdW  Elec       q    Type
REMARK                         _______ _______ _______ _____ _____    ______ ____
ROOT
ATOM      1  N   UNL     1       5.809   6.064  17.189  0.00  0.00    +0.000 N 
ATOM      2  C   UNL     1       6.203   7.446  17.455  0.00  0.00    +0.000 C 
ATOM      3  C   UNL     1       4.547   5.507  17.519  0.00  0.00    +0.000 C 
ATOM      4  O   UNL     1       4.296   4.331  17.238  0.00  0.00    +0.000 OA
ENDROOT
BRANCH   3   5
ATOM      5  C   UNL     1       3.533   6.318  18.303  0.00  0.00    +0.000 A 
ATOM      6  C   UNL     1       2.895   7.369  17.775  0.00  0.00    +0.000 A 
ATOM      7  C   UNL     1       2.162   8.345  18.533  0.00  0.00    +0.000 A 
ATOM      8  C   UNL     1       1.988   9.701  17.885  0.00  0.00    +0.000 C 
ATOM      9  C   UNL     1       1.752   8.006  19.760  0.00  0.00    +0.000 A 
ATOM     10  C   UNL     1       0.938   8.894  20.644  0.00  0.00    +0.000 C 
ATOM     11  N   UNL     1       2.156   6.791  20.277  0.00  0.00    +0.000 N 
ATOM     12  C   UNL     1       3.078   5.946  19.674  0.00  0.00    +0.000 A 
ATOM     13  O   UNL     1       3.449   4.927  20.287  0.00  0.00    +0.000 OA
ATOM     14  H   UNL     1       1.836   6.500  21.190  0.00  0.00    +0.000 HD
ENDBRANCH   3   5
BRANCH   1  15
ATOM     15  C   UNL     1       6.799   5.179  16.534  0.00  0.00    +0.000 C 
ATOM     16  C   UNL     1       7.690   4.461  17.559  0.00  0.00    +0.000 C 
BRANCH  15  17
ATOM     17  C   UNL     1       6.176   4.171  15.549  0.00  0.00    +0.000 C 
BRANCH  17  20
ATOM     18  C   UNL     1       6.629   3.410  11.852  0.00  0.00    +0.000 C 
ATOM     19  N   UNL     1       6.266   3.353  13.245  0.00  0.00    +0.000 N 
ATOM     20  C   UNL     1       6.672   4.327  14.124  0.00  0.00    +0.000 C 
ATOM     21  O   UNL     1       7.345   5.298  13.784  0.00  0.00    +0.000 OA
ATOM     22  H   UNL     1       5.785   2.528  13.581  0.00  0.00    +0.000 HD
ENDBRANCH  17  20
ENDBRANCH  15  17
ENDBRANCH   1  15
TORSDOF 4
ENDMDL
MODEL 9
REMARK VINA RESULT:      -6.5      1.954      6.310
REMARK  Name = 
REMARK  9 active torsions:
REMARK  status: ('A' for Active; 'I' for Inactive)
REMARK    1  A    between atoms: C_1  and  N_2
REMARK    2  A    between atoms: C_3  and  C_5
REMARK    3  A    between atoms: C_5  and  C_6
REMARK    4  A    between atoms: C_6  and  C_7
REMARK    5  A    between atoms: C_6  and  N_8
REMARK    6  A    between atoms: N_8  and  C_9
REMARK    7  A    between atoms: C_10  and  C_12
REMARK    8  A    between atoms: C_14  and  C_15
REMARK    9  A    between atoms: C_16  and  C_17
REMARK                            x       y       z     vdW  Elec       q    Type
REMARK                         _______ _______ _______ _____ _____    ______ ____
ROOT
ATOM      1  N   UNL     1       5.863   5.906  18.257  0.00  0.00    +0.000 N 
ATOM      2  C   UNL     1       6.234   4.806  19.144  0.00  0.00    +0.000 C 
ATOM      3  C   UNL     1       4.567   6.106  17.716  0.00  0.00    +0.000 C 
ATOM      4  O   UNL     1       4.342   7.077  16.988  0.00  0.00    +0.000 OA
ENDROOT
BRANCH   3   5
ATOM      5  C   UNL     1       3.475   5.080  17.948  0.00  0.00    +0.000 A 
ATOM      6  C   UNL     1       2.467   5.288  18.804  0.00  0.00    +0.000 A 
ATOM      7  C   UNL     1       1.582   4.265  19.289  0.00  0.00    +0.000 A 
ATOM      8  C   UNL     1       0.896   4.545  20.608  0.00  0.00    +0.000 C 
ATOM      9  C   UNL     1       1.484   3.134  18.580  0.00  0.00    +0.000 A 
ATOM     10  C   UNL     1       0.569   2.006  18.931  0.00  0.00    +0.000 C 
ATOM     11  N   UNL     1       2.322   2.961  17.497  0.00  0.00    +0.000 N 
ATOM     12  C   UNL     1       3.365   3.816  17.164  0.00  0.00    +0.000 A 
ATOM     13  O   UNL     1       4.124   3.498  16.228  0.00  0.00    +0.000 OA
ATOM     14  H   UNL     1       2.247   2.129  16.929  0.00  0.00    +0.000 HD
ENDBRANCH   3   5
BRANCH   1  15
ATOM     15  C   UNL     1       6.916   6.880  17.889  0.00  0.00    +0.000 C 
ATOM     16  C   UNL     1       8.139   6.776  18.814  0.00  0.00    +0.000 C 
BRANCH  15  17
ATOM     17  C   UNL     1       7.341   6.807  16.410  0.00  0.00    +0.000 C 
BRANCH  17  20
ATOM     18  C   UNL     1       6.322   4.019  14.035  0.00  0.00    +0.000 C 
ATOM     19  N   UNL     1       6.451   5.282  14.717  0.00  0.00    +0.000 N 
ATOM     20  C   UNL     1       7.257   5.412  15.821  0.00  0.00    +0.000 C 
ATOM     21  O   UNL     1       7.919   4.483  16.280  0.00  0.00    +0.000 OA
ATOM     22  H   UNL     1       5.859   6.048  14.422  0.00  0.00    +0.000 HD
ENDBRANCH  17  20
ENDBRANCH  15  17
ENDBRANCH   1  15
TORSDOF 4
ENDMDL
