MODEL 1
REMARK VINA RESULT:      -8.8      0.000      0.000
REMARK  Name = 
REMARK  8 active torsions:
REMARK  status: ('A' for Active; 'I' for Inactive)
REMARK    1  A    between atoms: C_1  and  C_2
REMARK    2  A    between atoms: C_2  and  O_3
REMARK    3  A    between atoms: C_2  and  C_4
REMARK    4  A    between atoms: C_2  and  C_27
REMARK    5  A    between atoms: C_7  and  N_8
REMARK    6  A    between atoms: N_11  and  C_12
REMARK    7  A    between atoms: C_17  and  C_18
REMARK    8  A    between atoms: C_21  and  C_22
REMARK                            x       y       z     vdW  Elec       q    Type
REMARK                         _______ _______ _______ _____ _____    ______ ____
ROOT
ATOM      1  N   UNL     1       1.915   6.011  20.383  0.00  0.00    +0.000 N 
ATOM      2  C   UNL     1       2.828   5.122  19.908  0.00  0.00    +0.000 A 
ATOM      3  N   UNL     1       3.744   5.390  18.974  0.00  0.00    +0.000 NA
ATOM      4  N   UNL     1       4.364   4.236  18.742  0.00  0.00    +0.000 N 
ATOM      5  C   UNL     1       3.922   3.218  19.527  0.00  0.00    +0.000 A 
ATOM      6  C   UNL     1       2.903   3.750  20.305  0.00  0.00    +0.000 A 
ATOM      7  H   UNL     1       1.195   5.658  21.006  0.00  0.00    +0.000 HD
ENDROOT
BRANCH   1  11
ATOM      8  C   UNL     1       1.229  10.113  19.390  0.00  0.00    +0.000 A 
ATOM      9  C   UNL     1       0.959   9.606  20.672  0.00  0.00    +0.000 A 
ATOM     10  C   UNL     1       1.229   8.264  21.002  0.00  0.00    +0.000 A 
ATOM     11  C   UNL     1       1.778   7.382  20.066  0.00  0.00    +0.000 A 
ATOM     12  C   UNL     1       2.061   7.895  18.797  0.00  0.00    +0.000 A 
ATOM     13  C   UNL     1       1.806   9.229  18.467  0.00  0.00    +0.000 A 
BRANCH   8  15
ATOM     14  C   UNL     1       1.408  12.604  20.015  0.00  0.00    +0.000 C 
ATOM     15  C   UNL     1       0.968  11.563  18.971  0.00  0.00    +0.000 C 
BRANCH  15  16
ATOM     16  C   UNL     1      -0.525  11.853  18.634  0.00  0.00    +0.000 C 
ATOM     17  F   UNL     1      -0.680  12.978  17.887  0.00  0.00    +0.000 F 
ATOM     18  F   UNL     1      -1.066  10.835  17.915  0.00  0.00    +0.000 F 
ENDBRANCH  15  16
BRANCH  15  19
ATOM     19  O   UNL     1       1.786  11.840  17.813  0.00  0.00    +0.000 OA
ATOM     20  H   UNL     1       2.662  12.118  18.139  0.00  0.00    +0.000 HD
ENDBRANCH  15  19
ENDBRANCH   8  15
ENDBRANCH   1  11
BRANCH   4  21
ATOM     21  C   UNL     1       5.388   4.200  17.713  0.00  0.00    +0.000 C 
ATOM     22  C   UNL     1       4.737   4.112  16.327  0.00  0.00    +0.000 C 
ATOM     23  O   UNL     1       5.729   4.114  15.295  0.00  0.00    +0.000 OA
ATOM     24  C   UNL     1       6.484   5.324  15.285  0.00  0.00    +0.000 C 
ATOM     25  C   UNL     1       7.269   5.440  16.581  0.00  0.00    +0.000 C 
ATOM     26  C   UNL     1       6.309   5.426  17.775  0.00  0.00    +0.000 C 
BRANCH  26  27
ATOM     27  C   UNL     1       7.100   5.451  19.072  0.00  0.00    +0.000 C 
ATOM     28  N   UNL     1       7.756   5.472  20.149  0.00  0.00    +0.000 NA
ENDBRANCH  26  27
ENDBRANCH   4  21
BRANCH   6  29
ATOM     29  C   UNL     1       2.086   3.062  21.285  0.00  0.00    +0.000 C 
ATOM     30  N   UNL     1       0.762   2.924  20.976  0.00  0.00    +0.000 N 
ATOM     31  O   UNL     1       2.533   2.618  22.338  0.00  0.00    +0.000 OA
ATOM     32  H   UNL     1       0.376   3.180  20.081  0.00  0.00    +0.000 HD
ATOM     33  H   UNL     1       0.180   2.408  21.619  0.00  0.00    +0.000 HD
ENDBRANCH   6  29
TORSDOF 7
ENDMDL
MODEL 2
REMARK VINA RESULT:      -8.5      0.978      1.209
REMARK  Name = 
REMARK  8 active torsions:
REMARK  status: ('A' for Active; 'I' for Inactive)
REMARK    1  A    between atoms: C_1  and  C_2
REMARK    2  A    between atoms: C_2  and  O_3
REMARK    3  A    between atoms: C_2  and  C_4
REMARK    4  A    between atoms: C_2  and  C_27
REMARK    5  A    between atoms: C_7  and  N_8
REMARK    6  A    between atoms: N_11  and  C_12
REMARK    7  A    between atoms: C_17  and  C_18
REMARK    8  A    between atoms: C_21  and  C_22
REMARK                            x       y       z     vdW  Elec       q    Type
REMARK                         _______ _______ _______ _____ _____    ______ ____
ROOT
ATOM      1  N   UNL     1       1.922   6.099  20.378  0.00  0.00    +0.000 N 
ATOM      2  C   UNL     1       2.821   5.197  19.899  0.00  0.00    +0.000 A 
ATOM      3  N   UNL     1       3.740   5.454  18.966  0.00  0.00    +0.000 NA
ATOM      4  N   UNL     1       4.342   4.291  18.729  0.00  0.00    +0.000 N 
ATOM      5  C   UNL     1       3.882   3.277  19.510  0.00  0.00    +0.000 A 
ATOM      6  C   UNL     1       2.873   3.822  20.291  0.00  0.00    +0.000 A 
ATOM      7  H   UNL     1       1.196   5.755  21.000  0.00  0.00    +0.000 HD
ENDROOT
BRANCH   1  11
ATOM      8  C   UNL     1       1.304  10.216  19.402  0.00  0.00    +0.000 A 
ATOM      9  C   UNL     1       1.022   9.707  20.681  0.00  0.00    +0.000 A 
ATOM     10  C   UNL     1       1.270   8.360  21.006  0.00  0.00    +0.000 A 
ATOM     11  C   UNL     1       1.807   7.473  20.067  0.00  0.00    +0.000 A 
ATOM     12  C   UNL     1       2.103   7.988  18.801  0.00  0.00    +0.000 A 
ATOM     13  C   UNL     1       1.870   9.327  18.477  0.00  0.00    +0.000 A 
BRANCH   8  15
ATOM     14  C   UNL     1       2.224  12.290  18.185  0.00  0.00    +0.000 C 
ATOM     15  C   UNL     1       1.067  11.672  18.989  0.00  0.00    +0.000 C 
BRANCH  15  16
ATOM     16  C   UNL     1       0.785  12.620  20.192  0.00  0.00    +0.000 C 
ATOM     17  F   UNL     1       1.908  12.913  20.898  0.00  0.00    +0.000 F 
ATOM     18  F   UNL     1       0.277  13.806  19.766  0.00  0.00    +0.000 F 
ENDBRANCH  15  16
BRANCH  15  19
ATOM     19  O   UNL     1      -0.060  11.694  18.084  0.00  0.00    +0.000 OA
ATOM     20  H   UNL     1      -0.371  10.775  17.991  0.00  0.00    +0.000 HD
ENDBRANCH  15  19
ENDBRANCH   8  15
ENDBRANCH   1  11
BRANCH   4  21
ATOM     21  C   UNL     1       5.365   4.242  17.700  0.00  0.00    +0.000 C 
ATOM     22  C   UNL     1       4.713   4.169  16.314  0.00  0.00    +0.000 C 
ATOM     23  O   UNL     1       5.705   4.159  15.282  0.00  0.00    +0.000 OA
ATOM     24  C   UNL     1       6.479   5.358  15.277  0.00  0.00    +0.000 C 
ATOM     25  C   UNL     1       7.265   5.456  16.573  0.00  0.00    +0.000 C 
ATOM     26  C   UNL     1       6.305   5.453  17.766  0.00  0.00    +0.000 C 
BRANCH  26  27
ATOM     27  C   UNL     1       7.096   5.461  19.064  0.00  0.00    +0.000 C 
ATOM     28  N   UNL     1       7.753   5.468  20.140  0.00  0.00    +0.000 NA
ENDBRANCH  26  27
ENDBRANCH   4  21
BRANCH   6  29
ATOM     29  C   UNL     1       2.044   3.143  21.267  0.00  0.00    +0.000 C 
ATOM     30  N   UNL     1       0.739   2.943  20.916  0.00  0.00    +0.000 N 
ATOM     31  O   UNL     1       2.467   2.760  22.354  0.00  0.00    +0.000 OA
ATOM     32  H   UNL     1       0.378   3.148  19.997  0.00  0.00    +0.000 HD
ATOM     33  H   UNL     1       0.152   2.431  21.558  0.00  0.00    +0.000 HD
ENDBRANCH   6  29
TORSDOF 7
ENDMDL
MODEL 3
REMARK VINA RESULT:      -8.3      1.072      1.335
REMARK  Name = 
REMARK  8 active torsions:
REMARK  status: ('A' for Active; 'I' for Inactive)
REMARK    1  A    between atoms: C_1  and  C_2
REMARK    2  A    between atoms: C_2  and  O_3
REMARK    3  A    between atoms: C_2  and  C_4
REMARK    4  A    between atoms: C_2  and  C_27
REMARK    5  A    between atoms: C_7  and  N_8
REMARK    6  A    between atoms: N_11  and  C_12
REMARK    7  A    between atoms: C_17  and  C_18
REMARK    8  A    between atoms: C_21  and  C_22
REMARK                            x       y       z     vdW  Elec       q    Type
REMARK                         _______ _______ _______ _____ _____    ______ ____
ROOT
ATOM      1  N   UNL     1       1.851   6.059  20.530  0.00  0.00    +0.000 N 
ATOM      2  C   UNL     1       2.760   5.201  19.995  0.00  0.00    +0.000 A 
ATOM      3  N   UNL     1       3.653   5.519  19.055  0.00  0.00    +0.000 NA
ATOM      4  N   UNL     1       4.278   4.382  18.758  0.00  0.00    +0.000 N 
ATOM      5  C   UNL     1       3.861   3.326  19.506  0.00  0.00    +0.000 A 
ATOM      6  C   UNL     1       2.856   3.813  20.329  0.00  0.00    +0.000 A 
ATOM      7  H   UNL     1       1.147   5.672  21.152  0.00  0.00    +0.000 HD
ENDROOT
BRANCH   1  11
ATOM      8  C   UNL     1       1.106  10.198  19.755  0.00  0.00    +0.000 A 
ATOM      9  C   UNL     1       0.944   9.643  21.035  0.00  0.00    +0.000 A 
ATOM     10  C   UNL     1       1.234   8.289  21.290  0.00  0.00    +0.000 A 
ATOM     11  C   UNL     1       1.695   7.442  20.278  0.00  0.00    +0.000 A 
ATOM     12  C   UNL     1       1.871   8.002  19.009  0.00  0.00    +0.000 A 
ATOM     13  C   UNL     1       1.597   9.348  18.753  0.00  0.00    +0.000 A 
BRANCH   8  15
ATOM     14  C   UNL     1      -0.446  11.872  18.564  0.00  0.00    +0.000 C 
ATOM     15  C   UNL     1       0.819  11.664  19.415  0.00  0.00    +0.000 C 
BRANCH  15  16
ATOM     16  C   UNL     1       1.992  12.372  18.676  0.00  0.00    +0.000 C 
ATOM     17  F   UNL     1       1.560  13.299  17.781  0.00  0.00    +0.000 F 
ATOM     18  F   UNL     1       2.794  13.028  19.555  0.00  0.00    +0.000 F 
ENDBRANCH  15  16
BRANCH  15  19
ATOM     19  O   UNL     1       0.542  12.356  20.654  0.00  0.00    +0.000 OA
ATOM     20  H   UNL     1       0.812  11.764  21.380  0.00  0.00    +0.000 HD
ENDBRANCH  15  19
ENDBRANCH   8  15
ENDBRANCH   1  11
BRANCH   4  21
ATOM     21  C   UNL     1       5.279   4.402  17.706  0.00  0.00    +0.000 C 
ATOM     22  C   UNL     1       4.597   4.415  16.333  0.00  0.00    +0.000 C 
ATOM     23  O   UNL     1       5.567   4.473  15.281  0.00  0.00    +0.000 OA
ATOM     24  C   UNL     1       6.339   5.672  15.335  0.00  0.00    +0.000 C 
ATOM     25  C   UNL     1       7.153   5.691  16.618  0.00  0.00    +0.000 C 
ATOM     26  C   UNL     1       6.219   5.609  17.829  0.00  0.00    +0.000 C 
BRANCH  26  27
ATOM     27  C   UNL     1       7.037   5.537  19.108  0.00  0.00    +0.000 C 
ATOM     28  N   UNL     1       7.716   5.477  20.168  0.00  0.00    +0.000 NA
ENDBRANCH  26  27
ENDBRANCH   4  21
BRANCH   6  29
ATOM     29  C   UNL     1       2.066   3.074  21.295  0.00  0.00    +0.000 C 
ATOM     30  N   UNL     1       0.749   2.887  20.980  0.00  0.00    +0.000 N 
ATOM     31  O   UNL     1       2.529   2.632  22.341  0.00  0.00    +0.000 OA
ATOM     32  H   UNL     1       0.355   3.142  20.088  0.00  0.00    +0.000 HD
ATOM     33  H   UNL     1       0.189   2.335  21.612  0.00  0.00    +0.000 HD
ENDBRANCH   6  29
TORSDOF 7
ENDMDL
MODEL 4
REMARK VINA RESULT:      -8.2      0.427      1.091
REMARK  Name = 
REMARK  8 active torsions:
REMARK  status: ('A' for Active; 'I' for Inactive)
REMARK    1  A    between atoms: C_1  and  C_2
REMARK    2  A    between atoms: C_2  and  O_3
REMARK    3  A    between atoms: C_2  and  C_4
REMARK    4  A    between atoms: C_2  and  C_27
REMARK    5  A    between atoms: C_7  and  N_8
REMARK    6  A    between atoms: N_11  and  C_12
REMARK    7  A    between atoms: C_17  and  C_18
REMARK    8  A    between atoms: C_21  and  C_22
REMARK                            x       y       z     vdW  Elec       q    Type
REMARK                         _______ _______ _______ _____ _____    ______ ____
ROOT
ATOM      1  N   UNL     1       1.768   6.103  20.251  0.00  0.00    +0.000 N 
ATOM      2  C   UNL     1       2.717   5.231  19.816  0.00  0.00    +0.000 A 
ATOM      3  N   UNL     1       3.627   5.497  18.876  0.00  0.00    +0.000 NA
ATOM      4  N   UNL     1       4.293   4.359  18.694  0.00  0.00    +0.000 N 
ATOM      5  C   UNL     1       3.886   3.357  19.517  0.00  0.00    +0.000 A 
ATOM      6  C   UNL     1       2.843   3.880  20.270  0.00  0.00    +0.000 A 
ATOM      7  H   UNL     1       1.058   5.747  20.886  0.00  0.00    +0.000 HD
ENDROOT
BRANCH   1  11
ATOM      8  C   UNL     1       1.467  10.227  19.161  0.00  0.00    +0.000 A 
ATOM      9  C   UNL     1       1.915   9.251  18.254  0.00  0.00    +0.000 A 
ATOM     10  C   UNL     1       1.969   7.889  18.609  0.00  0.00    +0.000 A 
ATOM     11  C   UNL     1       1.579   7.453  19.879  0.00  0.00    +0.000 A 
ATOM     12  C   UNL     1       1.117   8.424  20.772  0.00  0.00    +0.000 A 
ATOM     13  C   UNL     1       1.049   9.776  20.422  0.00  0.00    +0.000 A 
BRANCH   8  15
ATOM     14  C   UNL     1       1.926  12.637  19.939  0.00  0.00    +0.000 C 
ATOM     15  C   UNL     1       1.374  11.720  18.834  0.00  0.00    +0.000 C 
BRANCH  15  16
ATOM     16  C   UNL     1      -0.074  12.199  18.520  0.00  0.00    +0.000 C 
ATOM     17  F   UNL     1      -0.865  11.195  18.058  0.00  0.00    +0.000 F 
ATOM     18  F   UNL     1      -0.678  12.682  19.637  0.00  0.00    +0.000 F 
ENDBRANCH  15  16
BRANCH  15  19
ATOM     19  O   UNL     1       2.224  11.973  17.692  0.00  0.00    +0.000 OA
ATOM     20  H   UNL     1       1.942  12.824  17.309  0.00  0.00    +0.000 HD
ENDBRANCH  15  19
ENDBRANCH   8  15
ENDBRANCH   1  11
BRANCH   4  21
ATOM     21  C   UNL     1       5.322   4.321  17.671  0.00  0.00    +0.000 C 
ATOM     22  C   UNL     1       4.680   4.273  16.280  0.00  0.00    +0.000 C 
ATOM     23  O   UNL     1       5.679   4.273  15.254  0.00  0.00    +0.000 OA
ATOM     24  C   UNL     1       6.459   5.468  15.272  0.00  0.00    +0.000 C 
ATOM     25  C   UNL     1       7.236   5.543  16.575  0.00  0.00    +0.000 C 
ATOM     26  C   UNL     1       6.268   5.526  17.762  0.00  0.00    +0.000 C 
BRANCH  26  27
ATOM     27  C   UNL     1       7.051   5.511  19.065  0.00  0.00    +0.000 C 
ATOM     28  N   UNL     1       7.700   5.498  20.145  0.00  0.00    +0.000 NA
ENDBRANCH  26  27
ENDBRANCH   4  21
BRANCH   6  29
ATOM     29  C   UNL     1       2.048   3.201  21.273  0.00  0.00    +0.000 C 
ATOM     30  N   UNL     1       0.751   2.934  20.936  0.00  0.00    +0.000 N 
ATOM     31  O   UNL     1       2.490   2.874  22.370  0.00  0.00    +0.000 OA
ATOM     32  H   UNL     1       0.378   3.091  20.012  0.00  0.00    +0.000 HD
ATOM     33  H   UNL     1       0.189   2.420  21.598  0.00  0.00    +0.000 HD
ENDBRANCH   6  29
TORSDOF 7
ENDMDL
MODEL 5
REMARK VINA RESULT:      -7.9      4.213      9.320
REMARK  Name = 
REMARK  8 active torsions:
REMARK  status: ('A' for Active; 'I' for Inactive)
REMARK    1  A    between atoms: C_1  and  C_2
REMARK    2  A    between atoms: C_2  and  O_3
REMARK    3  A    between atoms: C_2  and  C_4
REMARK    4  A    between atoms: C_2  and  C_27
REMARK    5  A    between atoms: C_7  and  N_8
REMARK    6  A    between atoms: N_11  and  C_12
REMARK    7  A    between atoms: C_17  and  C_18
REMARK    8  A    between atoms: C_21  and  C_22
REMARK                            x       y       z     vdW  Elec       q    Type
REMARK                         _______ _______ _______ _____ _____    ______ ____
ROOT
ATOM      1  N   UNL     1       1.572  10.326  18.830  0.00  0.00    +0.000 N 
ATOM      2  C   UNL     1       0.429  11.056  18.730  0.00  0.00    +0.000 A 
ATOM      3  N   UNL     1      -0.807  10.556  18.796  0.00  0.00    +0.000 NA
ATOM      4  N   UNL     1      -1.620  11.585  18.567  0.00  0.00    +0.000 N 
ATOM      5  C   UNL     1      -0.964  12.764  18.398  0.00  0.00    +0.000 A 
ATOM      6  C   UNL     1       0.389  12.466  18.488  0.00  0.00    +0.000 A 
ATOM      7  H   UNL     1       2.452  10.801  18.647  0.00  0.00    +0.000 HD
ENDROOT
BRANCH   1  11
ATOM      8  C   UNL     1       2.221   6.200  19.746  0.00  0.00    +0.000 A 
ATOM      9  C   UNL     1       1.648   7.084  20.675  0.00  0.00    +0.000 A 
ATOM     10  C   UNL     1       1.398   8.431  20.349  0.00  0.00    +0.000 A 
ATOM     11  C   UNL     1       1.711   8.943  19.086  0.00  0.00    +0.000 A 
ATOM     12  C   UNL     1       2.264   8.055  18.158  0.00  0.00    +0.000 A 
ATOM     13  C   UNL     1       2.503   6.714  18.472  0.00  0.00    +0.000 A 
BRANCH   8  15
ATOM     14  C   UNL     1       3.863   4.233  19.493  0.00  0.00    +0.000 C 
ATOM     15  C   UNL     1       2.509   4.723  20.034  0.00  0.00    +0.000 C 
BRANCH  15  16
ATOM     16  C   UNL     1       1.417   3.759  19.484  0.00  0.00    +0.000 C 
ATOM     17  F   UNL     1       0.272   3.798  20.215  0.00  0.00    +0.000 F 
ATOM     18  F   UNL     1       1.074   4.090  18.212  0.00  0.00    +0.000 F 
ENDBRANCH  15  16
BRANCH  15  19
ATOM     19  O   UNL     1       2.611   4.568  21.468  0.00  0.00    +0.000 OA
ATOM     20  H   UNL     1       2.139   5.319  21.872  0.00  0.00    +0.000 HD
ENDBRANCH  15  19
ENDBRANCH   8  15
ENDBRANCH   1  11
BRANCH   4  21
ATOM     21  C   UNL     1      -3.049  11.334  18.514  0.00  0.00    +0.000 C 
ATOM     22  C   UNL     1      -3.774  12.211  19.542  0.00  0.00    +0.000 C 
ATOM     23  O   UNL     1      -5.190  12.007  19.480  0.00  0.00    +0.000 OA
ATOM     24  C   UNL     1      -5.726  12.383  18.212  0.00  0.00    +0.000 C 
ATOM     25  C   UNL     1      -5.154  11.480  17.134  0.00  0.00    +0.000 C 
ATOM     26  C   UNL     1      -3.627  11.593  17.115  0.00  0.00    +0.000 C 
BRANCH  26  27
ATOM     27  C   UNL     1      -3.050  10.622  16.098  0.00  0.00    +0.000 C 
ATOM     28  N   UNL     1      -2.573   9.817  15.254  0.00  0.00    +0.000 NA
ENDBRANCH  26  27
ENDBRANCH   4  21
BRANCH   6  29
ATOM     29  C   UNL     1       1.508  13.376  18.345  0.00  0.00    +0.000 C 
ATOM     30  N   UNL     1       2.403  13.082  17.355  0.00  0.00    +0.000 N 
ATOM     31  O   UNL     1       1.665  14.362  19.060  0.00  0.00    +0.000 OA
ATOM     32  H   UNL     1       2.257  12.345  16.683  0.00  0.00    +0.000 HD
ATOM     33  H   UNL     1       3.165  13.726  17.204  0.00  0.00    +0.000 HD
ENDBRANCH   6  29
TORSDOF 7
ENDMDL
MODEL 6
REMARK VINA RESULT:      -7.9      4.464      9.463
REMARK  Name = 
REMARK  8 active torsions:
REMARK  status: ('A' for Active; 'I' for Inactive)
REMARK    1  A    between atoms: C_1  and  C_2
REMARK    2  A    between atoms: C_2  and  O_3
REMARK    3  A    between atoms: C_2  and  C_4
REMARK    4  A    between atoms: C_2  and  C_27
REMARK    5  A    between atoms: C_7  and  N_8
REMARK    6  A    between atoms: N_11  and  C_12
REMARK    7  A    between atoms: C_17  and  C_18
REMARK    8  A    between atoms: C_21  and  C_22
REMARK                            x       y       z     vdW  Elec       q    Type
REMARK                         _______ _______ _______ _____ _____    ______ ____
ROOT
ATOM      1  N   UNL     1       1.501  10.506  18.779  0.00  0.00    +0.000 N 
ATOM      2  C   UNL     1       0.335  11.206  18.736  0.00  0.00    +0.000 A 
ATOM      3  N   UNL     1      -0.884  10.666  18.797  0.00  0.00    +0.000 NA
ATOM      4  N   UNL     1      -1.730  11.681  18.633  0.00  0.00    +0.000 N 
ATOM      5  C   UNL     1      -1.112  12.885  18.513  0.00  0.00    +0.000 A 
ATOM      6  C   UNL     1       0.250  12.624  18.565  0.00  0.00    +0.000 A 
ATOM      7  H   UNL     1       2.363  11.016  18.606  0.00  0.00    +0.000 HD
ENDROOT
BRANCH   1  11
ATOM      8  C   UNL     1       2.294   6.360  19.463  0.00  0.00    +0.000 A 
ATOM      9  C   UNL     1       1.771   7.191  20.469  0.00  0.00    +0.000 A 
ATOM     10  C   UNL     1       1.472   8.544  20.222  0.00  0.00    +0.000 A 
ATOM     11  C   UNL     1       1.684   9.117  18.964  0.00  0.00    +0.000 A 
ATOM     12  C   UNL     1       2.188   8.283  17.961  0.00  0.00    +0.000 A 
ATOM     13  C   UNL     1       2.475   6.935  18.198  0.00  0.00    +0.000 A 
BRANCH   8  15
ATOM     14  C   UNL     1       2.191   3.975  18.502  0.00  0.00    +0.000 C 
ATOM     15  C   UNL     1       2.630   4.880  19.666  0.00  0.00    +0.000 C 
BRANCH  15  16
ATOM     16  C   UNL     1       2.027   4.278  20.969  0.00  0.00    +0.000 C 
ATOM     17  F   UNL     1       0.737   3.883  20.811  0.00  0.00    +0.000 F 
ATOM     18  F   UNL     1       2.722   3.180  21.363  0.00  0.00    +0.000 F 
ENDBRANCH  15  16
BRANCH  15  19
ATOM     19  O   UNL     1       4.070   4.757  19.700  0.00  0.00    +0.000 OA
ATOM     20  H   UNL     1       4.418   5.239  18.927  0.00  0.00    +0.000 HD
ENDBRANCH  15  19
ENDBRANCH   8  15
ENDBRANCH   1  11
BRANCH   4  21
ATOM     21  C   UNL     1      -3.152  11.390  18.592  0.00  0.00    +0.000 C 
ATOM     22  C   UNL     1      -3.894  12.251  19.620  0.00  0.00    +0.000 C 
ATOM     23  O   UNL     1      -5.304  12.008  19.570  0.00  0.00    +0.000 OA
ATOM     24  C   UNL     1      -5.860  12.363  18.304  0.00  0.00    +0.000 C 
ATOM     25  C   UNL     1      -5.270  11.470  17.226  0.00  0.00    +0.000 C 
ATOM     26  C   UNL     1      -3.747  11.624  17.196  0.00  0.00    +0.000 C 
BRANCH  26  27
ATOM     27  C   UNL     1      -3.151  10.665  16.179  0.00  0.00    +0.000 C 
ATOM     28  N   UNL     1      -2.656   9.869  15.336  0.00  0.00    +0.000 NA
ENDBRANCH  26  27
ENDBRANCH   4  21
BRANCH   6  29
ATOM     29  C   UNL     1       1.339  13.573  18.449  0.00  0.00    +0.000 C 
ATOM     30  N   UNL     1       1.063  14.857  18.826  0.00  0.00    +0.000 N 
ATOM     31  O   UNL     1       2.455  13.266  18.040  0.00  0.00    +0.000 OA
ATOM     32  H   UNL     1       0.196  15.129  19.263  0.00  0.00    +0.000 HD
ATOM     33  H   UNL     1       1.817  15.527  18.800  0.00  0.00    +0.000 HD
ENDBRANCH   6  29
TORSDOF 7
ENDMDL
MODEL 7
REMARK VINA RESULT:      -7.8      4.500      8.882
REMARK  Name = 
REMARK  8 active torsions:
REMARK  status: ('A' for Active; 'I' for Inactive)
REMARK    1  A    between atoms: C_1  and  C_2
REMARK    2  A    between atoms: C_2  and  O_3
REMARK    3  A    between atoms: C_2  and  C_4
REMARK    4  A    between atoms: C_2  and  C_27
REMARK    5  A    between atoms: C_7  and  N_8
REMARK    6  A    between atoms: N_11  and  C_12
REMARK    7  A    between atoms: C_17  and  C_18
REMARK    8  A    between atoms: C_21  and  C_22
REMARK                            x       y       z     vdW  Elec       q    Type
REMARK                         _______ _______ _______ _____ _____    ______ ____
ROOT
ATOM      1  N   UNL     1       0.563   9.720  20.795  0.00  0.00    +0.000 N 
ATOM      2  C   UNL     1      -0.462  10.501  20.359  0.00  0.00    +0.000 A 
ATOM      3  N   UNL     1      -1.005  10.440  19.141  0.00  0.00    +0.000 NA
ATOM      4  N   UNL     1      -1.903  11.422  19.103  0.00  0.00    +0.000 N 
ATOM      5  C   UNL     1      -2.008  12.104  20.275  0.00  0.00    +0.000 A 
ATOM      6  C   UNL     1      -1.072  11.540  21.130  0.00  0.00    +0.000 A 
ATOM      7  H   UNL     1       0.968   9.939  21.701  0.00  0.00    +0.000 HD
ENDROOT
BRANCH   1  11
ATOM      8  C   UNL     1       2.750   6.575  18.896  0.00  0.00    +0.000 A 
ATOM      9  C   UNL     1       2.156   6.407  20.158  0.00  0.00    +0.000 A 
ATOM     10  C   UNL     1       1.401   7.434  20.756  0.00  0.00    +0.000 A 
ATOM     11  C   UNL     1       1.212   8.663  20.117  0.00  0.00    +0.000 A 
ATOM     12  C   UNL     1       1.789   8.820  18.854  0.00  0.00    +0.000 A 
ATOM     13  C   UNL     1       2.530   7.800  18.250  0.00  0.00    +0.000 A 
BRANCH   8  15
ATOM     14  C   UNL     1       4.381   6.013  16.985  0.00  0.00    +0.000 C 
ATOM     15  C   UNL     1       3.574   5.495  18.187  0.00  0.00    +0.000 C 
BRANCH  15  16
ATOM     16  C   UNL     1       2.720   4.293  17.685  0.00  0.00    +0.000 C 
ATOM     17  F   UNL     1       2.627   3.300  18.608  0.00  0.00    +0.000 F 
ATOM     18  F   UNL     1       1.449   4.683  17.407  0.00  0.00    +0.000 F 
ENDBRANCH  15  16
BRANCH  15  19
ATOM     19  O   UNL     1       4.572   5.022  19.120  0.00  0.00    +0.000 OA
ATOM     20  H   UNL     1       5.300   4.643  18.594  0.00  0.00    +0.000 HD
ENDBRANCH  15  19
ENDBRANCH   8  15
ENDBRANCH   1  11
BRANCH   4  21
ATOM     21  C   UNL     1      -2.625  11.647  17.864  0.00  0.00    +0.000 C 
ATOM     22  C   UNL     1      -1.961  10.869  16.721  0.00  0.00    +0.000 C 
ATOM     23  O   UNL     1      -2.680  11.046  15.496  0.00  0.00    +0.000 OA
ATOM     24  C   UNL     1      -4.011  10.537  15.581  0.00  0.00    +0.000 C 
ATOM     25  C   UNL     1      -4.792  11.335  16.612  0.00  0.00    +0.000 C 
ATOM     26  C   UNL     1      -4.101  11.242  17.976  0.00  0.00    +0.000 C 
BRANCH  26  27
ATOM     27  C   UNL     1      -4.833  12.113  18.984  0.00  0.00    +0.000 C 
ATOM     28  N   UNL     1      -5.438  12.835  19.820  0.00  0.00    +0.000 NA
ENDBRANCH  26  27
ENDBRANCH   4  21
BRANCH   6  29
ATOM     29  C   UNL     1      -0.767  11.932  22.492  0.00  0.00    +0.000 C 
ATOM     30  N   UNL     1      -0.756  13.275  22.745  0.00  0.00    +0.000 N 
ATOM     31  O   UNL     1      -0.531  11.124  23.385  0.00  0.00    +0.000 OA
ATOM     32  H   UNL     1      -1.045  13.965  22.070  0.00  0.00    +0.000 HD
ATOM     33  H   UNL     1      -0.593  13.573  23.696  0.00  0.00    +0.000 HD
ENDBRANCH   6  29
TORSDOF 7
ENDMDL
MODEL 8
REMARK VINA RESULT:      -7.7      5.104      7.300
REMARK  Name = 
REMARK  8 active torsions:
REMARK  status: ('A' for Active; 'I' for Inactive)
REMARK    1  A    between atoms: C_1  and  C_2
REMARK    2  A    between atoms: C_2  and  O_3
REMARK    3  A    between atoms: C_2  and  C_4
REMARK    4  A    between atoms: C_2  and  C_27
REMARK    5  A    between atoms: C_7  and  N_8
REMARK    6  A    between atoms: N_11  and  C_12
REMARK    7  A    between atoms: C_17  and  C_18
REMARK    8  A    between atoms: C_21  and  C_22
REMARK                            x       y       z     vdW  Elec       q    Type
REMARK                         _______ _______ _______ _____ _____    ______ ____
ROOT
ATOM      1  N   UNL     1       7.482   7.095  17.112  0.00  0.00    +0.000 N 
ATOM      2  C   UNL     1       6.418   6.302  17.410  0.00  0.00    +0.000 A 
ATOM      3  N   UNL     1       5.648   6.430  18.492  0.00  0.00    +0.000 NA
ATOM      4  N   UNL     1       4.792   5.412  18.441  0.00  0.00    +0.000 N 
ATOM      5  C   UNL     1       4.938   4.638  17.334  0.00  0.00    +0.000 A 
ATOM      6  C   UNL     1       6.004   5.179  16.627  0.00  0.00    +0.000 A 
ATOM      7  H   UNL     1       8.063   6.827  16.322  0.00  0.00    +0.000 HD
ENDROOT
BRANCH   1  11
ATOM      8  C   UNL     1       9.114  10.544  19.043  0.00  0.00    +0.000 A 
ATOM      9  C   UNL     1       8.348  10.645  17.869  0.00  0.00    +0.000 A 
ATOM     10  C   UNL     1       7.778   9.508  17.265  0.00  0.00    +0.000 A 
ATOM     11  C   UNL     1       7.952   8.232  17.810  0.00  0.00    +0.000 A 
ATOM     12  C   UNL     1       8.700   8.138  18.987  0.00  0.00    +0.000 A 
ATOM     13  C   UNL     1       9.258   9.265  19.598  0.00  0.00    +0.000 A 
BRANCH   8  15
ATOM     14  C   UNL     1       8.964  13.054  19.597  0.00  0.00    +0.000 C 
ATOM     15  C   UNL     1       9.752  11.742  19.753  0.00  0.00    +0.000 C 
BRANCH  15  16
ATOM     16  C   UNL     1      11.214  12.027  19.300  0.00  0.00    +0.000 C 
ATOM     17  F   UNL     1      12.125  11.721  20.261  0.00  0.00    +0.000 F 
ATOM     18  F   UNL     1      11.538  11.282  18.211  0.00  0.00    +0.000 F 
ENDBRANCH  15  16
BRANCH  15  19
ATOM     19  O   UNL     1       9.731  11.472  21.174  0.00  0.00    +0.000 OA
ATOM     20  H   UNL     1       9.866  12.323  21.630  0.00  0.00    +0.000 HD
ENDBRANCH  15  19
ENDBRANCH   8  15
ENDBRANCH   1  11
BRANCH   4  21
ATOM     21  C   UNL     1       3.851   5.249  19.535  0.00  0.00    +0.000 C 
ATOM     22  C   UNL     1       2.742   6.303  19.436  0.00  0.00    +0.000 C 
ATOM     23  O   UNL     1       1.782   6.136  20.485  0.00  0.00    +0.000 OA
ATOM     24  C   UNL     1       1.118   4.875  20.402  0.00  0.00    +0.000 C 
ATOM     25  C   UNL     1       2.126   3.759  20.614  0.00  0.00    +0.000 C 
ATOM     26  C   UNL     1       3.229   3.845  19.555  0.00  0.00    +0.000 C 
BRANCH  26  27
ATOM     27  C   UNL     1       4.284   2.784  19.823  0.00  0.00    +0.000 C 
ATOM     28  N   UNL     1       5.159   1.904  20.044  0.00  0.00    +0.000 NA
ENDBRANCH  26  27
ENDBRANCH   4  21
BRANCH   6  29
ATOM     29  C   UNL     1       6.580   4.697  15.387  0.00  0.00    +0.000 C 
ATOM     30  N   UNL     1       6.072   3.526  14.900  0.00  0.00    +0.000 N 
ATOM     31  O   UNL     1       7.472   5.290  14.789  0.00  0.00    +0.000 OA
ATOM     32  H   UNL     1       5.271   3.064  15.302  0.00  0.00    +0.000 HD
ATOM     33  H   UNL     1       6.422   3.194  14.014  0.00  0.00    +0.000 HD
ENDBRANCH   6  29
TORSDOF 7
ENDMDL
MODEL 9
REMARK VINA RESULT:      -7.6      5.006      7.335
REMARK  Name = 
REMARK  8 active torsions:
REMARK  status: ('A' for Active; 'I' for Inactive)
REMARK    1  A    between atoms: C_1  and  C_2
REMARK    2  A    between atoms: C_2  and  O_3
REMARK    3  A    between atoms: C_2  and  C_4
REMARK    4  A    between atoms: C_2  and  C_27
REMARK    5  A    between atoms: C_7  and  N_8
REMARK    6  A    between atoms: N_11  and  C_12
REMARK    7  A    between atoms: C_17  and  C_18
REMARK    8  A    between atoms: C_21  and  C_22
REMARK                            x       y       z     vdW  Elec       q    Type
REMARK                         _______ _______ _______ _____ _____    ______ ____
ROOT
ATOM      1  N   UNL     1       7.462   7.037  16.698  0.00  0.00    +0.000 N 
ATOM      2  C   UNL     1       6.315   6.307  16.739  0.00  0.00    +0.000 A 
ATOM      3  N   UNL     1       5.364   6.429  17.669  0.00  0.00    +0.000 NA
ATOM      4  N   UNL     1       4.473   5.480  17.391  0.00  0.00    +0.000 N 
ATOM      5  C   UNL     1       4.778   4.761  16.278  0.00  0.00    +0.000 A 
ATOM      6  C   UNL     1       5.988   5.263  15.818  0.00  0.00    +0.000 A 
ATOM      7  H   UNL     1       8.163   6.774  16.011  0.00  0.00    +0.000 HD
ENDROOT
BRANCH   1  11
ATOM      8  C   UNL     1       8.883  10.279  19.097  0.00  0.00    +0.000 A 
ATOM      9  C   UNL     1       8.152  10.495  17.917  0.00  0.00    +0.000 A 
ATOM     10  C   UNL     1       7.650   9.422  17.157  0.00  0.00    +0.000 A 
ATOM     11  C   UNL     1       7.861   8.095  17.546  0.00  0.00    +0.000 A 
ATOM     12  C   UNL     1       8.574   7.884  18.730  0.00  0.00    +0.000 A 
ATOM     13  C   UNL     1       9.064   8.947  19.495  0.00  0.00    +0.000 A 
BRANCH   8  15
ATOM     14  C   UNL     1       8.566  12.662  20.016  0.00  0.00    +0.000 C 
ATOM     15  C   UNL     1       9.446  11.402  19.973  0.00  0.00    +0.000 C 
BRANCH  15  16
ATOM     16  C   UNL     1      10.878  11.855  19.559  0.00  0.00    +0.000 C 
ATOM     17  F   UNL     1      11.806  11.582  20.513  0.00  0.00    +0.000 F 
ATOM     18  F   UNL     1      11.282  11.213  18.432  0.00  0.00    +0.000 F 
ENDBRANCH  15  16
BRANCH  15  19
ATOM     19  O   UNL     1       9.468  10.926  21.338  0.00  0.00    +0.000 OA
ATOM     20  H   UNL     1       9.128  11.647  21.899  0.00  0.00    +0.000 HD
ENDBRANCH  15  19
ENDBRANCH   8  15
ENDBRANCH   1  11
BRANCH   4  21
ATOM     21  C   UNL     1       3.336   5.323  18.280  0.00  0.00    +0.000 C 
ATOM     22  C   UNL     1       3.568   4.138  19.225  0.00  0.00    +0.000 C 
ATOM     23  O   UNL     1       2.473   3.989  20.136  0.00  0.00    +0.000 OA
ATOM     24  C   UNL     1       2.328   5.128  20.983  0.00  0.00    +0.000 C 
ATOM     25  C   UNL     1       1.972   6.341  20.140  0.00  0.00    +0.000 C 
ATOM     26  C   UNL     1       3.067   6.593  19.099  0.00  0.00    +0.000 C 
BRANCH  26  27
ATOM     27  C   UNL     1       2.667   7.750  18.199  0.00  0.00    +0.000 C 
ATOM     28  N   UNL     1       2.336   8.710  17.453  0.00  0.00    +0.000 NA
ENDBRANCH  26  27
ENDBRANCH   4  21
BRANCH   6  29
ATOM     29  C   UNL     1       6.756   4.813  14.674  0.00  0.00    +0.000 C 
ATOM     30  N   UNL     1       6.345   3.647  14.092  0.00  0.00    +0.000 N 
ATOM     31  O   UNL     1       7.723   5.427  14.233  0.00  0.00    +0.000 OA
ATOM     32  H   UNL     1       5.499   3.168  14.357  0.00  0.00    +0.000 HD
ATOM     33  H   UNL     1       6.834   3.336  13.266  0.00  0.00    +0.000 HD
ENDBRANCH   6  29
TORSDOF 7
ENDMDL
