MODEL 1
REMARK VINA RESULT:      -8.4      0.000      0.000
REMARK  Name = 
REMARK  9 active torsions:
REMARK  status: ('A' for Active; 'I' for Inactive)
REMARK    1  A    between atoms: C_1  and  C_2
REMARK    2  A    between atoms: C_2  and  C_3
REMARK    3  A    between atoms: C_2  and  N_4
REMARK    4  A    between atoms: C_2  and  C_5
REMARK    5  A    between atoms: C_5  and  C_6
REMARK    6  A    between atoms: C_6  and  C_7
REMARK    7  A    between atoms: C_12  and  C_13
REMARK    8  A    between atoms: C_13  and  C_15
REMARK    9  A    between atoms: N_19  and  C_20
REMARK                            x       y       z     vdW  Elec       q    Type
REMARK                         _______ _______ _______ _____ _____    ______ ____
ROOT
ATOM      1  C   UNL     1       0.761  10.951  19.109  0.00  0.00    +0.000 C 
ATOM      2  O   UNL     1       1.591  11.754  18.685  0.00  0.00    +0.000 OA
ENDROOT
BRANCH   1   3
ATOM      3  C   UNL     1       1.200   9.560  19.324  0.00  0.00    +0.000 A 
ATOM      4  C   UNL     1       1.060   8.868  20.525  0.00  0.00    +0.000 A 
ATOM      5  C   UNL     1       1.652   7.608  20.654  0.00  0.00    +0.000 A 
ATOM      6  C   UNL     1       2.342   7.061  19.574  0.00  0.00    +0.000 A 
ATOM      7  N   UNL     1       3.037   5.847  19.757  0.00  0.00    +0.000 N 
ATOM      8  N   UNL     1       2.395   7.690  18.380  0.00  0.00    +0.000 NA
ATOM      9  C   UNL     1       1.822   8.909  18.272  0.00  0.00    +0.000 A 
ATOM     10  H   UNL     1       2.397   5.110  20.038  0.00  0.00    +0.000 HD
BRANCH   7  11
ATOM     11  C   UNL     1       4.047   5.367  18.891  0.00  0.00    +0.000 A 
ATOM     12  C   UNL     1       5.408   5.510  19.206  0.00  0.00    +0.000 A 
ATOM     13  C   UNL     1       6.394   5.034  18.340  0.00  0.00    +0.000 A 
ATOM     14  C   UNL     1       6.019   4.402  17.160  0.00  0.00    +0.000 A 
ATOM     15  F   UNL     1       6.967   3.956  16.325  0.00  0.00    +0.000 F 
ATOM     16  C   UNL     1       4.682   4.223  16.834  0.00  0.00    +0.000 A 
ATOM     17  C   UNL     1       3.709   4.697  17.710  0.00  0.00    +0.000 A 
ATOM     18  F   UNL     1       2.415   4.526  17.398  0.00  0.00    +0.000 F 
ENDBRANCH   7  11
ENDBRANCH   1   3
BRANCH   1  24
ATOM     19  C   UNL     1      -2.093  12.585  20.935  0.00  0.00    +0.000 A 
ATOM     20  C   UNL     1      -3.160  12.427  20.048  0.00  0.00    +0.000 A 
ATOM     21  C   UNL     1      -2.982  11.725  18.855  0.00  0.00    +0.000 A 
ATOM     22  C   UNL     1      -1.734  11.181  18.527  0.00  0.00    +0.000 A 
ATOM     23 CL   UNL     1      -1.711  10.125  17.158  0.00  0.00    +0.000 Cl
ATOM     24  C   UNL     1      -0.628  11.422  19.355  0.00  0.00    +0.000 A 
ATOM     25  C   UNL     1      -0.830  12.101  20.569  0.00  0.00    +0.000 A 
BRANCH  19  26
ATOM     26  C   UNL     1      -2.319  13.184  22.303  0.00  0.00    +0.000 C 
BRANCH  26  27
ATOM     27  C   UNL     1      -3.089  12.257  23.253  0.00  0.00    +0.000 C 
BRANCH  27  29
ATOM     28  C   UNL     1      -5.500  13.020  22.922  0.00  0.00    +0.000 C 
ATOM     29  C   UNL     1      -4.331  12.904  23.910  0.00  0.00    +0.000 C 
ATOM     30  C   UNL     1      -3.960  14.306  24.418  0.00  0.00    +0.000 C 
BRANCH  29  31
ATOM     31  N   UNL     1      -4.769  12.093  25.052  0.00  0.00    +0.000 NA
ATOM     32  H   UNL     1      -5.344  12.654  25.680  0.00  0.00    +0.000 HD
ATOM     33  H   UNL     1      -3.961  11.797  25.601  0.00  0.00    +0.000 HD
ENDBRANCH  29  31
ENDBRANCH  27  29
ENDBRANCH  26  27
ENDBRANCH  19  26
ENDBRANCH   1  24
TORSDOF 7
ENDMDL
MODEL 2
REMARK VINA RESULT:      -8.2      2.952      3.282
REMARK  Name = 
REMARK  9 active torsions:
REMARK  status: ('A' for Active; 'I' for Inactive)
REMARK    1  A    between atoms: C_1  and  C_2
REMARK    2  A    between atoms: C_2  and  C_3
REMARK    3  A    between atoms: C_2  and  N_4
REMARK    4  A    between atoms: C_2  and  C_5
REMARK    5  A    between atoms: C_5  and  C_6
REMARK    6  A    between atoms: C_6  and  C_7
REMARK    7  A    between atoms: C_12  and  C_13
REMARK    8  A    between atoms: C_13  and  C_15
REMARK    9  A    between atoms: N_19  and  C_20
REMARK                            x       y       z     vdW  Elec       q    Type
REMARK                         _______ _______ _______ _____ _____    ______ ____
ROOT
ATOM      1  C   UNL     1       0.883   9.921  20.615  0.00  0.00    +0.000 C 
ATOM      2  O   UNL     1       1.176  10.377  21.720  0.00  0.00    +0.000 OA
ENDROOT
BRANCH   1   3
ATOM      3  C   UNL     1       1.318   8.547  20.302  0.00  0.00    +0.000 A 
ATOM      4  C   UNL     1       1.076   7.441  21.114  0.00  0.00    +0.000 A 
ATOM      5  C   UNL     1       1.669   6.218  20.788  0.00  0.00    +0.000 A 
ATOM      6  C   UNL     1       2.464   6.125  19.648  0.00  0.00    +0.000 A 
ATOM      7  N   UNL     1       3.154   4.920  19.400  0.00  0.00    +0.000 N 
ATOM      8  N   UNL     1       2.620   7.171  18.810  0.00  0.00    +0.000 NA
ATOM      9  C   UNL     1       2.044   8.348  19.140  0.00  0.00    +0.000 A 
ATOM     10  H   UNL     1       2.501   4.147  19.307  0.00  0.00    +0.000 HD
BRANCH   7  11
ATOM     11  C   UNL     1       4.247   4.795  18.510  0.00  0.00    +0.000 A 
ATOM     12  C   UNL     1       5.541   5.193  18.882  0.00  0.00    +0.000 A 
ATOM     13  C   UNL     1       6.609   5.067  17.991  0.00  0.00    +0.000 A 
ATOM     14  C   UNL     1       6.387   4.530  16.730  0.00  0.00    +0.000 A 
ATOM     15  F   UNL     1       7.411   4.420  15.873  0.00  0.00    +0.000 F 
ATOM     16  C   UNL     1       5.124   4.103  16.342  0.00  0.00    +0.000 A 
ATOM     17  C   UNL     1       4.069   4.228  17.242  0.00  0.00    +0.000 A 
ATOM     18  F   UNL     1       2.846   3.818  16.871  0.00  0.00    +0.000 F 
ENDBRANCH   7  11
ENDBRANCH   1   3
BRANCH   1  24
ATOM     19  C   UNL     1      -1.907  10.977  18.323  0.00  0.00    +0.000 A 
ATOM     20  C   UNL     1      -1.482  12.230  17.874  0.00  0.00    +0.000 A 
ATOM     21  C   UNL     1      -0.240  12.730  18.265  0.00  0.00    +0.000 A 
ATOM     22  C   UNL     1       0.590  11.992  19.118  0.00  0.00    +0.000 A 
ATOM     23 CL   UNL     1       2.196  12.602  19.317  0.00  0.00    +0.000 Cl
ATOM     24  C   UNL     1       0.134  10.783  19.663  0.00  0.00    +0.000 A 
ATOM     25  C   UNL     1      -1.105  10.275  19.233  0.00  0.00    +0.000 A 
BRANCH  19  26
ATOM     26  C   UNL     1      -3.164  10.351  17.767  0.00  0.00    +0.000 C 
BRANCH  26  27
ATOM     27  C   UNL     1      -4.089  11.361  17.074  0.00  0.00    +0.000 C 
BRANCH  27  29
ATOM     28  C   UNL     1      -6.049  10.660  18.549  0.00  0.00    +0.000 C 
ATOM     29  C   UNL     1      -5.277  11.840  17.942  0.00  0.00    +0.000 C 
ATOM     30  C   UNL     1      -6.232  12.674  17.074  0.00  0.00    +0.000 C 
BRANCH  29  31
ATOM     31  N   UNL     1      -4.783  12.683  19.038  0.00  0.00    +0.000 NA
ATOM     32  H   UNL     1      -4.120  13.371  18.679  0.00  0.00    +0.000 HD
ATOM     33  H   UNL     1      -4.263  12.115  19.707  0.00  0.00    +0.000 HD
ENDBRANCH  29  31
ENDBRANCH  27  29
ENDBRANCH  26  27
ENDBRANCH  19  26
ENDBRANCH   1  24
TORSDOF 7
ENDMDL
MODEL 3
REMARK VINA RESULT:      -8.0      3.138      3.569
REMARK  Name = 
REMARK  9 active torsions:
REMARK  status: ('A' for Active; 'I' for Inactive)
REMARK    1  A    between atoms: C_1  and  C_2
REMARK    2  A    between atoms: C_2  and  C_3
REMARK    3  A    between atoms: C_2  and  N_4
REMARK    4  A    between atoms: C_2  and  C_5
REMARK    5  A    between atoms: C_5  and  C_6
REMARK    6  A    between atoms: C_6  and  C_7
REMARK    7  A    between atoms: C_12  and  C_13
REMARK    8  A    between atoms: C_13  and  C_15
REMARK    9  A    between atoms: N_19  and  C_20
REMARK                            x       y       z     vdW  Elec       q    Type
REMARK                         _______ _______ _______ _____ _____    ______ ____
ROOT
ATOM      1  C   UNL     1       0.978   9.743  20.644  0.00  0.00    +0.000 C 
ATOM      2  O   UNL     1       1.232  10.122  21.786  0.00  0.00    +0.000 OA
ENDROOT
BRANCH   1   3
ATOM      3  C   UNL     1       1.418   8.391  20.255  0.00  0.00    +0.000 A 
ATOM      4  C   UNL     1       1.230   7.249  21.031  0.00  0.00    +0.000 A 
ATOM      5  C   UNL     1       1.825   6.050  20.628  0.00  0.00    +0.000 A 
ATOM      6  C   UNL     1       2.567   6.016  19.450  0.00  0.00    +0.000 A 
ATOM      7  N   UNL     1       3.263   4.833  19.121  0.00  0.00    +0.000 N 
ATOM      8  N   UNL     1       2.668   7.098  18.649  0.00  0.00    +0.000 NA
ATOM      9  C   UNL     1       2.091   8.251  19.053  0.00  0.00    +0.000 A 
ATOM     10  H   UNL     1       2.617   4.054  19.027  0.00  0.00    +0.000 HD
BRANCH   7  11
ATOM     11  C   UNL     1       4.315   4.762  18.178  0.00  0.00    +0.000 A 
ATOM     12  C   UNL     1       4.087   4.331  16.861  0.00  0.00    +0.000 A 
ATOM     13  C   UNL     1       5.136   4.263  15.942  0.00  0.00    +0.000 A 
ATOM     14  C   UNL     1       6.414   4.639  16.336  0.00  0.00    +0.000 A 
ATOM     15  F   UNL     1       7.422   4.562  15.456  0.00  0.00    +0.000 F 
ATOM     16  C   UNL     1       6.666   5.093  17.623  0.00  0.00    +0.000 A 
ATOM     17  C   UNL     1       5.610   5.162  18.527  0.00  0.00    +0.000 A 
ATOM     18  F   UNL     1       5.848   5.601  19.773  0.00  0.00    +0.000 F 
ENDBRANCH   7  11
ENDBRANCH   1   3
BRANCH   1  24
ATOM     19  C   UNL     1      -1.593  10.891  18.148  0.00  0.00    +0.000 A 
ATOM     20  C   UNL     1      -1.251  12.230  17.945  0.00  0.00    +0.000 A 
ATOM     21  C   UNL     1      -0.130  12.771  18.575  0.00  0.00    +0.000 A 
ATOM     22  C   UNL     1       0.659  11.986  19.426  0.00  0.00    +0.000 A 
ATOM     23 CL   UNL     1       2.151  12.696  19.936  0.00  0.00    +0.000 Cl
ATOM     24  C   UNL     1       0.269  10.673  19.725  0.00  0.00    +0.000 A 
ATOM     25  C   UNL     1      -0.842  10.131  19.055  0.00  0.00    +0.000 A 
BRANCH  19  26
ATOM     26  C   UNL     1      -2.694  10.251  17.336  0.00  0.00    +0.000 C 
BRANCH  26  27
ATOM     27  C   UNL     1      -3.998  10.065  18.122  0.00  0.00    +0.000 C 
BRANCH  27  29
ATOM     28  C   UNL     1      -6.415  10.849  18.346  0.00  0.00    +0.000 C 
ATOM     29  C   UNL     1      -4.969  11.266  18.042  0.00  0.00    +0.000 C 
ATOM     30  C   UNL     1      -4.907  11.873  16.632  0.00  0.00    +0.000 C 
BRANCH  29  31
ATOM     31  N   UNL     1      -4.571  12.294  19.012  0.00  0.00    +0.000 NA
ATOM     32  H   UNL     1      -4.785  11.982  19.960  0.00  0.00    +0.000 HD
ATOM     33  H   UNL     1      -5.118  13.142  18.866  0.00  0.00    +0.000 HD
ENDBRANCH  29  31
ENDBRANCH  27  29
ENDBRANCH  26  27
ENDBRANCH  19  26
ENDBRANCH   1  24
TORSDOF 7
ENDMDL
MODEL 4
REMARK VINA RESULT:      -8.0      4.259     10.067
REMARK  Name = 
REMARK  9 active torsions:
REMARK  status: ('A' for Active; 'I' for Inactive)
REMARK    1  A    between atoms: C_1  and  C_2
REMARK    2  A    between atoms: C_2  and  C_3
REMARK    3  A    between atoms: C_2  and  N_4
REMARK    4  A    between atoms: C_2  and  C_5
REMARK    5  A    between atoms: C_5  and  C_6
REMARK    6  A    between atoms: C_6  and  C_7
REMARK    7  A    between atoms: C_12  and  C_13
REMARK    8  A    between atoms: C_13  and  C_15
REMARK    9  A    between atoms: N_19  and  C_20
REMARK                            x       y       z     vdW  Elec       q    Type
REMARK                         _______ _______ _______ _____ _____    ______ ____
ROOT
ATOM      1  C   UNL     1       2.368   5.729  19.991  0.00  0.00    +0.000 C 
ATOM      2  O   UNL     1       2.470   5.581  21.209  0.00  0.00    +0.000 OA
ENDROOT
BRANCH   1   3
ATOM      3  C   UNL     1       1.976   7.061  19.493  0.00  0.00    +0.000 A 
ATOM      4  C   UNL     1       2.201   7.513  18.194  0.00  0.00    +0.000 A 
ATOM      5  C   UNL     1       1.924   8.847  17.883  0.00  0.00    +0.000 A 
ATOM      6  C   UNL     1       1.405   9.686  18.867  0.00  0.00    +0.000 A 
ATOM      7  N   UNL     1       1.246  11.057  18.574  0.00  0.00    +0.000 N 
ATOM      8  N   UNL     1       1.097   9.224  20.097  0.00  0.00    +0.000 NA
ATOM      9  C   UNL     1       1.374   7.933  20.385  0.00  0.00    +0.000 A 
ATOM     10  H   UNL     1       0.615  11.183  17.787  0.00  0.00    +0.000 HD
BRANCH   7  11
ATOM     11  C   UNL     1       1.077  12.067  19.550  0.00  0.00    +0.000 A 
ATOM     12  C   UNL     1       2.144  12.896  19.934  0.00  0.00    +0.000 A 
ATOM     13  C   UNL     1       1.962  13.887  20.902  0.00  0.00    +0.000 A 
ATOM     14  C   UNL     1       0.710  14.058  21.478  0.00  0.00    +0.000 A 
ATOM     15  F   UNL     1       0.541  15.002  22.414  0.00  0.00    +0.000 F 
ATOM     16  C   UNL     1      -0.369  13.272  21.100  0.00  0.00    +0.000 A 
ATOM     17  C   UNL     1      -0.177  12.292  20.129  0.00  0.00    +0.000 A 
ATOM     18  F   UNL     1      -1.218  11.528  19.761  0.00  0.00    +0.000 F 
ENDBRANCH   7  11
ENDBRANCH   1   3
BRANCH   1  24
ATOM     19  C   UNL     1       3.943   3.739  17.214  0.00  0.00    +0.000 A 
ATOM     20  C   UNL     1       3.300   2.503  17.317  0.00  0.00    +0.000 A 
ATOM     21  C   UNL     1       2.291   2.313  18.261  0.00  0.00    +0.000 A 
ATOM     22  C   UNL     1       1.916   3.351  19.122  0.00  0.00    +0.000 A 
ATOM     23 CL   UNL     1       0.490   3.072  20.061  0.00  0.00    +0.000 Cl
ATOM     24  C   UNL     1       2.622   4.563  19.105  0.00  0.00    +0.000 A 
ATOM     25  C   UNL     1       3.613   4.751  18.126  0.00  0.00    +0.000 A 
BRANCH  19  26
ATOM     26  C   UNL     1       4.907   4.009  16.084  0.00  0.00    +0.000 C 
BRANCH  26  27
ATOM     27  C   UNL     1       5.398   5.462  16.039  0.00  0.00    +0.000 C 
BRANCH  27  29
ATOM     28  C   UNL     1       7.453   4.498  17.203  0.00  0.00    +0.000 C 
ATOM     29  C   UNL     1       6.908   5.635  16.328  0.00  0.00    +0.000 C 
ATOM     30  C   UNL     1       7.134   6.975  17.046  0.00  0.00    +0.000 C 
BRANCH  29  31
ATOM     31  N   UNL     1       7.658   5.648  15.066  0.00  0.00    +0.000 NA
ATOM     32  H   UNL     1       8.012   6.586  14.879  0.00  0.00    +0.000 HD
ATOM     33  H   UNL     1       7.037   5.423  14.289  0.00  0.00    +0.000 HD
ENDBRANCH  29  31
ENDBRANCH  27  29
ENDBRANCH  26  27
ENDBRANCH  19  26
ENDBRANCH   1  24
TORSDOF 7
ENDMDL
MODEL 5
REMARK VINA RESULT:      -7.9      1.051      1.436
REMARK  Name = 
REMARK  9 active torsions:
REMARK  status: ('A' for Active; 'I' for Inactive)
REMARK    1  A    between atoms: C_1  and  C_2
REMARK    2  A    between atoms: C_2  and  C_3
REMARK    3  A    between atoms: C_2  and  N_4
REMARK    4  A    between atoms: C_2  and  C_5
REMARK    5  A    between atoms: C_5  and  C_6
REMARK    6  A    between atoms: C_6  and  C_7
REMARK    7  A    between atoms: C_12  and  C_13
REMARK    8  A    between atoms: C_13  and  C_15
REMARK    9  A    between atoms: N_19  and  C_20
REMARK                            x       y       z     vdW  Elec       q    Type
REMARK                         _______ _______ _______ _____ _____    ______ ____
ROOT
ATOM      1  C   UNL     1       0.935  10.810  18.970  0.00  0.00    +0.000 C 
ATOM      2  O   UNL     1       1.788  11.618  18.605  0.00  0.00    +0.000 OA
ENDROOT
BRANCH   1   3
ATOM      3  C   UNL     1       1.349   9.405  19.138  0.00  0.00    +0.000 A 
ATOM      4  C   UNL     1       1.290   8.706  20.343  0.00  0.00    +0.000 A 
ATOM      5  C   UNL     1       1.853   7.429  20.413  0.00  0.00    +0.000 A 
ATOM      6  C   UNL     1       2.433   6.872  19.275  0.00  0.00    +0.000 A 
ATOM      7  N   UNL     1       3.104   5.636  19.392  0.00  0.00    +0.000 N 
ATOM      8  N   UNL     1       2.403   7.509  18.085  0.00  0.00    +0.000 NA
ATOM      9  C   UNL     1       1.860   8.745  18.033  0.00  0.00    +0.000 A 
ATOM     10  H   UNL     1       2.468   4.915  19.721  0.00  0.00    +0.000 HD
BRANCH   7  11
ATOM     11  C   UNL     1       4.022   5.134  18.440  0.00  0.00    +0.000 A 
ATOM     12  C   UNL     1       3.586   4.573  17.229  0.00  0.00    +0.000 A 
ATOM     13  C   UNL     1       4.505   4.079  16.301  0.00  0.00    +0.000 A 
ATOM     14  C   UNL     1       5.865   4.156  16.578  0.00  0.00    +0.000 A 
ATOM     15  F   UNL     1       6.744   3.671  15.691  0.00  0.00    +0.000 F 
ATOM     16  C   UNL     1       6.327   4.728  17.755  0.00  0.00    +0.000 A 
ATOM     17  C   UNL     1       5.401   5.223  18.669  0.00  0.00    +0.000 A 
ATOM     18  F   UNL     1       5.844   5.776  19.809  0.00  0.00    +0.000 F 
ENDBRANCH   7  11
ENDBRANCH   1   3
BRANCH   1  24
ATOM     19  C   UNL     1      -1.912  12.554  20.703  0.00  0.00    +0.000 A 
ATOM     20  C   UNL     1      -2.986  12.329  19.838  0.00  0.00    +0.000 A 
ATOM     21  C   UNL     1      -2.814  11.547  18.696  0.00  0.00    +0.000 A 
ATOM     22  C   UNL     1      -1.566  10.987  18.395  0.00  0.00    +0.000 A 
ATOM     23 CL   UNL     1      -1.548   9.838  17.103  0.00  0.00    +0.000 Cl
ATOM     24  C   UNL     1      -0.454  11.290  19.194  0.00  0.00    +0.000 A 
ATOM     25  C   UNL     1      -0.650  12.051  20.360  0.00  0.00    +0.000 A 
BRANCH  19  26
ATOM     26  C   UNL     1      -2.129  13.247  22.028  0.00  0.00    +0.000 C 
BRANCH  26  27
ATOM     27  C   UNL     1      -2.846  12.368  23.061  0.00  0.00    +0.000 C 
BRANCH  27  29
ATOM     28  C   UNL     1      -4.264  14.432  23.546  0.00  0.00    +0.000 C 
ATOM     29  C   UNL     1      -4.232  12.898  23.499  0.00  0.00    +0.000 C 
ATOM     30  C   UNL     1      -4.567  12.344  24.893  0.00  0.00    +0.000 C 
BRANCH  29  31
ATOM     31  N   UNL     1      -5.260  12.442  22.555  0.00  0.00    +0.000 NA
ATOM     32  H   UNL     1      -5.068  11.483  22.265  0.00  0.00    +0.000 HD
ATOM     33  H   UNL     1      -5.225  13.004  21.704  0.00  0.00    +0.000 HD
ENDBRANCH  29  31
ENDBRANCH  27  29
ENDBRANCH  26  27
ENDBRANCH  19  26
ENDBRANCH   1  24
TORSDOF 7
ENDMDL
MODEL 6
REMARK VINA RESULT:      -7.8      4.227     10.351
REMARK  Name = 
REMARK  9 active torsions:
REMARK  status: ('A' for Active; 'I' for Inactive)
REMARK    1  A    between atoms: C_1  and  C_2
REMARK    2  A    between atoms: C_2  and  C_3
REMARK    3  A    between atoms: C_2  and  N_4
REMARK    4  A    between atoms: C_2  and  C_5
REMARK    5  A    between atoms: C_5  and  C_6
REMARK    6  A    between atoms: C_6  and  C_7
REMARK    7  A    between atoms: C_12  and  C_13
REMARK    8  A    between atoms: C_13  and  C_15
REMARK    9  A    between atoms: N_19  and  C_20
REMARK                            x       y       z     vdW  Elec       q    Type
REMARK                         _______ _______ _______ _____ _____    ______ ____
ROOT
ATOM      1  C   UNL     1       2.440   5.825  19.927  0.00  0.00    +0.000 C 
ATOM      2  O   UNL     1       2.209   5.538  21.101  0.00  0.00    +0.000 OA
ENDROOT
BRANCH   1   3
ATOM      3  C   UNL     1       2.017   7.155  19.450  0.00  0.00    +0.000 A 
ATOM      4  C   UNL     1       2.198   7.618  18.149  0.00  0.00    +0.000 A 
ATOM      5  C   UNL     1       1.895   8.951  17.856  0.00  0.00    +0.000 A 
ATOM      6  C   UNL     1       1.395   9.777  18.860  0.00  0.00    +0.000 A 
ATOM      7  N   UNL     1       1.210  11.148  18.582  0.00  0.00    +0.000 N 
ATOM      8  N   UNL     1       1.129   9.302  20.096  0.00  0.00    +0.000 NA
ATOM      9  C   UNL     1       1.431   8.013  20.366  0.00  0.00    +0.000 A 
ATOM     10  H   UNL     1       0.555  11.271  17.815  0.00  0.00    +0.000 HD
BRANCH   7  11
ATOM     11  C   UNL     1       1.059  12.149  19.570  0.00  0.00    +0.000 A 
ATOM     12  C   UNL     1       2.143  12.940  19.981  0.00  0.00    +0.000 A 
ATOM     13  C   UNL     1       1.978  13.922  20.960  0.00  0.00    +0.000 A 
ATOM     14  C   UNL     1       0.724  14.123  21.521  0.00  0.00    +0.000 A 
ATOM     15  F   UNL     1       0.570  15.059  22.468  0.00  0.00    +0.000 F 
ATOM     16  C   UNL     1      -0.373  13.375  21.117  0.00  0.00    +0.000 A 
ATOM     17  C   UNL     1      -0.196  12.403  20.136  0.00  0.00    +0.000 A 
ATOM     18  F   UNL     1      -1.254  11.676  19.743  0.00  0.00    +0.000 F 
ENDBRANCH   7  11
ENDBRANCH   1   3
BRANCH   1  24
ATOM     19  C   UNL     1       5.165   4.254  17.864  0.00  0.00    +0.000 A 
ATOM     20  C   UNL     1       4.583   3.056  17.442  0.00  0.00    +0.000 A 
ATOM     21  C   UNL     1       3.260   2.765  17.774  0.00  0.00    +0.000 A 
ATOM     22  C   UNL     1       2.503   3.660  18.540  0.00  0.00    +0.000 A 
ATOM     23 CL   UNL     1       0.815   3.304  18.662  0.00  0.00    +0.000 Cl
ATOM     24  C   UNL     1       3.103   4.815  19.061  0.00  0.00    +0.000 A 
ATOM     25  C   UNL     1       4.426   5.112  18.690  0.00  0.00    +0.000 A 
BRANCH  19  26
ATOM     26  C   UNL     1       6.532   4.659  17.363  0.00  0.00    +0.000 C 
BRANCH  26  27
ATOM     27  C   UNL     1       6.915   3.988  16.037  0.00  0.00    +0.000 C 
BRANCH  27  29
ATOM     28  C   UNL     1       5.492   5.872  15.072  0.00  0.00    +0.000 C 
ATOM     29  C   UNL     1       6.567   4.817  14.778  0.00  0.00    +0.000 C 
ATOM     30  C   UNL     1       6.057   3.873  13.678  0.00  0.00    +0.000 C 
BRANCH  29  31
ATOM     31  N   UNL     1       7.768   5.504  14.287  0.00  0.00    +0.000 NA
ATOM     32  H   UNL     1       8.339   4.860  13.739  0.00  0.00    +0.000 HD
ATOM     33  H   UNL     1       8.349   5.795  15.073  0.00  0.00    +0.000 HD
ENDBRANCH  29  31
ENDBRANCH  27  29
ENDBRANCH  26  27
ENDBRANCH  19  26
ENDBRANCH   1  24
TORSDOF 7
ENDMDL
MODEL 7
REMARK VINA RESULT:      -7.8      4.518     11.068
REMARK  Name = 
REMARK  9 active torsions:
REMARK  status: ('A' for Active; 'I' for Inactive)
REMARK    1  A    between atoms: C_1  and  C_2
REMARK    2  A    between atoms: C_2  and  C_3
REMARK    3  A    between atoms: C_2  and  N_4
REMARK    4  A    between atoms: C_2  and  C_5
REMARK    5  A    between atoms: C_5  and  C_6
REMARK    6  A    between atoms: C_6  and  C_7
REMARK    7  A    between atoms: C_12  and  C_13
REMARK    8  A    between atoms: C_13  and  C_15
REMARK    9  A    between atoms: N_19  and  C_20
REMARK                            x       y       z     vdW  Elec       q    Type
REMARK                         _______ _______ _______ _____ _____    ______ ____
ROOT
ATOM      1  C   UNL     1       3.337   5.007  17.797  0.00  0.00    +0.000 C 
ATOM      2  O   UNL     1       2.560   4.135  17.408  0.00  0.00    +0.000 OA
ENDROOT
BRANCH   1   3
ATOM      3  C   UNL     1       2.792   6.082  18.647  0.00  0.00    +0.000 A 
ATOM      4  C   UNL     1       2.267   5.886  19.923  0.00  0.00    +0.000 A 
ATOM      5  C   UNL     1       1.641   6.955  20.569  0.00  0.00    +0.000 A 
ATOM      6  C   UNL     1       1.578   8.196  19.939  0.00  0.00    +0.000 A 
ATOM      7  N   UNL     1       0.838   9.230  20.548  0.00  0.00    +0.000 N 
ATOM      8  N   UNL     1       2.171   8.410  18.745  0.00  0.00    +0.000 NA
ATOM      9  C   UNL     1       2.770   7.366  18.130  0.00  0.00    +0.000 A 
ATOM     10  H   UNL     1       1.211   9.441  21.469  0.00  0.00    +0.000 HD
BRANCH   7  11
ATOM     11  C   UNL     1       0.395  10.395  19.879  0.00  0.00    +0.000 A 
ATOM     12  C   UNL     1      -0.648  10.347  18.940  0.00  0.00    +0.000 A 
ATOM     13  C   UNL     1      -1.072  11.505  18.286  0.00  0.00    +0.000 A 
ATOM     14  C   UNL     1      -0.461  12.718  18.579  0.00  0.00    +0.000 A 
ATOM     15  F   UNL     1      -0.861  13.826  17.941  0.00  0.00    +0.000 F 
ATOM     16  C   UNL     1       0.555  12.802  19.521  0.00  0.00    +0.000 A 
ATOM     17  C   UNL     1       0.963  11.641  20.171  0.00  0.00    +0.000 A 
ATOM     18  F   UNL     1       1.946  11.717  21.083  0.00  0.00    +0.000 F 
ENDBRANCH   7  11
ENDBRANCH   1   3
BRANCH   1  24
ATOM     19  C   UNL     1       6.263   4.719  15.450  0.00  0.00    +0.000 A 
ATOM     20  C   UNL     1       7.360   4.803  16.311  0.00  0.00    +0.000 A 
ATOM     21  C   UNL     1       7.164   4.894  17.689  0.00  0.00    +0.000 A 
ATOM     22  C   UNL     1       5.871   4.913  18.227  0.00  0.00    +0.000 A 
ATOM     23 CL   UNL     1       5.769   4.770  19.947  0.00  0.00    +0.000 Cl
ATOM     24  C   UNL     1       4.760   4.938  17.371  0.00  0.00    +0.000 A 
ATOM     25  C   UNL     1       4.972   4.810  15.987  0.00  0.00    +0.000 A 
BRANCH  19  26
ATOM     26  C   UNL     1       6.465   4.441  13.979  0.00  0.00    +0.000 C 
BRANCH  26  27
ATOM     27  C   UNL     1       5.581   3.304  13.450  0.00  0.00    +0.000 C 
BRANCH  27  29
ATOM     28  C   UNL     1       6.880   3.847  11.323  0.00  0.00    +0.000 C 
ATOM     29  C   UNL     1       5.738   3.025  11.936  0.00  0.00    +0.000 C 
ATOM     30  C   UNL     1       4.424   3.375  11.220  0.00  0.00    +0.000 C 
BRANCH  29  31
ATOM     31  N   UNL     1       6.024   1.601  11.720  0.00  0.00    +0.000 NA
ATOM     32  H   UNL     1       7.023   1.465  11.565  0.00  0.00    +0.000 HD
ATOM     33  H   UNL     1       5.562   1.278  10.869  0.00  0.00    +0.000 HD
ENDBRANCH  29  31
ENDBRANCH  27  29
ENDBRANCH  26  27
ENDBRANCH  19  26
ENDBRANCH   1  24
TORSDOF 7
ENDMDL
MODEL 8
REMARK VINA RESULT:      -7.8      2.939      3.681
REMARK  Name = 
REMARK  9 active torsions:
REMARK  status: ('A' for Active; 'I' for Inactive)
REMARK    1  A    between atoms: C_1  and  C_2
REMARK    2  A    between atoms: C_2  and  C_3
REMARK    3  A    between atoms: C_2  and  N_4
REMARK    4  A    between atoms: C_2  and  C_5
REMARK    5  A    between atoms: C_5  and  C_6
REMARK    6  A    between atoms: C_6  and  C_7
REMARK    7  A    between atoms: C_12  and  C_13
REMARK    8  A    between atoms: C_13  and  C_15
REMARK    9  A    between atoms: N_19  and  C_20
REMARK                            x       y       z     vdW  Elec       q    Type
REMARK                         _______ _______ _______ _____ _____    ______ ____
ROOT
ATOM      1  C   UNL     1       0.562   9.752  20.472  0.00  0.00    +0.000 C 
ATOM      2  O   UNL     1       0.436   9.497  21.670  0.00  0.00    +0.000 OA
ENDROOT
BRANCH   1   3
ATOM      3  C   UNL     1       1.458   8.890  19.678  0.00  0.00    +0.000 A 
ATOM      4  C   UNL     1       1.927   9.205  18.405  0.00  0.00    +0.000 A 
ATOM      5  C   UNL     1       2.645   8.242  17.690  0.00  0.00    +0.000 A 
ATOM      6  C   UNL     1       2.898   7.002  18.274  0.00  0.00    +0.000 A 
ATOM      7  N   UNL     1       3.515   5.999  17.496  0.00  0.00    +0.000 N 
ATOM      8  N   UNL     1       2.527   6.733  19.543  0.00  0.00    +0.000 NA
ATOM      9  C   UNL     1       1.830   7.671  20.221  0.00  0.00    +0.000 A 
ATOM     10  H   UNL     1       4.427   6.309  17.173  0.00  0.00    +0.000 HD
BRANCH   7  11
ATOM     11  C   UNL     1       3.511   4.623  17.821  0.00  0.00    +0.000 A 
ATOM     12  C   UNL     1       4.646   3.996  18.359  0.00  0.00    +0.000 A 
ATOM     13  C   UNL     1       4.627   2.635  18.671  0.00  0.00    +0.000 A 
ATOM     14  C   UNL     1       3.468   1.900  18.457  0.00  0.00    +0.000 A 
ATOM     15  F   UNL     1       3.456   0.592  18.747  0.00  0.00    +0.000 F 
ATOM     16  C   UNL     1       2.322   2.497  17.950  0.00  0.00    +0.000 A 
ATOM     17  C   UNL     1       2.352   3.856  17.649  0.00  0.00    +0.000 A 
ATOM     18  F   UNL     1       1.246   4.438  17.158  0.00  0.00    +0.000 F 
ENDBRANCH   7  11
ENDBRANCH   1   3
BRANCH   1  24
ATOM     19  C   UNL     1      -2.018  11.601  18.455  0.00  0.00    +0.000 A 
ATOM     20  C   UNL     1      -1.726  12.939  18.730  0.00  0.00    +0.000 A 
ATOM     21  C   UNL     1      -0.636  13.267  19.536  0.00  0.00    +0.000 A 
ATOM     22  C   UNL     1       0.171  12.264  20.087  0.00  0.00    +0.000 A 
ATOM     23 CL   UNL     1       1.627  12.804  20.848  0.00  0.00    +0.000 Cl
ATOM     24  C   UNL     1      -0.170  10.916  19.909  0.00  0.00    +0.000 A 
ATOM     25  C   UNL     1      -1.250  10.601  19.066  0.00  0.00    +0.000 A 
BRANCH  19  26
ATOM     26  C   UNL     1      -3.082  11.243  17.444  0.00  0.00    +0.000 C 
BRANCH  26  27
ATOM     27  C   UNL     1      -4.336  10.625  18.077  0.00  0.00    +0.000 C 
BRANCH  27  29
ATOM     28  C   UNL     1      -5.271  12.332  19.725  0.00  0.00    +0.000 C 
ATOM     29  C   UNL     1      -5.468  11.638  18.370  0.00  0.00    +0.000 C 
ATOM     30  C   UNL     1      -6.817  10.900  18.375  0.00  0.00    +0.000 C 
BRANCH  29  31
ATOM     31  N   UNL     1      -5.500  12.666  17.323  0.00  0.00    +0.000 NA
ATOM     32  H   UNL     1      -6.190  12.420  16.612  0.00  0.00    +0.000 HD
ATOM     33  H   UNL     1      -4.602  12.701  16.842  0.00  0.00    +0.000 HD
ENDBRANCH  29  31
ENDBRANCH  27  29
ENDBRANCH  26  27
ENDBRANCH  19  26
ENDBRANCH   1  24
TORSDOF 7
ENDMDL
MODEL 9
REMARK VINA RESULT:      -7.7      4.385     10.148
REMARK  Name = 
REMARK  9 active torsions:
REMARK  status: ('A' for Active; 'I' for Inactive)
REMARK    1  A    between atoms: C_1  and  C_2
REMARK    2  A    between atoms: C_2  and  C_3
REMARK    3  A    between atoms: C_2  and  N_4
REMARK    4  A    between atoms: C_2  and  C_5
REMARK    5  A    between atoms: C_5  and  C_6
REMARK    6  A    between atoms: C_6  and  C_7
REMARK    7  A    between atoms: C_12  and  C_13
REMARK    8  A    between atoms: C_13  and  C_15
REMARK    9  A    between atoms: N_19  and  C_20
REMARK                            x       y       z     vdW  Elec       q    Type
REMARK                         _______ _______ _______ _____ _____    ______ ____
ROOT
ATOM      1  C   UNL     1       2.137   6.211  20.180  0.00  0.00    +0.000 C 
ATOM      2  O   UNL     1       1.514   6.018  21.223  0.00  0.00    +0.000 OA
ENDROOT
BRANCH   1   3
ATOM      3  C   UNL     1       1.903   7.480  19.466  0.00  0.00    +0.000 A 
ATOM      4  C   UNL     1       2.258   7.713  18.139  0.00  0.00    +0.000 A 
ATOM      5  C   UNL     1       2.125   9.004  17.619  0.00  0.00    +0.000 A 
ATOM      6  C   UNL     1       1.617  10.019  18.426  0.00  0.00    +0.000 A 
ATOM      7  N   UNL     1       1.604  11.339  17.928  0.00  0.00    +0.000 N 
ATOM      8  N   UNL     1       1.184   9.772  19.680  0.00  0.00    +0.000 NA
ATOM      9  C   UNL     1       1.322   8.521  20.171  0.00  0.00    +0.000 A 
ATOM     10  H   UNL     1       1.044  11.395  17.082  0.00  0.00    +0.000 HD
BRANCH   7  11
ATOM     11  C   UNL     1       1.460  12.494  18.732  0.00  0.00    +0.000 A 
ATOM     12  C   UNL     1       0.295  12.721  19.483  0.00  0.00    +0.000 A 
ATOM     13  C   UNL     1       0.167  13.868  20.269  0.00  0.00    +0.000 A 
ATOM     14  C   UNL     1       1.211  14.785  20.316  0.00  0.00    +0.000 A 
ATOM     15  F   UNL     1       1.081  15.889  21.062  0.00  0.00    +0.000 F 
ATOM     16  C   UNL     1       2.384  14.575  19.605  0.00  0.00    +0.000 A 
ATOM     17  C   UNL     1       2.502  13.424  18.830  0.00  0.00    +0.000 A 
ATOM     18  F   UNL     1       3.635  13.218  18.141  0.00  0.00    +0.000 F 
ENDBRANCH   7  11
ENDBRANCH   1   3
BRANCH   1  24
ATOM     19  C   UNL     1       5.335   4.696  18.904  0.00  0.00    +0.000 A 
ATOM     20  C   UNL     1       5.007   3.344  18.773  0.00  0.00    +0.000 A 
ATOM     21  C   UNL     1       3.709   2.909  19.041  0.00  0.00    +0.000 A 
ATOM     22  C   UNL     1       2.724   3.814  19.454  0.00  0.00    +0.000 A 
ATOM     23 CL   UNL     1       1.109   3.197  19.504  0.00  0.00    +0.000 Cl
ATOM     24  C   UNL     1       3.063   5.154  19.694  0.00  0.00    +0.000 A 
ATOM     25  C   UNL     1       4.365   5.584  19.387  0.00  0.00    +0.000 A 
BRANCH  19  26
ATOM     26  C   UNL     1       6.683   5.204  18.447  0.00  0.00    +0.000 C 
BRANCH  26  27
ATOM     27  C   UNL     1       7.196   4.506  17.180  0.00  0.00    +0.000 C 
BRANCH  27  29
ATOM     28  C   UNL     1       5.725   6.292  16.107  0.00  0.00    +0.000 C 
ATOM     29  C   UNL     1       6.597   5.052  15.863  0.00  0.00    +0.000 C 
ATOM     30  C   UNL     1       5.741   3.957  15.206  0.00  0.00    +0.000 C 
BRANCH  29  31
ATOM     31  N   UNL     1       7.677   5.420  14.940  0.00  0.00    +0.000 NA
ATOM     32  H   UNL     1       8.576   5.116  15.314  0.00  0.00    +0.000 HD
ATOM     33  H   UNL     1       7.736   6.436  14.859  0.00  0.00    +0.000 HD
ENDBRANCH  29  31
ENDBRANCH  27  29
ENDBRANCH  26  27
ENDBRANCH  19  26
ENDBRANCH   1  24
TORSDOF 7
ENDMDL
