MODEL 1
REMARK VINA RESULT:      -8.5      0.000      0.000
REMARK  Name = 
REMARK  5 active torsions:
REMARK  status: ('A' for Active; 'I' for Inactive)
REMARK    1  A    between atoms: C_7  and  C_8
REMARK    2  A    between atoms: C_11  and  O_12
REMARK    3  A    between atoms: O_12  and  C_13
REMARK    4  A    between atoms: C_13  and  C_14
REMARK    5  A    between atoms: C_17  and  N_18
REMARK                            x       y       z     vdW  Elec       q    Type
REMARK                         _______ _______ _______ _____ _____    ______ ____
ROOT
ATOM      1  C   UNL     1       1.510   9.205  19.094  0.00  0.00    +0.000 A 
ATOM      2  C   UNL     1       2.072   8.647  17.941  0.00  0.00    +0.000 A 
ATOM      3  C   UNL     1       2.562   7.341  17.955  0.00  0.00    +0.000 A 
ATOM      4  C   UNL     1       2.523   6.585  19.129  0.00  0.00    +0.000 A 
ATOM      5  C   UNL     1       1.904   7.109  20.264  0.00  0.00    +0.000 A 
ATOM      6  C   UNL     1       1.403   8.414  20.249  0.00  0.00    +0.000 A 
ATOM      7 CL   UNL     1       0.671   9.021  21.695  0.00  0.00    +0.000 Cl
ENDROOT
BRANCH   1  14
ATOM      8  O   UNL     1      -3.420  11.479  17.021  0.00  0.00    +0.000 OA
ATOM      9  C   UNL     1      -2.327  11.508  17.561  0.00  0.00    +0.000 C 
ATOM     10  N   UNL     1      -1.655  12.628  17.934  0.00  0.00    +0.000 N 
ATOM     11  C   UNL     1      -0.434  12.478  18.519  0.00  0.00    +0.000 C 
ATOM     12  O   UNL     1       0.263  13.395  18.924  0.00  0.00    +0.000 OA
ATOM     13  C   UNL     1      -0.085  11.036  18.591  0.00  0.00    +0.000 C 
ATOM     14  C   UNL     1       1.100  10.613  19.051  0.00  0.00    +0.000 C 
ATOM     15  S   UNL     1      -1.388  10.090  17.972  0.00  0.00    +0.000 S 
ATOM     16  H   UNL     1      -2.048  13.542  17.778  0.00  0.00    +0.000 HD
ENDBRANCH   1  14
BRANCH   4  17
ATOM     17  O   UNL     1       3.071   5.337  19.269  0.00  0.00    +0.000 OA
BRANCH  17  18
ATOM     18  C   UNL     1       4.492   5.321  19.415  0.00  0.00    +0.000 C 
BRANCH  18  19
ATOM     19  C   UNL     1       5.140   5.217  18.058  0.00  0.00    +0.000 A 
ATOM     20  C   UNL     1       6.257   5.999  17.737  0.00  0.00    +0.000 A 
ATOM     21  C   UNL     1       6.870   5.876  16.488  0.00  0.00    +0.000 A 
ATOM     22  C   UNL     1       6.356   4.969  15.552  0.00  0.00    +0.000 A 
ATOM     23  C   UNL     1       5.233   4.189  15.856  0.00  0.00    +0.000 A 
ATOM     24  C   UNL     1       4.626   4.320  17.107  0.00  0.00    +0.000 A 
BRANCH  22  25
ATOM     25  N   UNL     1       6.999   4.834  14.240  0.00  0.00    +0.000 N 
ATOM     26  O   UNL     1       6.530   4.001  13.452  0.00  0.00    +0.000 OA
ATOM     27  O   UNL     1       7.973   5.561  13.998  0.00  0.00    +0.000 OA
ENDBRANCH  22  25
ENDBRANCH  18  19
ENDBRANCH  17  18
ENDBRANCH   4  17
TORSDOF 5
ENDMDL
MODEL 2
REMARK VINA RESULT:      -8.2      1.311      1.759
REMARK  Name = 
REMARK  5 active torsions:
REMARK  status: ('A' for Active; 'I' for Inactive)
REMARK    1  A    between atoms: C_7  and  C_8
REMARK    2  A    between atoms: C_11  and  O_12
REMARK    3  A    between atoms: O_12  and  C_13
REMARK    4  A    between atoms: C_13  and  C_14
REMARK    5  A    between atoms: C_17  and  N_18
REMARK                            x       y       z     vdW  Elec       q    Type
REMARK                         _______ _______ _______ _____ _____    ______ ____
ROOT
ATOM      1  C   UNL     1       0.358   9.782  19.736  0.00  0.00    +0.000 A 
ATOM      2  C   UNL     1       0.993   9.618  18.501  0.00  0.00    +0.000 A 
ATOM      3  C   UNL     1       1.913   8.586  18.312  0.00  0.00    +0.000 A 
ATOM      4  C   UNL     1       2.232   7.723  19.363  0.00  0.00    +0.000 A 
ATOM      5  C   UNL     1       1.554   7.838  20.577  0.00  0.00    +0.000 A 
ATOM      6  C   UNL     1       0.624   8.864  20.765  0.00  0.00    +0.000 A 
ATOM      7 CL   UNL     1      -0.166   8.975  22.300  0.00  0.00    +0.000 Cl
ENDROOT
BRANCH   1  14
ATOM      8  O   UNL     1      -4.457  11.138  16.777  0.00  0.00    +0.000 OA
ATOM      9  C   UNL     1      -3.607  11.286  17.638  0.00  0.00    +0.000 C 
ATOM     10  N   UNL     1      -3.503  12.349  18.478  0.00  0.00    +0.000 N 
ATOM     11  C   UNL     1      -2.481  12.359  19.378  0.00  0.00    +0.000 C 
ATOM     12  O   UNL     1      -2.286  13.235  20.205  0.00  0.00    +0.000 OA
ATOM     13  C   UNL     1      -1.646  11.143  19.202  0.00  0.00    +0.000 C 
ATOM     14  C   UNL     1      -0.526  10.940  19.910  0.00  0.00    +0.000 C 
ATOM     15  S   UNL     1      -2.326  10.141  17.973  0.00  0.00    +0.000 S 
ATOM     16  H   UNL     1      -4.162  13.109  18.432  0.00  0.00    +0.000 HD
ENDBRANCH   1  14
BRANCH   4  17
ATOM     17  O   UNL     1       3.195   6.750  19.305  0.00  0.00    +0.000 OA
BRANCH  17  18
ATOM     18  C   UNL     1       2.835   5.598  18.541  0.00  0.00    +0.000 C 
BRANCH  18  19
ATOM     19  C   UNL     1       3.873   5.353  17.475  0.00  0.00    +0.000 A 
ATOM     20  C   UNL     1       4.189   4.049  17.072  0.00  0.00    +0.000 A 
ATOM     21  C   UNL     1       5.130   3.831  16.063  0.00  0.00    +0.000 A 
ATOM     22  C   UNL     1       5.764   4.925  15.460  0.00  0.00    +0.000 A 
ATOM     23  C   UNL     1       5.464   6.233  15.861  0.00  0.00    +0.000 A 
ATOM     24  C   UNL     1       4.523   6.441  16.871  0.00  0.00    +0.000 A 
BRANCH  22  25
ATOM     25  N   UNL     1       6.750   4.701  14.397  0.00  0.00    +0.000 N 
ATOM     26  O   UNL     1       7.799   5.359  14.435  0.00  0.00    +0.000 OA
ATOM     27  O   UNL     1       6.477   3.864  13.525  0.00  0.00    +0.000 OA
ENDBRANCH  22  25
ENDBRANCH  18  19
ENDBRANCH  17  18
ENDBRANCH   4  17
TORSDOF 5
ENDMDL
MODEL 3
REMARK VINA RESULT:      -7.9      1.110      1.348
REMARK  Name = 
REMARK  5 active torsions:
REMARK  status: ('A' for Active; 'I' for Inactive)
REMARK    1  A    between atoms: C_7  and  C_8
REMARK    2  A    between atoms: C_11  and  O_12
REMARK    3  A    between atoms: O_12  and  C_13
REMARK    4  A    between atoms: C_13  and  C_14
REMARK    5  A    between atoms: C_17  and  N_18
REMARK                            x       y       z     vdW  Elec       q    Type
REMARK                         _______ _______ _______ _____ _____    ______ ____
ROOT
ATOM      1  C   UNL     1       1.179   9.371  19.553  0.00  0.00    +0.000 A 
ATOM      2  C   UNL     1       1.919   8.643  18.617  0.00  0.00    +0.000 A 
ATOM      3  C   UNL     1       2.362   7.354  18.916  0.00  0.00    +0.000 A 
ATOM      4  C   UNL     1       2.097   6.788  20.165  0.00  0.00    +0.000 A 
ATOM      5  C   UNL     1       1.303   7.481  21.079  0.00  0.00    +0.000 A 
ATOM      6  C   UNL     1       0.848   8.768  20.778  0.00  0.00    +0.000 A 
ATOM      7 CL   UNL     1      -0.109   9.591  21.961  0.00  0.00    +0.000 Cl
ENDROOT
BRANCH   1  14
ATOM      8  O   UNL     1      -3.394  11.315  16.538  0.00  0.00    +0.000 OA
ATOM      9  C   UNL     1      -2.373  11.423  17.196  0.00  0.00    +0.000 C 
ATOM     10  N   UNL     1      -1.715  12.583  17.456  0.00  0.00    +0.000 N 
ATOM     11  C   UNL     1      -0.577  12.521  18.204  0.00  0.00    +0.000 C 
ATOM     12  O   UNL     1       0.095  13.485  18.532  0.00  0.00    +0.000 OA
ATOM     13  C   UNL     1      -0.286  11.108  18.558  0.00  0.00    +0.000 C 
ATOM     14  C   UNL     1       0.822  10.756  19.226  0.00  0.00    +0.000 C 
ATOM     15  S   UNL     1      -1.535  10.085  17.951  0.00  0.00    +0.000 S 
ATOM     16  H   UNL     1      -2.057  13.461  17.102  0.00  0.00    +0.000 HD
ENDBRANCH   1  14
BRANCH   4  17
ATOM     17  O   UNL     1       2.576   5.576  20.587  0.00  0.00    +0.000 OA
BRANCH  17  18
ATOM     18  C   UNL     1       2.388   4.504  19.662  0.00  0.00    +0.000 C 
BRANCH  18  19
ATOM     19  C   UNL     1       3.552   4.452  18.704  0.00  0.00    +0.000 A 
ATOM     20  C   UNL     1       4.862   4.648  19.159  0.00  0.00    +0.000 A 
ATOM     21  C   UNL     1       5.937   4.569  18.272  0.00  0.00    +0.000 A 
ATOM     22  C   UNL     1       5.698   4.301  16.918  0.00  0.00    +0.000 A 
ATOM     23  C   UNL     1       4.392   4.114  16.448  0.00  0.00    +0.000 A 
ATOM     24  C   UNL     1       3.323   4.196  17.342  0.00  0.00    +0.000 A 
BRANCH  22  25
ATOM     25  N   UNL     1       6.825   4.213  15.983  0.00  0.00    +0.000 N 
ATOM     26  O   UNL     1       6.582   3.869  14.817  0.00  0.00    +0.000 OA
ATOM     27  O   UNL     1       7.953   4.491  16.412  0.00  0.00    +0.000 OA
ENDBRANCH  22  25
ENDBRANCH  18  19
ENDBRANCH  17  18
ENDBRANCH   4  17
TORSDOF 5
ENDMDL
MODEL 4
REMARK VINA RESULT:      -7.8      1.636      2.151
REMARK  Name = 
REMARK  5 active torsions:
REMARK  status: ('A' for Active; 'I' for Inactive)
REMARK    1  A    between atoms: C_7  and  C_8
REMARK    2  A    between atoms: C_11  and  O_12
REMARK    3  A    between atoms: O_12  and  C_13
REMARK    4  A    between atoms: C_13  and  C_14
REMARK    5  A    between atoms: C_17  and  N_18
REMARK                            x       y       z     vdW  Elec       q    Type
REMARK                         _______ _______ _______ _____ _____    ______ ____
ROOT
ATOM      1  C   UNL     1       0.568   9.503  20.132  0.00  0.00    +0.000 A 
ATOM      2  C   UNL     1       0.218   8.710  21.230  0.00  0.00    +0.000 A 
ATOM      3  C   UNL     1       0.802   7.457  21.411  0.00  0.00    +0.000 A 
ATOM      4  C   UNL     1       1.724   6.967  20.483  0.00  0.00    +0.000 A 
ATOM      5  C   UNL     1       2.130   7.778  19.423  0.00  0.00    +0.000 A 
ATOM      6  C   UNL     1       1.553   9.039  19.245  0.00  0.00    +0.000 A 
ATOM      7 CL   UNL     1       2.075   9.990  17.897  0.00  0.00    +0.000 Cl
ENDROOT
BRANCH   1  14
ATOM      8  O   UNL     1      -3.267  10.892  15.992  0.00  0.00    +0.000 OA
ATOM      9  C   UNL     1      -2.601  11.084  16.996  0.00  0.00    +0.000 C 
ATOM     10  N   UNL     1      -2.515  12.254  17.681  0.00  0.00    +0.000 N 
ATOM     11  C   UNL     1      -1.712  12.295  18.781  0.00  0.00    +0.000 C 
ATOM     12  O   UNL     1      -1.563  13.270  19.500  0.00  0.00    +0.000 OA
ATOM     13  C   UNL     1      -1.052  10.978  18.971  0.00  0.00    +0.000 C 
ATOM     14  C   UNL     1      -0.147  10.768  19.937  0.00  0.00    +0.000 C 
ATOM     15  S   UNL     1      -1.606   9.870  17.770  0.00  0.00    +0.000 S 
ATOM     16  H   UNL     1      -3.028  13.066  17.381  0.00  0.00    +0.000 HD
ENDBRANCH   1  14
BRANCH   4  17
ATOM     17  O   UNL     1       2.272   5.711  20.519  0.00  0.00    +0.000 OA
BRANCH  17  18
ATOM     18  C   UNL     1       2.172   4.981  19.295  0.00  0.00    +0.000 C 
BRANCH  18  19
ATOM     19  C   UNL     1       3.517   4.950  18.613  0.00  0.00    +0.000 A 
ATOM     20  C   UNL     1       4.698   5.079  19.355  0.00  0.00    +0.000 A 
ATOM     21  C   UNL     1       5.940   5.020  18.720  0.00  0.00    +0.000 A 
ATOM     22  C   UNL     1       6.000   4.839  17.332  0.00  0.00    +0.000 A 
ATOM     23  C   UNL     1       4.826   4.719  16.578  0.00  0.00    +0.000 A 
ATOM     24  C   UNL     1       3.589   4.781  17.221  0.00  0.00    +0.000 A 
BRANCH  22  25
ATOM     25  N   UNL     1       7.304   4.772  16.662  0.00  0.00    +0.000 N 
ATOM     26  O   UNL     1       7.417   5.335  15.564  0.00  0.00    +0.000 OA
ATOM     27  O   UNL     1       8.215   4.159  17.235  0.00  0.00    +0.000 OA
ENDBRANCH  22  25
ENDBRANCH  18  19
ENDBRANCH  17  18
ENDBRANCH   4  17
TORSDOF 5
ENDMDL
MODEL 5
REMARK VINA RESULT:      -7.8      1.199      1.645
REMARK  Name = 
REMARK  5 active torsions:
REMARK  status: ('A' for Active; 'I' for Inactive)
REMARK    1  A    between atoms: C_7  and  C_8
REMARK    2  A    between atoms: C_11  and  O_12
REMARK    3  A    between atoms: O_12  and  C_13
REMARK    4  A    between atoms: C_13  and  C_14
REMARK    5  A    between atoms: C_17  and  N_18
REMARK                            x       y       z     vdW  Elec       q    Type
REMARK                         _______ _______ _______ _____ _____    ______ ____
ROOT
ATOM      1  C   UNL     1       1.070   9.260  20.054  0.00  0.00    +0.000 A 
ATOM      2  C   UNL     1       0.937   8.230  20.990  0.00  0.00    +0.000 A 
ATOM      3  C   UNL     1       1.517   6.983  20.755  0.00  0.00    +0.000 A 
ATOM      4  C   UNL     1       2.213   6.741  19.569  0.00  0.00    +0.000 A 
ATOM      5  C   UNL     1       2.408   7.782  18.661  0.00  0.00    +0.000 A 
ATOM      6  C   UNL     1       1.837   9.035  18.899  0.00  0.00    +0.000 A 
ATOM      7 CL   UNL     1       2.088  10.281  17.725  0.00  0.00    +0.000 Cl
ENDROOT
BRANCH   1  14
ATOM      8  O   UNL     1      -3.463  11.495  17.185  0.00  0.00    +0.000 OA
ATOM      9  C   UNL     1      -2.611  11.460  18.057  0.00  0.00    +0.000 C 
ATOM     10  N   UNL     1      -2.367  12.437  18.969  0.00  0.00    +0.000 N 
ATOM     11  C   UNL     1      -1.365  12.237  19.870  0.00  0.00    +0.000 C 
ATOM     12  O   UNL     1      -1.057  13.018  20.756  0.00  0.00    +0.000 OA
ATOM     13  C   UNL     1      -0.711  10.929  19.612  0.00  0.00    +0.000 C 
ATOM     14  C   UNL     1       0.359  10.518  20.306  0.00  0.00    +0.000 C 
ATOM     15  S   UNL     1      -1.513  10.122  18.314  0.00  0.00    +0.000 S 
ATOM     16  H   UNL     1      -2.909  13.286  18.974  0.00  0.00    +0.000 HD
ENDBRANCH   1  14
BRANCH   4  17
ATOM     17  O   UNL     1       2.726   5.524  19.203  0.00  0.00    +0.000 OA
BRANCH  17  18
ATOM     18  C   UNL     1       4.128   5.373  19.436  0.00  0.00    +0.000 C 
BRANCH  18  19
ATOM     19  C   UNL     1       4.851   5.254  18.118  0.00  0.00    +0.000 A 
ATOM     20  C   UNL     1       5.999   6.016  17.861  0.00  0.00    +0.000 A 
ATOM     21  C   UNL     1       6.680   5.879  16.650  0.00  0.00    +0.000 A 
ATOM     22  C   UNL     1       6.203   4.981  15.686  0.00  0.00    +0.000 A 
ATOM     23  C   UNL     1       5.051   4.222  15.926  0.00  0.00    +0.000 A 
ATOM     24  C   UNL     1       4.376   4.366  17.139  0.00  0.00    +0.000 A 
BRANCH  22  25
ATOM     25  N   UNL     1       6.919   4.831  14.414  0.00  0.00    +0.000 N 
ATOM     26  O   UNL     1       7.906   5.555  14.219  0.00  0.00    +0.000 OA
ATOM     27  O   UNL     1       6.496   3.989  13.610  0.00  0.00    +0.000 OA
ENDBRANCH  22  25
ENDBRANCH  18  19
ENDBRANCH  17  18
ENDBRANCH   4  17
TORSDOF 5
ENDMDL
MODEL 6
REMARK VINA RESULT:      -7.8      1.212      1.810
REMARK  Name = 
REMARK  5 active torsions:
REMARK  status: ('A' for Active; 'I' for Inactive)
REMARK    1  A    between atoms: C_7  and  C_8
REMARK    2  A    between atoms: C_11  and  O_12
REMARK    3  A    between atoms: O_12  and  C_13
REMARK    4  A    between atoms: C_13  and  C_14
REMARK    5  A    between atoms: C_17  and  N_18
REMARK                            x       y       z     vdW  Elec       q    Type
REMARK                         _______ _______ _______ _____ _____    ______ ____
ROOT
ATOM      1  C   UNL     1       1.029   9.246  20.076  0.00  0.00    +0.000 A 
ATOM      2  C   UNL     1       0.891   8.209  21.004  0.00  0.00    +0.000 A 
ATOM      3  C   UNL     1       1.477   6.965  20.765  0.00  0.00    +0.000 A 
ATOM      4  C   UNL     1       2.184   6.733  19.583  0.00  0.00    +0.000 A 
ATOM      5  C   UNL     1       2.384   7.781  18.684  0.00  0.00    +0.000 A 
ATOM      6  C   UNL     1       1.807   9.031  18.926  0.00  0.00    +0.000 A 
ATOM      7 CL   UNL     1       2.065  10.286  17.763  0.00  0.00    +0.000 Cl
ENDROOT
BRANCH   1  14
ATOM      8  O   UNL     1      -3.483  11.489  17.179  0.00  0.00    +0.000 OA
ATOM      9  C   UNL     1      -2.639  11.450  18.059  0.00  0.00    +0.000 C 
ATOM     10  N   UNL     1      -2.406  12.421  18.980  0.00  0.00    +0.000 N 
ATOM     11  C   UNL     1      -1.412  12.217  19.890  0.00  0.00    +0.000 C 
ATOM     12  O   UNL     1      -1.115  12.993  20.784  0.00  0.00    +0.000 OA
ATOM     13  C   UNL     1      -0.752  10.913  19.628  0.00  0.00    +0.000 C 
ATOM     14  C   UNL     1       0.312  10.500  20.330  0.00  0.00    +0.000 C 
ATOM     15  S   UNL     1      -1.539  10.114  18.317  0.00  0.00    +0.000 S 
ATOM     16  H   UNL     1      -2.951  13.268  18.986  0.00  0.00    +0.000 HD
ENDBRANCH   1  14
BRANCH   4  17
ATOM     17  O   UNL     1       2.705   5.521  19.214  0.00  0.00    +0.000 OA
BRANCH  17  18
ATOM     18  C   UNL     1       4.104   5.372  19.459  0.00  0.00    +0.000 C 
BRANCH  18  19
ATOM     19  C   UNL     1       4.832   5.196  18.150  0.00  0.00    +0.000 A 
ATOM     20  C   UNL     1       4.416   4.228  17.226  0.00  0.00    +0.000 A 
ATOM     21  C   UNL     1       5.076   4.090  16.003  0.00  0.00    +0.000 A 
ATOM     22  C   UNL     1       6.164   4.921  15.707  0.00  0.00    +0.000 A 
ATOM     23  C   UNL     1       6.596   5.885  16.626  0.00  0.00    +0.000 A 
ATOM     24  C   UNL     1       5.931   6.015  17.847  0.00  0.00    +0.000 A 
BRANCH  22  25
ATOM     25  N   UNL     1       6.857   4.783  14.421  0.00  0.00    +0.000 N 
ATOM     26  O   UNL     1       6.415   3.952  13.615  0.00  0.00    +0.000 OA
ATOM     27  O   UNL     1       7.842   5.506  14.216  0.00  0.00    +0.000 OA
ENDBRANCH  22  25
ENDBRANCH  18  19
ENDBRANCH  17  18
ENDBRANCH   4  17
TORSDOF 5
ENDMDL
MODEL 7
REMARK VINA RESULT:      -7.8      1.190      1.701
REMARK  Name = 
REMARK  5 active torsions:
REMARK  status: ('A' for Active; 'I' for Inactive)
REMARK    1  A    between atoms: C_7  and  C_8
REMARK    2  A    between atoms: C_11  and  O_12
REMARK    3  A    between atoms: O_12  and  C_13
REMARK    4  A    between atoms: C_13  and  C_14
REMARK    5  A    between atoms: C_17  and  N_18
REMARK                            x       y       z     vdW  Elec       q    Type
REMARK                         _______ _______ _______ _____ _____    ______ ____
ROOT
ATOM      1  C   UNL     1       1.272   9.247  19.531  0.00  0.00    +0.000 A 
ATOM      2  C   UNL     1       1.830   8.428  18.544  0.00  0.00    +0.000 A 
ATOM      3  C   UNL     1       2.165   7.104  18.830  0.00  0.00    +0.000 A 
ATOM      4  C   UNL     1       1.973   6.590  20.114  0.00  0.00    +0.000 A 
ATOM      5  C   UNL     1       1.355   7.378  21.086  0.00  0.00    +0.000 A 
ATOM      6  C   UNL     1       1.009   8.701  20.798  0.00  0.00    +0.000 A 
ATOM      7 CL   UNL     1       0.272   9.640  22.050  0.00  0.00    +0.000 Cl
ENDROOT
BRANCH   1  14
ATOM      8  O   UNL     1      -3.311  11.606  16.846  0.00  0.00    +0.000 OA
ATOM      9  C   UNL     1      -2.234  11.618  17.419  0.00  0.00    +0.000 C 
ATOM     10  N   UNL     1      -1.445  12.709  17.603  0.00  0.00    +0.000 N 
ATOM     11  C   UNL     1      -0.263  12.541  18.260  0.00  0.00    +0.000 C 
ATOM     12  O   UNL     1       0.527  13.436  18.515  0.00  0.00    +0.000 OA
ATOM     13  C   UNL     1      -0.086  11.111  18.619  0.00  0.00    +0.000 C 
ATOM     14  C   UNL     1       1.030  10.656  19.204  0.00  0.00    +0.000 C 
ATOM     15  S   UNL     1      -1.477  10.212  18.133  0.00  0.00    +0.000 S 
ATOM     16  H   UNL     1      -1.725  13.612  17.260  0.00  0.00    +0.000 HD
ENDBRANCH   1  14
BRANCH   4  17
ATOM     17  O   UNL     1       2.364   5.340  20.518  0.00  0.00    +0.000 OA
BRANCH  17  18
ATOM     18  C   UNL     1       2.403   4.362  19.478  0.00  0.00    +0.000 C 
BRANCH  18  19
ATOM     19  C   UNL     1       3.697   4.487  18.714  0.00  0.00    +0.000 A 
ATOM     20  C   UNL     1       3.746   4.211  17.341  0.00  0.00    +0.000 A 
ATOM     21  C   UNL     1       4.941   4.358  16.634  0.00  0.00    +0.000 A 
ATOM     22  C   UNL     1       6.097   4.776  17.308  0.00  0.00    +0.000 A 
ATOM     23  C   UNL     1       6.063   5.045  18.681  0.00  0.00    +0.000 A 
ATOM     24  C   UNL     1       4.864   4.894  19.380  0.00  0.00    +0.000 A 
BRANCH  22  25
ATOM     25  N   UNL     1       7.353   4.936  16.567  0.00  0.00    +0.000 N 
ATOM     26  O   UNL     1       7.427   5.866  15.752  0.00  0.00    +0.000 OA
ATOM     27  O   UNL     1       8.267   4.134  16.803  0.00  0.00    +0.000 OA
ENDBRANCH  22  25
ENDBRANCH  18  19
ENDBRANCH  17  18
ENDBRANCH   4  17
TORSDOF 5
ENDMDL
MODEL 8
REMARK VINA RESULT:      -7.7      2.634      9.282
REMARK  Name = 
REMARK  5 active torsions:
REMARK  status: ('A' for Active; 'I' for Inactive)
REMARK    1  A    between atoms: C_7  and  C_8
REMARK    2  A    between atoms: C_11  and  O_12
REMARK    3  A    between atoms: O_12  and  C_13
REMARK    4  A    between atoms: C_13  and  C_14
REMARK    5  A    between atoms: C_17  and  N_18
REMARK                            x       y       z     vdW  Elec       q    Type
REMARK                         _______ _______ _______ _____ _____    ______ ____
ROOT
ATOM      1  C   UNL     1       2.464   6.453  18.648  0.00  0.00    +0.000 A 
ATOM      2  C   UNL     1       2.423   7.589  17.833  0.00  0.00    +0.000 A 
ATOM      3  C   UNL     1       1.959   8.804  18.338  0.00  0.00    +0.000 A 
ATOM      4  C   UNL     1       1.504   8.893  19.656  0.00  0.00    +0.000 A 
ATOM      5  C   UNL     1       1.604   7.782  20.494  0.00  0.00    +0.000 A 
ATOM      6  C   UNL     1       2.079   6.567  19.993  0.00  0.00    +0.000 A 
ATOM      7 CL   UNL     1       2.155   5.216  21.072  0.00  0.00    +0.000 Cl
ENDROOT
BRANCH   1  14
ATOM      8  O   UNL     1       7.773   4.744  17.011  0.00  0.00    +0.000 OA
ATOM      9  C   UNL     1       6.573   4.618  17.188  0.00  0.00    +0.000 C 
ATOM     10  N   UNL     1       5.821   3.553  16.804  0.00  0.00    +0.000 N 
ATOM     11  C   UNL     1       4.486   3.580  17.072  0.00  0.00    +0.000 C 
ATOM     12  O   UNL     1       3.702   2.683  16.807  0.00  0.00    +0.000 OA
ATOM     13  C   UNL     1       4.133   4.861  17.737  0.00  0.00    +0.000 C 
ATOM     14  C   UNL     1       2.868   5.180  18.039  0.00  0.00    +0.000 C 
ATOM     15  S   UNL     1       5.559   5.801  17.983  0.00  0.00    +0.000 S 
ATOM     16  H   UNL     1       6.241   2.769  16.332  0.00  0.00    +0.000 HD
ENDBRANCH   1  14
BRANCH   4  17
ATOM     17  O   UNL     1       0.937  10.010  20.209  0.00  0.00    +0.000 OA
BRANCH  17  18
ATOM     18  C   UNL     1       0.720  11.086  19.294  0.00  0.00    +0.000 C 
BRANCH  18  19
ATOM     19  C   UNL     1      -0.750  11.191  18.974  0.00  0.00    +0.000 A 
ATOM     20  C   UNL     1      -1.580  12.053  19.703  0.00  0.00    +0.000 A 
ATOM     21  C   UNL     1      -2.934  12.167  19.382  0.00  0.00    +0.000 A 
ATOM     22  C   UNL     1      -3.462  11.407  18.330  0.00  0.00    +0.000 A 
ATOM     23  C   UNL     1      -2.645  10.534  17.600  0.00  0.00    +0.000 A 
ATOM     24  C   UNL     1      -1.293  10.425  17.930  0.00  0.00    +0.000 A 
BRANCH  22  25
ATOM     25  N   UNL     1      -4.884  11.527  17.987  0.00  0.00    +0.000 N 
ATOM     26  O   UNL     1      -5.712  11.337  18.888  0.00  0.00    +0.000 OA
ATOM     27  O   UNL     1      -5.172  11.814  16.816  0.00  0.00    +0.000 OA
ENDBRANCH  22  25
ENDBRANCH  18  19
ENDBRANCH  17  18
ENDBRANCH   4  17
TORSDOF 5
ENDMDL
MODEL 9
REMARK VINA RESULT:      -7.7      5.956      8.591
REMARK  Name = 
REMARK  5 active torsions:
REMARK  status: ('A' for Active; 'I' for Inactive)
REMARK    1  A    between atoms: C_7  and  C_8
REMARK    2  A    between atoms: C_11  and  O_12
REMARK    3  A    between atoms: O_12  and  C_13
REMARK    4  A    between atoms: C_13  and  C_14
REMARK    5  A    between atoms: C_17  and  N_18
REMARK                            x       y       z     vdW  Elec       q    Type
REMARK                         _______ _______ _______ _____ _____    ______ ____
ROOT
ATOM      1  C   UNL     1       6.139   5.405  18.087  0.00  0.00    +0.000 A 
ATOM      2  C   UNL     1       7.163   5.565  19.026  0.00  0.00    +0.000 A 
ATOM      3  C   UNL     1       7.984   6.693  18.991  0.00  0.00    +0.000 A 
ATOM      4  C   UNL     1       7.809   7.662  18.000  0.00  0.00    +0.000 A 
ATOM      5  C   UNL     1       6.748   7.544  17.102  0.00  0.00    +0.000 A 
ATOM      6  C   UNL     1       5.918   6.420  17.142  0.00  0.00    +0.000 A 
ATOM      7 CL   UNL     1       4.636   6.313  15.986  0.00  0.00    +0.000 Cl
ENDROOT
BRANCH   1  14
ATOM      8  O   UNL     1       1.123   4.288  20.801  0.00  0.00    +0.000 OA
ATOM      9  C   UNL     1       2.077   4.032  20.087  0.00  0.00    +0.000 C 
ATOM     10  N   UNL     1       2.358   2.821  19.539  0.00  0.00    +0.000 N 
ATOM     11  C   UNL     1       3.477   2.708  18.771  0.00  0.00    +0.000 C 
ATOM     12  O   UNL     1       3.833   1.689  18.200  0.00  0.00    +0.000 OA
ATOM     13  C   UNL     1       4.193   4.009  18.732  0.00  0.00    +0.000 C 
ATOM     14  C   UNL     1       5.370   4.156  18.109  0.00  0.00    +0.000 C 
ATOM     15  S   UNL     1       3.300   5.192  19.615  0.00  0.00    +0.000 S 
ATOM     16  H   UNL     1       1.757   2.030  19.701  0.00  0.00    +0.000 HD
ENDBRANCH   1  14
BRANCH   4  17
ATOM     17  O   UNL     1       8.626   8.747  17.821  0.00  0.00    +0.000 OA
BRANCH  17  18
ATOM     18  C   UNL     1       9.019   9.404  19.028  0.00  0.00    +0.000 C 
BRANCH  18  19
ATOM     19  C   UNL     1       9.452  10.815  18.718  0.00  0.00    +0.000 A 
ATOM     20  C   UNL     1       8.686  11.628  17.871  0.00  0.00    +0.000 A 
ATOM     21  C   UNL     1       9.078  12.943  17.613  0.00  0.00    +0.000 A 
ATOM     22  C   UNL     1      10.247  13.445  18.199  0.00  0.00    +0.000 A 
ATOM     23  C   UNL     1      11.027  12.639  19.038  0.00  0.00    +0.000 A 
ATOM     24  C   UNL     1      10.629  11.325  19.289  0.00  0.00    +0.000 A 
BRANCH  22  25
ATOM     25  N   UNL     1      10.659  14.828  17.932  0.00  0.00    +0.000 N 
ATOM     26  O   UNL     1      11.307  15.047  16.899  0.00  0.00    +0.000 OA
ATOM     27  O   UNL     1      10.333  15.695  18.755  0.00  0.00    +0.000 OA
ENDBRANCH  22  25
ENDBRANCH  18  19
ENDBRANCH  17  18
ENDBRANCH   4  17
TORSDOF 5
ENDMDL
