MODEL 1
REMARK VINA RESULT:      -6.6      0.000      0.000
REMARK  Name = 
REMARK  5 active torsions:
REMARK  status: ('A' for Active; 'I' for Inactive)
REMARK    1  A    between atoms: C_1  and  O_2
REMARK    2  A    between atoms: O_2  and  C_3
REMARK    3  A    between atoms: C_11  and  O_12
REMARK    4  A    between atoms: O_12  and  C_13
REMARK    5  A    between atoms: C_16  and  C_17
REMARK                            x       y       z     vdW  Elec       q    Type
REMARK                         _______ _______ _______ _____ _____    ______ ____
ROOT
ATOM      1  C   UNL     1       4.024   3.837  18.852  0.00  0.00    +0.000 A 
ATOM      2  C   UNL     1       4.585   4.176  17.616  0.00  0.00    +0.000 A 
ATOM      3  C   UNL     1       4.401   5.425  17.039  0.00  0.00    +0.000 A 
ATOM      4  C   UNL     1       3.616   6.338  17.730  0.00  0.00    +0.000 A 
ATOM      5  N   UNL     1       3.283   7.620  17.368  0.00  0.00    +0.000 N 
ATOM      6  C   UNL     1       2.483   8.176  18.318  0.00  0.00    +0.000 A 
ATOM      7  C   UNL     1       2.280   7.250  19.326  0.00  0.00    +0.000 A 
ATOM      8  C   UNL     1       3.007   6.057  18.961  0.00  0.00    +0.000 A 
ATOM      9  C   UNL     1       3.205   4.766  19.547  0.00  0.00    +0.000 A 
ATOM     10  C   UNL     1       1.449   7.577  20.484  0.00  0.00    +0.000 C 
ATOM     11  O   UNL     1       1.214   6.821  21.414  0.00  0.00    +0.000 OA
ATOM     12  C   UNL     1       0.872   8.973  20.461  0.00  0.00    +0.000 C 
ATOM     13  C   UNL     1       0.013   9.369  21.628  0.00  0.00    +0.000 C 
ATOM     14  C   UNL     1       1.098   9.847  19.459  0.00  0.00    +0.000 C 
ATOM     15  C   UNL     1       1.940   9.501  18.286  0.00  0.00    +0.000 C 
ATOM     16  O   UNL     1       2.134  10.305  17.389  0.00  0.00    +0.000 OA
ATOM     17  H   UNL     1       3.583   8.084  16.520  0.00  0.00    +0.000 HD
ENDROOT
BRANCH   1  19
ATOM     18  C   UNL     1       3.632   1.504  18.659  0.00  0.00    +0.000 C 
ATOM     19  O   UNL     1       4.227   2.582  19.378  0.00  0.00    +0.000 OA
ENDBRANCH   1  19
BRANCH   9  20
ATOM     20  O   UNL     1       2.575   4.560  20.742  0.00  0.00    +0.000 OA
ATOM     21  C   UNL     1       1.467   3.680  20.825  0.00  0.00    +0.000 C 
ENDBRANCH   9  20
TORSDOF 2
ENDMDL
MODEL 2
REMARK VINA RESULT:      -6.4      2.693      5.152
REMARK  Name = 
REMARK  5 active torsions:
REMARK  status: ('A' for Active; 'I' for Inactive)
REMARK    1  A    between atoms: C_1  and  O_2
REMARK    2  A    between atoms: O_2  and  C_3
REMARK    3  A    between atoms: C_11  and  O_12
REMARK    4  A    between atoms: O_12  and  C_13
REMARK    5  A    between atoms: C_16  and  C_17
REMARK                            x       y       z     vdW  Elec       q    Type
REMARK                         _______ _______ _______ _____ _____    ______ ____
ROOT
ATOM      1  C   UNL     1       1.877   3.239  19.636  0.00  0.00    +0.000 A 
ATOM      2  C   UNL     1       1.679   2.167  18.759  0.00  0.00    +0.000 A 
ATOM      3  C   UNL     1       2.490   1.959  17.653  0.00  0.00    +0.000 A 
ATOM      4  C   UNL     1       3.512   2.872  17.429  0.00  0.00    +0.000 A 
ATOM      5  N   UNL     1       4.433   2.888  16.410  0.00  0.00    +0.000 N 
ATOM      6  C   UNL     1       5.256   3.961  16.547  0.00  0.00    +0.000 A 
ATOM      7  C   UNL     1       4.878   4.672  17.672  0.00  0.00    +0.000 A 
ATOM      8  C   UNL     1       3.751   3.980  18.254  0.00  0.00    +0.000 A 
ATOM      9  C   UNL     1       2.909   4.184  19.393  0.00  0.00    +0.000 A 
ATOM     10  C   UNL     1       5.592   5.887  18.064  0.00  0.00    +0.000 C 
ATOM     11  O   UNL     1       5.322   6.575  19.036  0.00  0.00    +0.000 OA
ATOM     12  C   UNL     1       6.736   6.256  17.151  0.00  0.00    +0.000 C 
ATOM     13  C   UNL     1       7.512   7.494  17.505  0.00  0.00    +0.000 C 
ATOM     14  C   UNL     1       7.075   5.533  16.064  0.00  0.00    +0.000 C 
ATOM     15  C   UNL     1       6.339   4.304  15.674  0.00  0.00    +0.000 C 
ATOM     16  O   UNL     1       6.660   3.662  14.687  0.00  0.00    +0.000 OA
ATOM     17  H   UNL     1       4.489   2.205  15.665  0.00  0.00    +0.000 HD
ENDROOT
BRANCH   1  19
ATOM     18  C   UNL     1       1.396   2.696  21.896  0.00  0.00    +0.000 C 
ATOM     19  O   UNL     1       1.038   3.409  20.714  0.00  0.00    +0.000 OA
ENDBRANCH   1  19
BRANCH   9  20
ATOM     20  O   UNL     1       3.196   5.287  20.147  0.00  0.00    +0.000 OA
ATOM     21  C   UNL     1       2.312   6.395  20.160  0.00  0.00    +0.000 C 
ENDBRANCH   9  20
TORSDOF 2
ENDMDL
MODEL 3
REMARK VINA RESULT:      -6.1      1.730      3.219
REMARK  Name = 
REMARK  5 active torsions:
REMARK  status: ('A' for Active; 'I' for Inactive)
REMARK    1  A    between atoms: C_1  and  O_2
REMARK    2  A    between atoms: O_2  and  C_3
REMARK    3  A    between atoms: C_11  and  O_12
REMARK    4  A    between atoms: O_12  and  C_13
REMARK    5  A    between atoms: C_16  and  C_17
REMARK                            x       y       z     vdW  Elec       q    Type
REMARK                         _______ _______ _______ _____ _____    ______ ____
ROOT
ATOM      1  C   UNL     1       3.340   3.803  18.902  0.00  0.00    +0.000 A 
ATOM      2  C   UNL     1       2.898   3.374  20.158  0.00  0.00    +0.000 A 
ATOM      3  C   UNL     1       2.238   4.220  21.038  0.00  0.00    +0.000 A 
ATOM      4  C   UNL     1       2.041   5.534  20.634  0.00  0.00    +0.000 A 
ATOM      5  N   UNL     1       1.430   6.553  21.320  0.00  0.00    +0.000 N 
ATOM      6  C   UNL     1       1.454   7.692  20.577  0.00  0.00    +0.000 A 
ATOM      7  C   UNL     1       2.092   7.427  19.378  0.00  0.00    +0.000 A 
ATOM      8  C   UNL     1       2.478   6.035  19.399  0.00  0.00    +0.000 A 
ATOM      9  C   UNL     1       3.156   5.152  18.500  0.00  0.00    +0.000 A 
ATOM     10  C   UNL     1       2.267   8.478  18.376  0.00  0.00    +0.000 C 
ATOM     11  O   UNL     1       2.821   8.332  17.298  0.00  0.00    +0.000 OA
ATOM     12  C   UNL     1       1.695   9.817  18.775  0.00  0.00    +0.000 C 
ATOM     13  C   UNL     1       1.840  10.937  17.783  0.00  0.00    +0.000 C 
ATOM     14  C   UNL     1       1.076  10.033  19.954  0.00  0.00    +0.000 C 
ATOM     15  C   UNL     1       0.909   8.959  20.964  0.00  0.00    +0.000 C 
ATOM     16  O   UNL     1       0.345   9.172  22.026  0.00  0.00    +0.000 OA
ATOM     17  H   UNL     1       1.023   6.473  22.244  0.00  0.00    +0.000 HD
ENDROOT
BRANCH   1  19
ATOM     18  C   UNL     1       3.598   1.563  18.160  0.00  0.00    +0.000 C 
ATOM     19  O   UNL     1       3.999   2.928  18.069  0.00  0.00    +0.000 OA
ENDBRANCH   1  19
BRANCH   9  20
ATOM     20  O   UNL     1       3.558   5.711  17.319  0.00  0.00    +0.000 OA
ATOM     21  C   UNL     1       4.935   5.940  17.069  0.00  0.00    +0.000 C 
ENDBRANCH   9  20
TORSDOF 2
ENDMDL
MODEL 4
REMARK VINA RESULT:      -6.1      1.888      6.086
REMARK  Name = 
REMARK  5 active torsions:
REMARK  status: ('A' for Active; 'I' for Inactive)
REMARK    1  A    between atoms: C_1  and  O_2
REMARK    2  A    between atoms: O_2  and  C_3
REMARK    3  A    between atoms: C_11  and  O_12
REMARK    4  A    between atoms: O_12  and  C_13
REMARK    5  A    between atoms: C_16  and  C_17
REMARK                            x       y       z     vdW  Elec       q    Type
REMARK                         _______ _______ _______ _____ _____    ______ ____
ROOT
ATOM      1  C   UNL     1       2.178   8.663  18.528  0.00  0.00    +0.000 A 
ATOM      2  C   UNL     1       1.574   8.984  19.748  0.00  0.00    +0.000 A 
ATOM      3  C   UNL     1       1.365   8.037  20.741  0.00  0.00    +0.000 A 
ATOM      4  C   UNL     1       1.767   6.735  20.475  0.00  0.00    +0.000 A 
ATOM      5  N   UNL     1       1.662   5.629  21.283  0.00  0.00    +0.000 N 
ATOM      6  C   UNL     1       2.164   4.539  20.643  0.00  0.00    +0.000 A 
ATOM      7  C   UNL     1       2.607   4.923  19.389  0.00  0.00    +0.000 A 
ATOM      8  C   UNL     1       2.357   6.341  19.266  0.00  0.00    +0.000 A 
ATOM      9  C   UNL     1       2.569   7.327  18.250  0.00  0.00    +0.000 A 
ATOM     10  C   UNL     1       3.195   3.947  18.473  0.00  0.00    +0.000 C 
ATOM     11  O   UNL     1       3.606   4.198  17.351  0.00  0.00    +0.000 OA
ATOM     12  C   UNL     1       3.267   2.543  19.024  0.00  0.00    +0.000 C 
ATOM     13  C   UNL     1       3.867   1.495  18.129  0.00  0.00    +0.000 C 
ATOM     14  C   UNL     1       2.826   2.210  20.255  0.00  0.00    +0.000 C 
ATOM     15  C   UNL     1       2.227   3.210  21.174  0.00  0.00    +0.000 C 
ATOM     16  O   UNL     1       1.833   2.891  22.284  0.00  0.00    +0.000 OA
ATOM     17  H   UNL     1       1.268   5.624  22.216  0.00  0.00    +0.000 HD
ENDROOT
BRANCH   1  19
ATOM     18  C   UNL     1       2.104  10.975  17.994  0.00  0.00    +0.000 C 
ATOM     19  O   UNL     1       2.354   9.637  17.570  0.00  0.00    +0.000 OA
ENDBRANCH   1  19
BRANCH   9  20
ATOM     20  O   UNL     1       3.142   6.869  17.097  0.00  0.00    +0.000 OA
ATOM     21  C   UNL     1       4.527   7.062  16.861  0.00  0.00    +0.000 C 
ENDBRANCH   9  20
TORSDOF 2
ENDMDL
MODEL 5
REMARK VINA RESULT:      -6.1      1.935      6.535
REMARK  Name = 
REMARK  5 active torsions:
REMARK  status: ('A' for Active; 'I' for Inactive)
REMARK    1  A    between atoms: C_1  and  O_2
REMARK    2  A    between atoms: O_2  and  C_3
REMARK    3  A    between atoms: C_11  and  O_12
REMARK    4  A    between atoms: O_12  and  C_13
REMARK    5  A    between atoms: C_16  and  C_17
REMARK                            x       y       z     vdW  Elec       q    Type
REMARK                         _______ _______ _______ _____ _____    ______ ____
ROOT
ATOM      1  C   UNL     1       0.003  10.727  20.428  0.00  0.00    +0.000 A 
ATOM      2  C   UNL     1      -0.413  10.052  21.581  0.00  0.00    +0.000 A 
ATOM      3  C   UNL     1       0.036   8.777  21.893  0.00  0.00    +0.000 A 
ATOM      4  C   UNL     1       0.914   8.174  21.003  0.00  0.00    +0.000 A 
ATOM      5  N   UNL     1       1.487   6.928  21.084  0.00  0.00    +0.000 N 
ATOM      6  C   UNL     1       2.280   6.712  20.000  0.00  0.00    +0.000 A 
ATOM      7  C   UNL     1       2.232   7.829  19.184  0.00  0.00    +0.000 A 
ATOM      8  C   UNL     1       1.354   8.784  19.820  0.00  0.00    +0.000 A 
ATOM      9  C   UNL     1       0.885  10.099  19.509  0.00  0.00    +0.000 A 
ATOM     10  C   UNL     1       2.992   7.875  17.935  0.00  0.00    +0.000 C 
ATOM     11  O   UNL     1       3.004   8.816  17.156  0.00  0.00    +0.000 OA
ATOM     12  C   UNL     1       3.799   6.630  17.653  0.00  0.00    +0.000 C 
ATOM     13  C   UNL     1       4.605   6.620  16.384  0.00  0.00    +0.000 C 
ATOM     14  C   UNL     1       3.820   5.563  18.477  0.00  0.00    +0.000 C 
ATOM     15  C   UNL     1       3.041   5.527  19.740  0.00  0.00    +0.000 C 
ATOM     16  O   UNL     1       3.072   4.552  20.474  0.00  0.00    +0.000 OA
ATOM     17  H   UNL     1       1.341   6.267  21.835  0.00  0.00    +0.000 HD
ENDROOT
BRANCH   1  19
ATOM     18  C   UNL     1      -1.747  12.038  19.505  0.00  0.00    +0.000 C 
ATOM     19  O   UNL     1      -0.480  11.987  20.156  0.00  0.00    +0.000 OA
ENDBRANCH   1  19
BRANCH   9  20
ATOM     20  O   UNL     1       1.349  10.628  18.337  0.00  0.00    +0.000 OA
ATOM     21  C   UNL     1       2.167  11.786  18.349  0.00  0.00    +0.000 C 
ENDBRANCH   9  20
TORSDOF 2
ENDMDL
MODEL 6
REMARK VINA RESULT:      -5.9      1.897      6.041
REMARK  Name = 
REMARK  5 active torsions:
REMARK  status: ('A' for Active; 'I' for Inactive)
REMARK    1  A    between atoms: C_1  and  O_2
REMARK    2  A    between atoms: O_2  and  C_3
REMARK    3  A    between atoms: C_11  and  O_12
REMARK    4  A    between atoms: O_12  and  C_13
REMARK    5  A    between atoms: C_16  and  C_17
REMARK                            x       y       z     vdW  Elec       q    Type
REMARK                         _______ _______ _______ _____ _____    ______ ____
ROOT
ATOM      1  C   UNL     1       1.606   7.724  20.345  0.00  0.00    +0.000 A 
ATOM      2  C   UNL     1       1.097   6.681  21.127  0.00  0.00    +0.000 A 
ATOM      3  C   UNL     1       1.412   5.352  20.882  0.00  0.00    +0.000 A 
ATOM      4  C   UNL     1       2.249   5.082  19.808  0.00  0.00    +0.000 A 
ATOM      5  N   UNL     1       2.696   3.862  19.362  0.00  0.00    +0.000 N 
ATOM      6  C   UNL     1       3.491   4.031  18.271  0.00  0.00    +0.000 A 
ATOM      7  C   UNL     1       3.573   5.383  17.986  0.00  0.00    +0.000 A 
ATOM      8  C   UNL     1       2.776   6.076  18.972  0.00  0.00    +0.000 A 
ATOM      9  C   UNL     1       2.445   7.443  19.235  0.00  0.00    +0.000 A 
ATOM     10  C   UNL     1       4.365   5.861  16.853  0.00  0.00    +0.000 C 
ATOM     11  O   UNL     1       4.488   7.031  16.528  0.00  0.00    +0.000 OA
ATOM     12  C   UNL     1       5.054   4.767  16.071  0.00  0.00    +0.000 C 
ATOM     13  C   UNL     1       5.887   5.197  14.897  0.00  0.00    +0.000 C 
ATOM     14  C   UNL     1       4.950   3.459  16.385  0.00  0.00    +0.000 C 
ATOM     15  C   UNL     1       4.140   2.987  17.536  0.00  0.00    +0.000 C 
ATOM     16  O   UNL     1       4.057   1.800  17.805  0.00  0.00    +0.000 OA
ATOM     17  H   UNL     1       2.467   2.969  19.779  0.00  0.00    +0.000 HD
ENDROOT
BRANCH   1  19
ATOM     18  C   UNL     1       1.069   9.337  22.001  0.00  0.00    +0.000 C 
ATOM     19  O   UNL     1       1.255   9.025  20.622  0.00  0.00    +0.000 OA
ENDBRANCH   1  19
BRANCH   9  20
ATOM     20  O   UNL     1       2.989   8.356  18.375  0.00  0.00    +0.000 OA
ATOM     21  C   UNL     1       2.158   9.284  17.698  0.00  0.00    +0.000 C 
ENDBRANCH   9  20
TORSDOF 2
ENDMDL
MODEL 7
REMARK VINA RESULT:      -5.9      4.937      7.148
REMARK  Name = 
REMARK  5 active torsions:
REMARK  status: ('A' for Active; 'I' for Inactive)
REMARK    1  A    between atoms: C_1  and  O_2
REMARK    2  A    between atoms: O_2  and  C_3
REMARK    3  A    between atoms: C_11  and  O_12
REMARK    4  A    between atoms: O_12  and  C_13
REMARK    5  A    between atoms: C_16  and  C_17
REMARK                            x       y       z     vdW  Elec       q    Type
REMARK                         _______ _______ _______ _____ _____    ______ ____
ROOT
ATOM      1  C   UNL     1       0.507  10.307  20.404  0.00  0.00    +0.000 A 
ATOM      2  C   UNL     1       1.125   9.630  19.347  0.00  0.00    +0.000 A 
ATOM      3  C   UNL     1       0.528   9.505  18.100  0.00  0.00    +0.000 A 
ATOM      4  C   UNL     1      -0.731  10.067  17.936  0.00  0.00    +0.000 A 
ATOM      5  N   UNL     1      -1.522  10.071  16.814  0.00  0.00    +0.000 N 
ATOM      6  C   UNL     1      -2.690  10.718  17.073  0.00  0.00    +0.000 A 
ATOM      7  C   UNL     1      -2.676  11.151  18.387  0.00  0.00    +0.000 A 
ATOM      8  C   UNL     1      -1.415  10.739  18.959  0.00  0.00    +0.000 A 
ATOM      9  C   UNL     1      -0.789  10.862  20.240  0.00  0.00    +0.000 A 
ATOM     10  C   UNL     1      -3.815  11.880  18.946  0.00  0.00    +0.000 C 
ATOM     11  O   UNL     1      -3.888  12.293  20.093  0.00  0.00    +0.000 OA
ATOM     12  C   UNL     1      -4.948  12.102  17.972  0.00  0.00    +0.000 C 
ATOM     13  C   UNL     1      -6.145  12.851  18.487  0.00  0.00    +0.000 C 
ATOM     14  C   UNL     1      -4.920  11.666  16.696  0.00  0.00    +0.000 C 
ATOM     15  C   UNL     1      -3.760  10.923  16.143  0.00  0.00    +0.000 C 
ATOM     16  O   UNL     1      -3.751  10.536  14.985  0.00  0.00    +0.000 OA
ATOM     17  H   UNL     1      -1.277   9.651  15.926  0.00  0.00    +0.000 HD
ENDROOT
BRANCH   1  19
ATOM     18  C   UNL     1       0.995   9.260  22.478  0.00  0.00    +0.000 C 
ATOM     19  O   UNL     1       1.135  10.395  21.626  0.00  0.00    +0.000 OA
ENDBRANCH   1  19
BRANCH   9  20
ATOM     20  O   UNL     1      -1.518  11.522  21.189  0.00  0.00    +0.000 OA
ATOM     21  C   UNL     1      -1.054  12.752  21.721  0.00  0.00    +0.000 C 
ENDBRANCH   9  20
TORSDOF 2
ENDMDL
MODEL 8
REMARK VINA RESULT:      -5.8      1.991      3.877
REMARK  Name = 
REMARK  5 active torsions:
REMARK  status: ('A' for Active; 'I' for Inactive)
REMARK    1  A    between atoms: C_1  and  O_2
REMARK    2  A    between atoms: O_2  and  C_3
REMARK    3  A    between atoms: C_11  and  O_12
REMARK    4  A    between atoms: O_12  and  C_13
REMARK    5  A    between atoms: C_16  and  C_17
REMARK                            x       y       z     vdW  Elec       q    Type
REMARK                         _______ _______ _______ _____ _____    ______ ____
ROOT
ATOM      1  C   UNL     1       5.546   4.520  15.708  0.00  0.00    +0.000 A 
ATOM      2  C   UNL     1       5.545   5.869  15.338  0.00  0.00    +0.000 A 
ATOM      3  C   UNL     1       4.869   6.835  16.071  0.00  0.00    +0.000 A 
ATOM      4  C   UNL     1       4.169   6.411  17.192  0.00  0.00    +0.000 A 
ATOM      5  N   UNL     1       3.424   7.165  18.066  0.00  0.00    +0.000 N 
ATOM      6  C   UNL     1       2.888   6.365  19.027  0.00  0.00    +0.000 A 
ATOM      7  C   UNL     1       3.282   5.059  18.789  0.00  0.00    +0.000 A 
ATOM      8  C   UNL     1       4.111   5.073  17.606  0.00  0.00    +0.000 A 
ATOM      9  C   UNL     1       4.812   4.086  16.843  0.00  0.00    +0.000 A 
ATOM     10  C   UNL     1       2.847   3.976  19.669  0.00  0.00    +0.000 C 
ATOM     11  O   UNL     1       3.142   2.799  19.530  0.00  0.00    +0.000 OA
ATOM     12  C   UNL     1       1.969   4.420  20.815  0.00  0.00    +0.000 C 
ATOM     13  C   UNL     1       1.494   3.351  21.758  0.00  0.00    +0.000 C 
ATOM     14  C   UNL     1       1.611   5.706  21.013  0.00  0.00    +0.000 C 
ATOM     15  C   UNL     1       2.056   6.796  20.110  0.00  0.00    +0.000 C 
ATOM     16  O   UNL     1       1.723   7.954  20.305  0.00  0.00    +0.000 OA
ATOM     17  H   UNL     1       3.289   8.166  18.004  0.00  0.00    +0.000 HD
ENDROOT
BRANCH   1  19
ATOM     18  C   UNL     1       6.249   3.856  13.540  0.00  0.00    +0.000 C 
ATOM     19  O   UNL     1       6.224   3.598  14.942  0.00  0.00    +0.000 OA
ENDBRANCH   1  19
BRANCH   9  20
ATOM     20  O   UNL     1       4.705   2.803  17.301  0.00  0.00    +0.000 OA
ATOM     21  C   UNL     1       3.634   1.978  16.874  0.00  0.00    +0.000 C 
ENDBRANCH   9  20
TORSDOF 2
ENDMDL
MODEL 9
REMARK VINA RESULT:      -5.8      9.249     10.737
REMARK  Name = 
REMARK  5 active torsions:
REMARK  status: ('A' for Active; 'I' for Inactive)
REMARK    1  A    between atoms: C_1  and  O_2
REMARK    2  A    between atoms: O_2  and  C_3
REMARK    3  A    between atoms: C_11  and  O_12
REMARK    4  A    between atoms: O_12  and  C_13
REMARK    5  A    between atoms: C_16  and  C_17
REMARK                            x       y       z     vdW  Elec       q    Type
REMARK                         _______ _______ _______ _____ _____    ______ ____
ROOT
ATOM      1  C   UNL     1      10.434  12.816  18.000  0.00  0.00    +0.000 A 
ATOM      2  C   UNL     1      10.271  11.427  18.047  0.00  0.00    +0.000 A 
ATOM      3  C   UNL     1       9.797  10.776  19.177  0.00  0.00    +0.000 A 
ATOM      4  C   UNL     1       9.499  11.557  20.286  0.00  0.00    +0.000 A 
ATOM      5  N   UNL     1       9.028  11.153  21.511  0.00  0.00    +0.000 N 
ATOM      6  C   UNL     1       8.877  12.230  22.327  0.00  0.00    +0.000 A 
ATOM      7  C   UNL     1       9.255  13.369  21.636  0.00  0.00    +0.000 A 
ATOM      8  C   UNL     1       9.659  12.950  20.314  0.00  0.00    +0.000 A 
ATOM      9  C   UNL     1      10.148  13.610  19.142  0.00  0.00    +0.000 A 
ATOM     10  C   UNL     1       9.199  14.683  22.274  0.00  0.00    +0.000 C 
ATOM     11  O   UNL     1       9.517  15.735  21.741  0.00  0.00    +0.000 OA
ATOM     12  C   UNL     1       8.702  14.661  23.700  0.00  0.00    +0.000 C 
ATOM     13  C   UNL     1       8.618  15.984  24.408  0.00  0.00    +0.000 C 
ATOM     14  C   UNL     1       8.340  13.528  24.337  0.00  0.00    +0.000 C 
ATOM     15  C   UNL     1       8.405  12.199  23.679  0.00  0.00    +0.000 C 
ATOM     16  O   UNL     1       8.073  11.184  24.270  0.00  0.00    +0.000 OA
ATOM     17  H   UNL     1       8.825  10.196  21.771  0.00  0.00    +0.000 HD
ENDROOT
BRANCH   1  19
ATOM     18  C   UNL     1      12.333  13.371  16.690  0.00  0.00    +0.000 C 
ATOM     19  O   UNL     1      10.918  13.414  16.859  0.00  0.00    +0.000 OA
ENDBRANCH   1  19
BRANCH   9  20
ATOM     20  O   UNL     1      10.285  14.966  19.245  0.00  0.00    +0.000 OA
ATOM     21  C   UNL     1       9.485  15.828  18.454  0.00  0.00    +0.000 C 
ENDBRANCH   9  20
TORSDOF 2
ENDMDL
