MODEL 1
REMARK VINA RESULT:      -7.1      0.000      0.000
REMARK  Name = 
REMARK  5 active torsions:
REMARK  status: ('A' for Active; 'I' for Inactive)
REMARK    1  A    between atoms: C_1  and  C_2
REMARK    2  A    between atoms: C_2  and  C_3
REMARK    3  A    between atoms: C_2  and  C_4
REMARK    4  A    between atoms: C_2  and  N_5
REMARK    5  A    between atoms: C_6  and  C_8
REMARK                            x       y       z     vdW  Elec       q    Type
REMARK                         _______ _______ _______ _____ _____    ______ ____
ROOT
ATOM      1  C   UNL     1       3.016   6.601  18.383  0.00  0.00    +0.000 C 
ATOM      2  C   UNL     1       2.120   5.505  17.759  0.00  0.00    +0.000 C 
ATOM      3  C   UNL     1       1.925   4.341  18.700  0.00  0.00    +0.000 A 
ATOM      4  C   UNL     1       1.958   3.014  18.277  0.00  0.00    +0.000 A 
ATOM      5  C   UNL     1       1.762   1.993  19.207  0.00  0.00    +0.000 A 
ATOM      6  C   UNL     1       1.489   2.297  20.543  0.00  0.00    +0.000 A 
ATOM      7  C   UNL     1       1.455   3.624  20.970  0.00  0.00    +0.000 A 
ATOM      8  C   UNL     1       1.713   4.648  20.058  0.00  0.00    +0.000 A 
ATOM      9  C   UNL     1       1.874   6.089  20.466  0.00  0.00    +0.000 C 
ATOM     10  N   UNL     1       3.118   6.593  19.872  0.00  0.00    +0.000 NA
ATOM     11  H   UNL     1       3.308   7.539  20.198  0.00  0.00    +0.000 HD
ENDROOT
BRANCH   1  13
ATOM     12  N   UNL     1       5.451   6.210  18.590  0.00  0.00    +0.000 N 
ATOM     13  C   UNL     1       4.406   6.504  17.735  0.00  0.00    +0.000 C 
ATOM     14  O   UNL     1       4.533   6.589  16.515  0.00  0.00    +0.000 OA
ATOM     15  H   UNL     1       5.203   6.124  19.574  0.00  0.00    +0.000 HD
BRANCH  12  17
ATOM     16  C   UNL     1       7.458   7.051  17.373  0.00  0.00    +0.000 C 
ATOM     17  C   UNL     1       6.822   5.887  18.157  0.00  0.00    +0.000 C 
ATOM     18  C   UNL     1       6.832   4.613  17.291  0.00  0.00    +0.000 C 
ATOM     19  C   UNL     1       7.700   5.627  19.396  0.00  0.00    +0.000 C 
ENDBRANCH  12  17
ENDBRANCH   1  13
TORSDOF 2
ENDMDL
MODEL 2
REMARK VINA RESULT:      -7.1      0.032      1.053
REMARK  Name = 
REMARK  5 active torsions:
REMARK  status: ('A' for Active; 'I' for Inactive)
REMARK    1  A    between atoms: C_1  and  C_2
REMARK    2  A    between atoms: C_2  and  C_3
REMARK    3  A    between atoms: C_2  and  C_4
REMARK    4  A    between atoms: C_2  and  N_5
REMARK    5  A    between atoms: C_6  and  C_8
REMARK                            x       y       z     vdW  Elec       q    Type
REMARK                         _______ _______ _______ _____ _____    ______ ____
ROOT
ATOM      1  C   UNL     1       3.034   6.579  18.371  0.00  0.00    +0.000 C 
ATOM      2  C   UNL     1       2.133   5.484  17.751  0.00  0.00    +0.000 C 
ATOM      3  C   UNL     1       1.929   4.327  18.698  0.00  0.00    +0.000 A 
ATOM      4  C   UNL     1       1.956   2.997  18.282  0.00  0.00    +0.000 A 
ATOM      5  C   UNL     1       1.751   1.983  19.218  0.00  0.00    +0.000 A 
ATOM      6  C   UNL     1       1.476   2.296  20.551  0.00  0.00    +0.000 A 
ATOM      7  C   UNL     1       1.449   3.626  20.971  0.00  0.00    +0.000 A 
ATOM      8  C   UNL     1       1.716   4.643  20.053  0.00  0.00    +0.000 A 
ATOM      9  C   UNL     1       1.885   6.085  20.454  0.00  0.00    +0.000 C 
ATOM     10  N   UNL     1       3.132   6.578  19.860  0.00  0.00    +0.000 NA
ATOM     11  H   UNL     1       3.328   7.525  20.181  0.00  0.00    +0.000 HD
ENDROOT
BRANCH   1  13
ATOM     12  N   UNL     1       5.468   6.189  18.588  0.00  0.00    +0.000 N 
ATOM     13  C   UNL     1       4.426   6.469  17.726  0.00  0.00    +0.000 C 
ATOM     14  O   UNL     1       4.554   6.535  16.506  0.00  0.00    +0.000 OA
ATOM     15  H   UNL     1       5.219   6.119  19.573  0.00  0.00    +0.000 HD
BRANCH  12  17
ATOM     16  C   UNL     1       6.869   4.610  17.259  0.00  0.00    +0.000 C 
ATOM     17  C   UNL     1       6.840   5.858  18.163  0.00  0.00    +0.000 C 
ATOM     18  C   UNL     1       7.748   5.633  19.387  0.00  0.00    +0.000 C 
ATOM     19  C   UNL     1       7.419   7.033  17.351  0.00  0.00    +0.000 C 
ENDBRANCH  12  17
ENDBRANCH   1  13
TORSDOF 2
ENDMDL
MODEL 3
REMARK VINA RESULT:      -6.8      0.736      1.300
REMARK  Name = 
REMARK  5 active torsions:
REMARK  status: ('A' for Active; 'I' for Inactive)
REMARK    1  A    between atoms: C_1  and  C_2
REMARK    2  A    between atoms: C_2  and  C_3
REMARK    3  A    between atoms: C_2  and  C_4
REMARK    4  A    between atoms: C_2  and  N_5
REMARK    5  A    between atoms: C_6  and  C_8
REMARK                            x       y       z     vdW  Elec       q    Type
REMARK                         _______ _______ _______ _____ _____    ______ ____
ROOT
ATOM      1  C   UNL     1       3.128   6.374  18.097  0.00  0.00    +0.000 C 
ATOM      2  C   UNL     1       2.617   4.939  17.822  0.00  0.00    +0.000 C 
ATOM      3  C   UNL     1       2.606   4.101  19.077  0.00  0.00    +0.000 A 
ATOM      4  C   UNL     1       3.021   2.771  19.100  0.00  0.00    +0.000 A 
ATOM      5  C   UNL     1       2.975   2.059  20.299  0.00  0.00    +0.000 A 
ATOM      6  C   UNL     1       2.474   2.659  21.457  0.00  0.00    +0.000 A 
ATOM      7  C   UNL     1       2.057   3.989  21.438  0.00  0.00    +0.000 A 
ATOM      8  C   UNL     1       2.161   4.726  20.257  0.00  0.00    +0.000 A 
ATOM      9  C   UNL     1       1.906   6.209  20.191  0.00  0.00    +0.000 C 
ATOM     10  N   UNL     1       3.047   6.836  19.513  0.00  0.00    +0.000 NA
ATOM     11  H   UNL     1       2.954   7.850  19.528  0.00  0.00    +0.000 HD
ENDROOT
BRANCH   1  13
ATOM     12  N   UNL     1       5.563   6.111  18.451  0.00  0.00    +0.000 N 
ATOM     13  C   UNL     1       4.567   6.475  17.565  0.00  0.00    +0.000 C 
ATOM     14  O   UNL     1       4.778   6.770  16.391  0.00  0.00    +0.000 OA
ATOM     15  H   UNL     1       5.249   5.847  19.383  0.00  0.00    +0.000 HD
BRANCH  12  17
ATOM     16  C   UNL     1       7.851   5.656  19.331  0.00  0.00    +0.000 C 
ATOM     17  C   UNL     1       6.984   5.954  18.093  0.00  0.00    +0.000 C 
ATOM     18  C   UNL     1       7.508   7.219  17.386  0.00  0.00    +0.000 C 
ATOM     19  C   UNL     1       7.137   4.768  17.122  0.00  0.00    +0.000 C 
ENDBRANCH  12  17
ENDBRANCH   1  13
TORSDOF 2
ENDMDL
MODEL 4
REMARK VINA RESULT:      -6.7      1.287      1.497
REMARK  Name = 
REMARK  5 active torsions:
REMARK  status: ('A' for Active; 'I' for Inactive)
REMARK    1  A    between atoms: C_1  and  C_2
REMARK    2  A    between atoms: C_2  and  C_3
REMARK    3  A    between atoms: C_2  and  C_4
REMARK    4  A    between atoms: C_2  and  N_5
REMARK    5  A    between atoms: C_6  and  C_8
REMARK                            x       y       z     vdW  Elec       q    Type
REMARK                         _______ _______ _______ _____ _____    ______ ____
ROOT
ATOM      1  C   UNL     1       3.593   6.118  18.890  0.00  0.00    +0.000 C 
ATOM      2  C   UNL     1       2.749   5.345  17.848  0.00  0.00    +0.000 C 
ATOM      3  C   UNL     1       2.057   4.154  18.464  0.00  0.00    +0.000 A 
ATOM      4  C   UNL     1       1.974   2.916  17.828  0.00  0.00    +0.000 A 
ATOM      5  C   UNL     1       1.311   1.864  18.460  0.00  0.00    +0.000 A 
ATOM      6  C   UNL     1       0.696   2.059  19.699  0.00  0.00    +0.000 A 
ATOM      7  C   UNL     1       0.777   3.295  20.339  0.00  0.00    +0.000 A 
ATOM      8  C   UNL     1       1.493   4.334  19.741  0.00  0.00    +0.000 A 
ATOM      9  C   UNL     1       1.784   5.637  20.439  0.00  0.00    +0.000 C 
ATOM     10  N   UNL     1       3.221   5.906  20.319  0.00  0.00    +0.000 NA
ATOM     11  H   UNL     1       3.473   6.735  20.855  0.00  0.00    +0.000 HD
ENDROOT
BRANCH   1  13
ATOM     12  N   UNL     1       5.479   5.769  17.327  0.00  0.00    +0.000 N 
ATOM     13  C   UNL     1       5.072   5.778  18.647  0.00  0.00    +0.000 C 
ATOM     14  O   UNL     1       5.840   5.626  19.594  0.00  0.00    +0.000 OA
ATOM     15  H   UNL     1       4.750   5.952  16.640  0.00  0.00    +0.000 HD
BRANCH  12  17
ATOM     16  C   UNL     1       6.976   5.350  15.377  0.00  0.00    +0.000 C 
ATOM     17  C   UNL     1       6.881   5.655  16.884  0.00  0.00    +0.000 C 
ATOM     18  C   UNL     1       7.614   4.560  17.682  0.00  0.00    +0.000 C 
ATOM     19  C   UNL     1       7.605   6.991  17.135  0.00  0.00    +0.000 C 
ENDBRANCH  12  17
ENDBRANCH   1  13
TORSDOF 2
ENDMDL
MODEL 5
REMARK VINA RESULT:      -6.7      3.509      5.191
REMARK  Name = 
REMARK  5 active torsions:
REMARK  status: ('A' for Active; 'I' for Inactive)
REMARK    1  A    between atoms: C_1  and  C_2
REMARK    2  A    between atoms: C_2  and  C_3
REMARK    3  A    between atoms: C_2  and  C_4
REMARK    4  A    between atoms: C_2  and  N_5
REMARK    5  A    between atoms: C_6  and  C_8
REMARK                            x       y       z     vdW  Elec       q    Type
REMARK                         _______ _______ _______ _____ _____    ______ ____
ROOT
ATOM      1  C   UNL     1       6.328   4.099  16.150  0.00  0.00    +0.000 C 
ATOM      2  C   UNL     1       6.361   5.461  16.884  0.00  0.00    +0.000 C 
ATOM      3  C   UNL     1       4.984   5.886  17.332  0.00  0.00    +0.000 A 
ATOM      4  C   UNL     1       4.525   7.197  17.221  0.00  0.00    +0.000 A 
ATOM      5  C   UNL     1       3.241   7.514  17.665  0.00  0.00    +0.000 A 
ATOM      6  C   UNL     1       2.438   6.536  18.258  0.00  0.00    +0.000 A 
ATOM      7  C   UNL     1       2.894   5.223  18.371  0.00  0.00    +0.000 A 
ATOM      8  C   UNL     1       4.152   4.887  17.871  0.00  0.00    +0.000 A 
ATOM      9  C   UNL     1       4.648   3.466  17.787  0.00  0.00    +0.000 C 
ATOM     10  N   UNL     1       5.142   3.237  16.424  0.00  0.00    +0.000 NA
ATOM     11  H   UNL     1       5.404   2.261  16.302  0.00  0.00    +0.000 HD
ENDROOT
BRANCH   1  13
ATOM     12  N   UNL     1       6.274   3.282  13.815  0.00  0.00    +0.000 N 
ATOM     13  C   UNL     1       6.478   4.368  14.644  0.00  0.00    +0.000 C 
ATOM     14  O   UNL     1       6.672   5.509  14.230  0.00  0.00    +0.000 OA
ATOM     15  H   UNL     1       6.080   2.400  14.284  0.00  0.00    +0.000 HD
BRANCH  12  17
ATOM     16  C   UNL     1       7.186   4.372  11.765  0.00  0.00    +0.000 C 
ATOM     17  C   UNL     1       6.184   3.356  12.345  0.00  0.00    +0.000 C 
ATOM     18  C   UNL     1       4.755   3.730  11.908  0.00  0.00    +0.000 C 
ATOM     19  C   UNL     1       6.519   1.978  11.744  0.00  0.00    +0.000 C 
ENDBRANCH  12  17
ENDBRANCH   1  13
TORSDOF 2
ENDMDL
MODEL 6
REMARK VINA RESULT:      -6.7      1.282      1.361
REMARK  Name = 
REMARK  5 active torsions:
REMARK  status: ('A' for Active; 'I' for Inactive)
REMARK    1  A    between atoms: C_1  and  C_2
REMARK    2  A    between atoms: C_2  and  C_3
REMARK    3  A    between atoms: C_2  and  C_4
REMARK    4  A    between atoms: C_2  and  N_5
REMARK    5  A    between atoms: C_6  and  C_8
REMARK                            x       y       z     vdW  Elec       q    Type
REMARK                         _______ _______ _______ _____ _____    ______ ____
ROOT
ATOM      1  C   UNL     1       3.574   6.123  18.899  0.00  0.00    +0.000 C 
ATOM      2  C   UNL     1       2.738   5.345  17.854  0.00  0.00    +0.000 C 
ATOM      3  C   UNL     1       2.057   4.145  18.465  0.00  0.00    +0.000 A 
ATOM      4  C   UNL     1       1.986   2.909  17.825  0.00  0.00    +0.000 A 
ATOM      5  C   UNL     1       1.333   1.848  18.453  0.00  0.00    +0.000 A 
ATOM      6  C   UNL     1       0.715   2.034  19.693  0.00  0.00    +0.000 A 
ATOM      7  C   UNL     1       0.785   3.268  20.336  0.00  0.00    +0.000 A 
ATOM      8  C   UNL     1       1.491   4.316  19.743  0.00  0.00    +0.000 A 
ATOM      9  C   UNL     1       1.768   5.619  20.445  0.00  0.00    +0.000 C 
ATOM     10  N   UNL     1       3.204   5.902  20.327  0.00  0.00    +0.000 NA
ATOM     11  H   UNL     1       3.447   6.731  20.866  0.00  0.00    +0.000 HD
ENDROOT
BRANCH   1  13
ATOM     12  N   UNL     1       5.470   5.819  17.338  0.00  0.00    +0.000 N 
ATOM     13  C   UNL     1       5.057   5.798  18.656  0.00  0.00    +0.000 C 
ATOM     14  O   UNL     1       5.822   5.631  19.604  0.00  0.00    +0.000 OA
ATOM     15  H   UNL     1       4.743   6.011  16.652  0.00  0.00    +0.000 HD
BRANCH  12  17
ATOM     16  C   UNL     1       7.649   7.022  17.189  0.00  0.00    +0.000 C 
ATOM     17  C   UNL     1       6.874   5.723  16.900  0.00  0.00    +0.000 C 
ATOM     18  C   UNL     1       6.951   5.398  15.396  0.00  0.00    +0.000 C 
ATOM     19  C   UNL     1       7.572   4.584  17.668  0.00  0.00    +0.000 C 
ENDBRANCH  12  17
ENDBRANCH   1  13
TORSDOF 2
ENDMDL
MODEL 7
REMARK VINA RESULT:      -6.7      0.782      1.386
REMARK  Name = 
REMARK  5 active torsions:
REMARK  status: ('A' for Active; 'I' for Inactive)
REMARK    1  A    between atoms: C_1  and  C_2
REMARK    2  A    between atoms: C_2  and  C_3
REMARK    3  A    between atoms: C_2  and  C_4
REMARK    4  A    between atoms: C_2  and  N_5
REMARK    5  A    between atoms: C_6  and  C_8
REMARK                            x       y       z     vdW  Elec       q    Type
REMARK                         _______ _______ _______ _____ _____    ______ ____
ROOT
ATOM      1  C   UNL     1       3.179   6.255  18.224  0.00  0.00    +0.000 C 
ATOM      2  C   UNL     1       2.142   5.221  17.722  0.00  0.00    +0.000 C 
ATOM      3  C   UNL     1       1.834   4.185  18.775  0.00  0.00    +0.000 A 
ATOM      4  C   UNL     1       1.699   2.829  18.483  0.00  0.00    +0.000 A 
ATOM      5  C   UNL     1       1.406   1.932  19.511  0.00  0.00    +0.000 A 
ATOM      6  C   UNL     1       1.205   2.393  20.815  0.00  0.00    +0.000 A 
ATOM      7  C   UNL     1       1.341   3.749  21.111  0.00  0.00    +0.000 A 
ATOM      8  C   UNL     1       1.696   4.642  20.099  0.00  0.00    +0.000 A 
ATOM      9  C   UNL     1       2.038   6.086  20.363  0.00  0.00    +0.000 C 
ATOM     10  N   UNL     1       3.317   6.377  19.704  0.00  0.00    +0.000 NA
ATOM     11  H   UNL     1       3.627   7.319  19.933  0.00  0.00    +0.000 HD
ENDROOT
BRANCH   1  13
ATOM     12  N   UNL     1       5.572   6.781  17.878  0.00  0.00    +0.000 N 
ATOM     13  C   UNL     1       4.530   5.928  17.568  0.00  0.00    +0.000 C 
ATOM     14  O   UNL     1       4.666   4.910  16.894  0.00  0.00    +0.000 OA
ATOM     15  H   UNL     1       5.334   7.566  18.482  0.00  0.00    +0.000 HD
BRANCH  12  17
ATOM     16  C   UNL     1       7.652   5.533  18.460  0.00  0.00    +0.000 C 
ATOM     17  C   UNL     1       6.981   6.548  17.514  0.00  0.00    +0.000 C 
ATOM     18  C   UNL     1       7.771   7.871  17.530  0.00  0.00    +0.000 C 
ATOM     19  C   UNL     1       7.050   5.970  16.087  0.00  0.00    +0.000 C 
ENDBRANCH  12  17
ENDBRANCH   1  13
TORSDOF 2
ENDMDL
MODEL 8
REMARK VINA RESULT:      -6.6      3.530      5.266
REMARK  Name = 
REMARK  5 active torsions:
REMARK  status: ('A' for Active; 'I' for Inactive)
REMARK    1  A    between atoms: C_1  and  C_2
REMARK    2  A    between atoms: C_2  and  C_3
REMARK    3  A    between atoms: C_2  and  C_4
REMARK    4  A    between atoms: C_2  and  N_5
REMARK    5  A    between atoms: C_6  and  C_8
REMARK                            x       y       z     vdW  Elec       q    Type
REMARK                         _______ _______ _______ _____ _____    ______ ____
ROOT
ATOM      1  C   UNL     1       6.252   4.030  16.134  0.00  0.00    +0.000 C 
ATOM      2  C   UNL     1       6.325   5.376  16.895  0.00  0.00    +0.000 C 
ATOM      3  C   UNL     1       4.958   5.850  17.322  0.00  0.00    +0.000 A 
ATOM      4  C   UNL     1       4.556   7.181  17.227  0.00  0.00    +0.000 A 
ATOM      5  C   UNL     1       3.277   7.543  17.649  0.00  0.00    +0.000 A 
ATOM      6  C   UNL     1       2.421   6.590  18.206  0.00  0.00    +0.000 A 
ATOM      7  C   UNL     1       2.818   5.257  18.302  0.00  0.00    +0.000 A 
ATOM      8  C   UNL     1       4.073   4.877  17.823  0.00  0.00    +0.000 A 
ATOM      9  C   UNL     1       4.510   3.438  17.722  0.00  0.00    +0.000 C 
ATOM     10  N   UNL     1       5.024   3.214  16.366  0.00  0.00    +0.000 NA
ATOM     11  H   UNL     1       5.248   2.230  16.230  0.00  0.00    +0.000 HD
ENDROOT
BRANCH   1  13
ATOM     12  N   UNL     1       6.264   3.247  13.786  0.00  0.00    +0.000 N 
ATOM     13  C   UNL     1       6.446   4.320  14.637  0.00  0.00    +0.000 C 
ATOM     14  O   UNL     1       6.655   5.467  14.246  0.00  0.00    +0.000 OA
ATOM     15  H   UNL     1       6.054   2.358  14.237  0.00  0.00    +0.000 HD
BRANCH  12  17
ATOM     16  C   UNL     1       6.582   2.003  11.649  0.00  0.00    +0.000 C 
ATOM     17  C   UNL     1       6.217   3.343  12.316  0.00  0.00    +0.000 C 
ATOM     18  C   UNL     1       7.166   4.448  11.814  0.00  0.00    +0.000 C 
ATOM     19  C   UNL     1       4.786   3.708  11.875  0.00  0.00    +0.000 C 
ENDBRANCH  12  17
ENDBRANCH   1  13
TORSDOF 2
ENDMDL
MODEL 9
REMARK VINA RESULT:      -6.6      1.132      1.654
REMARK  Name = 
REMARK  5 active torsions:
REMARK  status: ('A' for Active; 'I' for Inactive)
REMARK    1  A    between atoms: C_1  and  C_2
REMARK    2  A    between atoms: C_2  and  C_3
REMARK    3  A    between atoms: C_2  and  C_4
REMARK    4  A    between atoms: C_2  and  N_5
REMARK    5  A    between atoms: C_6  and  C_8
REMARK                            x       y       z     vdW  Elec       q    Type
REMARK                         _______ _______ _______ _____ _____    ______ ____
ROOT
ATOM      1  C   UNL     1       2.910   6.528  18.346  0.00  0.00    +0.000 C 
ATOM      2  C   UNL     1       1.973   5.417  17.813  0.00  0.00    +0.000 C 
ATOM      3  C   UNL     1       1.814   4.296  18.810  0.00  0.00    +0.000 A 
ATOM      4  C   UNL     1       1.814   2.952  18.441  0.00  0.00    +0.000 A 
ATOM      5  C   UNL     1       1.655   1.972  19.421  0.00  0.00    +0.000 A 
ATOM      6  C   UNL     1       1.452   2.333  20.755  0.00  0.00    +0.000 A 
ATOM      7  C   UNL     1       1.453   3.677  21.128  0.00  0.00    +0.000 A 
ATOM      8  C   UNL     1       1.675   4.660  20.163  0.00  0.00    +0.000 A 
ATOM      9  C   UNL     1       1.870   6.114  20.503  0.00  0.00    +0.000 C 
ATOM     10  N   UNL     1       3.086   6.579  19.826  0.00  0.00    +0.000 NA
ATOM     11  H   UNL     1       3.302   7.536  20.103  0.00  0.00    +0.000 HD
ENDROOT
BRANCH   1  13
ATOM     12  N   UNL     1       4.555   5.133  17.134  0.00  0.00    +0.000 N 
ATOM     13  C   UNL     1       4.264   6.388  17.633  0.00  0.00    +0.000 C 
ATOM     14  O   UNL     1       4.977   7.372  17.448  0.00  0.00    +0.000 OA
ATOM     15  H   UNL     1       3.860   4.412  17.321  0.00  0.00    +0.000 HD
BRANCH  12  17
ATOM     16  C   UNL     1       7.043   5.027  16.992  0.00  0.00    +0.000 C 
ATOM     17  C   UNL     1       5.702   4.823  16.261  0.00  0.00    +0.000 C 
ATOM     18  C   UNL     1       5.666   5.695  14.991  0.00  0.00    +0.000 C 
ATOM     19  C   UNL     1       5.628   3.347  15.827  0.00  0.00    +0.000 C 
ENDBRANCH  12  17
ENDBRANCH   1  13
TORSDOF 2
ENDMDL
