MODEL 1
REMARK VINA RESULT:      -8.2      0.000      0.000
REMARK  Name = 
REMARK  7 active torsions:
REMARK  status: ('A' for Active; 'I' for Inactive)
REMARK    1  A    between atoms: C_1  and  O_2
REMARK    2  A    between atoms: O_2  and  C_3
REMARK    3  A    between atoms: C_3  and  C_5
REMARK    4  A    between atoms: C_8  and  N_9
REMARK    5  A    between atoms: C_12  and  C_13
REMARK    6  A    between atoms: C_18  and  C_20
REMARK    7  A    between atoms: C_28  and  C_29
REMARK                            x       y       z     vdW  Elec       q    Type
REMARK                         _______ _______ _______ _____ _____    ______ ____
ROOT
ATOM      1  N   UNL     1       3.093   6.472  18.650  0.00  0.00    +0.000 N 
ATOM      2  N   UNL     1       2.732   5.639  19.654  0.00  0.00    +0.000 NA
ATOM      3  N   UNL     1       2.030   6.330  20.541  0.00  0.00    +0.000 NA
ATOM      4  C   UNL     1       1.839   7.589  20.043  0.00  0.00    +0.000 A 
ATOM      5  C   UNL     1       2.495   7.715  18.831  0.00  0.00    +0.000 A 
ATOM      6  C   UNL     1       2.474   8.810  17.831  0.00  0.00    +0.000 C 
ENDROOT
BRANCH   4   7
ATOM      7  C   UNL     1       0.933   8.528  20.722  0.00  0.00    +0.000 A 
ATOM      8  N   UNL     1       0.356   8.244  21.900  0.00  0.00    +0.000 NA
ATOM      9  S   UNL     1      -0.442   9.628  22.384  0.00  0.00    +0.000 S 
ATOM     10  C   UNL     1      -0.027  10.474  20.963  0.00  0.00    +0.000 A 
ATOM     11  N   UNL     1      -0.479  11.761  20.859  0.00  0.00    +0.000 N 
ATOM     12  C   UNL     1      -0.365  12.440  19.667  0.00  0.00    +0.000 C 
ATOM     13  O   UNL     1      -0.004  11.955  18.599  0.00  0.00    +0.000 OA
ATOM     14  N   UNL     1       0.713   9.770  20.147  0.00  0.00    +0.000 NA
ATOM     15  H   UNL     1      -0.861  12.181  21.689  0.00  0.00    +0.000 HD
BRANCH  12  16
ATOM     16  C   UNL     1      -0.707  13.888  19.681  0.00  0.00    +0.000 A 
ATOM     17  C   UNL     1      -1.665  14.306  20.622  0.00  0.00    +0.000 A 
ATOM     18  C   UNL     1      -2.045  15.643  20.706  0.00  0.00    +0.000 A 
ATOM     19  C   UNL     1      -1.469  16.574  19.848  0.00  0.00    +0.000 A 
ATOM     20 CL   UNL     1      -1.940  18.224  19.942  0.00  0.00    +0.000 Cl
ATOM     21  C   UNL     1      -0.506  16.179  18.916  0.00  0.00    +0.000 A 
ATOM     22  C   UNL     1      -0.117  14.834  18.832  0.00  0.00    +0.000 A 
ENDBRANCH  12  16
ENDBRANCH   4   7
BRANCH   1  26
ATOM     23  C   UNL     1       5.655   5.117  15.570  0.00  0.00    +0.000 A 
ATOM     24  C   UNL     1       5.385   6.485  15.718  0.00  0.00    +0.000 A 
ATOM     25  C   UNL     1       4.494   6.931  16.704  0.00  0.00    +0.000 A 
ATOM     26  C   UNL     1       3.898   6.009  17.577  0.00  0.00    +0.000 A 
ATOM     27  C   UNL     1       4.122   4.642  17.387  0.00  0.00    +0.000 A 
ATOM     28  C   UNL     1       4.998   4.198  16.395  0.00  0.00    +0.000 A 
BRANCH  23  29
ATOM     29  C   UNL     1       6.643   4.680  14.546  0.00  0.00    +0.000 C 
ATOM     30  O   UNL     1       7.627   5.330  14.233  0.00  0.00    +0.000 OA
BRANCH  29  32
ATOM     31  C   UNL     1       5.737   3.505  12.732  0.00  0.00    +0.000 C 
ATOM     32  O   UNL     1       6.297   3.468  14.045  0.00  0.00    +0.000 OA
ENDBRANCH  29  32
ENDBRANCH  23  29
ENDBRANCH   1  26
TORSDOF 5
ENDMDL
MODEL 2
REMARK VINA RESULT:      -8.0      0.693      1.004
REMARK  Name = 
REMARK  7 active torsions:
REMARK  status: ('A' for Active; 'I' for Inactive)
REMARK    1  A    between atoms: C_1  and  O_2
REMARK    2  A    between atoms: O_2  and  C_3
REMARK    3  A    between atoms: C_3  and  C_5
REMARK    4  A    between atoms: C_8  and  N_9
REMARK    5  A    between atoms: C_12  and  C_13
REMARK    6  A    between atoms: C_18  and  C_20
REMARK    7  A    between atoms: C_28  and  C_29
REMARK                            x       y       z     vdW  Elec       q    Type
REMARK                         _______ _______ _______ _____ _____    ______ ____
ROOT
ATOM      1  N   UNL     1       2.990   6.455  18.767  0.00  0.00    +0.000 N 
ATOM      2  N   UNL     1       2.664   5.658  19.811  0.00  0.00    +0.000 NA
ATOM      3  N   UNL     1       1.991   6.379  20.697  0.00  0.00    +0.000 NA
ATOM      4  C   UNL     1       1.783   7.620  20.162  0.00  0.00    +0.000 A 
ATOM      5  C   UNL     1       2.397   7.704  18.925  0.00  0.00    +0.000 A 
ATOM      6  C   UNL     1       2.341   8.763  17.888  0.00  0.00    +0.000 C 
ENDROOT
BRANCH   4   7
ATOM      7  C   UNL     1       0.898   8.582  20.838  0.00  0.00    +0.000 A 
ATOM      8  N   UNL     1       0.167   8.251  21.913  0.00  0.00    +0.000 NA
ATOM      9  S   UNL     1      -0.546   9.660  22.454  0.00  0.00    +0.000 S 
ATOM     10  C   UNL     1       0.107  10.587  21.180  0.00  0.00    +0.000 A 
ATOM     11  N   UNL     1      -0.207  11.919  21.165  0.00  0.00    +0.000 N 
ATOM     12  C   UNL     1       0.107  12.690  20.069  0.00  0.00    +0.000 C 
ATOM     13  O   UNL     1       0.538  12.272  19.000  0.00  0.00    +0.000 OA
ATOM     14  N   UNL     1       0.864   9.888  20.376  0.00  0.00    +0.000 NA
ATOM     15  H   UNL     1      -0.638  12.298  21.991  0.00  0.00    +0.000 HD
BRANCH  12  16
ATOM     16  C   UNL     1      -0.096  14.159  20.200  0.00  0.00    +0.000 A 
ATOM     17  C   UNL     1      -0.289  14.883  19.010  0.00  0.00    +0.000 A 
ATOM     18  C   UNL     1      -0.486  16.261  19.038  0.00  0.00    +0.000 A 
ATOM     19  C   UNL     1      -0.490  16.927  20.259  0.00  0.00    +0.000 A 
ATOM     20 CL   UNL     1      -0.725  18.630  20.299  0.00  0.00    +0.000 Cl
ATOM     21  C   UNL     1      -0.313  16.222  21.452  0.00  0.00    +0.000 A 
ATOM     22  C   UNL     1      -0.120  14.833  21.428  0.00  0.00    +0.000 A 
ENDBRANCH  12  16
ENDBRANCH   4   7
BRANCH   1  26
ATOM     23  C   UNL     1       5.444   4.961  15.663  0.00  0.00    +0.000 A 
ATOM     24  C   UNL     1       5.348   6.342  15.890  0.00  0.00    +0.000 A 
ATOM     25  C   UNL     1       4.495   6.841  16.883  0.00  0.00    +0.000 A 
ATOM     26  C   UNL     1       3.760   5.955  17.684  0.00  0.00    +0.000 A 
ATOM     27  C   UNL     1       3.811   4.584  17.414  0.00  0.00    +0.000 A 
ATOM     28  C   UNL     1       4.650   4.089  16.415  0.00  0.00    +0.000 A 
BRANCH  23  29
ATOM     29  C   UNL     1       6.396   4.461  14.634  0.00  0.00    +0.000 C 
ATOM     30  O   UNL     1       7.599   4.660  14.670  0.00  0.00    +0.000 OA
BRANCH  29  32
ATOM     31  C   UNL     1       6.450   3.579  12.464  0.00  0.00    +0.000 C 
ATOM     32  O   UNL     1       5.734   3.748  13.688  0.00  0.00    +0.000 OA
ENDBRANCH  29  32
ENDBRANCH  23  29
ENDBRANCH   1  26
TORSDOF 5
ENDMDL
MODEL 3
REMARK VINA RESULT:      -8.0      0.396      1.286
REMARK  Name = 
REMARK  7 active torsions:
REMARK  status: ('A' for Active; 'I' for Inactive)
REMARK    1  A    between atoms: C_1  and  O_2
REMARK    2  A    between atoms: O_2  and  C_3
REMARK    3  A    between atoms: C_3  and  C_5
REMARK    4  A    between atoms: C_8  and  N_9
REMARK    5  A    between atoms: C_12  and  C_13
REMARK    6  A    between atoms: C_18  and  C_20
REMARK    7  A    between atoms: C_28  and  C_29
REMARK                            x       y       z     vdW  Elec       q    Type
REMARK                         _______ _______ _______ _____ _____    ______ ____
ROOT
ATOM      1  N   UNL     1       3.132   6.377  18.733  0.00  0.00    +0.000 N 
ATOM      2  N   UNL     1       2.794   5.568  19.765  0.00  0.00    +0.000 NA
ATOM      3  N   UNL     1       2.089   6.273  20.638  0.00  0.00    +0.000 NA
ATOM      4  C   UNL     1       1.874   7.514  20.107  0.00  0.00    +0.000 A 
ATOM      5  C   UNL     1       2.517   7.615  18.885  0.00  0.00    +0.000 A 
ATOM      6  C   UNL     1       2.469   8.680  17.854  0.00  0.00    +0.000 C 
ENDROOT
BRANCH   4   7
ATOM      7  C   UNL     1       0.959   8.457  20.767  0.00  0.00    +0.000 A 
ATOM      8  N   UNL     1       0.359   8.177  21.934  0.00  0.00    +0.000 NA
ATOM      9  S   UNL     1      -0.442   9.565  22.402  0.00  0.00    +0.000 S 
ATOM     10  C   UNL     1       0.005  10.408  20.988  0.00  0.00    +0.000 A 
ATOM     11  N   UNL     1      -0.440  11.697  20.874  0.00  0.00    +0.000 N 
ATOM     12  C   UNL     1      -0.299  12.374  19.684  0.00  0.00    +0.000 C 
ATOM     13  O   UNL     1       0.079  11.887  18.624  0.00  0.00    +0.000 OA
ATOM     14  N   UNL     1       0.756   9.700  20.187  0.00  0.00    +0.000 NA
ATOM     15  H   UNL     1      -0.835  12.120  21.697  0.00  0.00    +0.000 HD
BRANCH  12  16
ATOM     16  C   UNL     1      -0.635  13.824  19.691  0.00  0.00    +0.000 A 
ATOM     17  C   UNL     1       0.045  14.638  18.768  0.00  0.00    +0.000 A 
ATOM     18  C   UNL     1      -0.207  16.007  18.705  0.00  0.00    +0.000 A 
ATOM     19  C   UNL     1      -1.141  16.572  19.566  0.00  0.00    +0.000 A 
ATOM     20 CL   UNL     1      -1.449  18.262  19.498  0.00  0.00    +0.000 Cl
ATOM     21  C   UNL     1      -1.834  15.776  20.481  0.00  0.00    +0.000 A 
ATOM     22  C   UNL     1      -1.588  14.397  20.544  0.00  0.00    +0.000 A 
ENDBRANCH  12  16
ENDBRANCH   4   7
BRANCH   1  26
ATOM     23  C   UNL     1       5.362   4.953  15.434  0.00  0.00    +0.000 A 
ATOM     24  C   UNL     1       4.678   4.056  16.268  0.00  0.00    +0.000 A 
ATOM     25  C   UNL     1       3.982   4.522  17.393  0.00  0.00    +0.000 A 
ATOM     26  C   UNL     1       3.935   5.896  17.666  0.00  0.00    +0.000 A 
ATOM     27  C   UNL     1       4.668   6.780  16.868  0.00  0.00    +0.000 A 
ATOM     28  C   UNL     1       5.373   6.314  15.757  0.00  0.00    +0.000 A 
BRANCH  23  29
ATOM     29  C   UNL     1       6.049   4.431  14.221  0.00  0.00    +0.000 C 
ATOM     30  O   UNL     1       7.236   4.600  13.989  0.00  0.00    +0.000 OA
BRANCH  29  32
ATOM     31  C   UNL     1       5.738   3.218  12.241  0.00  0.00    +0.000 C 
ATOM     32  O   UNL     1       5.177   3.739  13.446  0.00  0.00    +0.000 OA
ENDBRANCH  29  32
ENDBRANCH  23  29
ENDBRANCH   1  26
TORSDOF 5
ENDMDL
MODEL 4
REMARK VINA RESULT:      -8.0      4.460     11.178
REMARK  Name = 
REMARK  7 active torsions:
REMARK  status: ('A' for Active; 'I' for Inactive)
REMARK    1  A    between atoms: C_1  and  O_2
REMARK    2  A    between atoms: O_2  and  C_3
REMARK    3  A    between atoms: C_3  and  C_5
REMARK    4  A    between atoms: C_8  and  N_9
REMARK    5  A    between atoms: C_12  and  C_13
REMARK    6  A    between atoms: C_18  and  C_20
REMARK    7  A    between atoms: C_28  and  C_29
REMARK                            x       y       z     vdW  Elec       q    Type
REMARK                         _______ _______ _______ _____ _____    ______ ____
ROOT
ATOM      1  N   UNL     1       0.865   9.787  19.568  0.00  0.00    +0.000 N 
ATOM      2  N   UNL     1       1.257  10.075  18.305  0.00  0.00    +0.000 NA
ATOM      3  N   UNL     1       2.126   9.153  17.914  0.00  0.00    +0.000 NA
ATOM      4  C   UNL     1       2.202   8.200  18.891  0.00  0.00    +0.000 A 
ATOM      5  C   UNL     1       1.402   8.565  19.961  0.00  0.00    +0.000 A 
ATOM      6  C   UNL     1       1.024   7.816  21.183  0.00  0.00    +0.000 C 
ENDROOT
BRANCH   4   7
ATOM      7  C   UNL     1       2.945   6.953  18.658  0.00  0.00    +0.000 A 
ATOM      8  N   UNL     1       2.948   5.943  19.541  0.00  0.00    +0.000 NA
ATOM      9  S   UNL     1       3.761   4.678  18.816  0.00  0.00    +0.000 S 
ATOM     10  C   UNL     1       4.114   5.588  17.417  0.00  0.00    +0.000 A 
ATOM     11  N   UNL     1       4.825   4.955  16.435  0.00  0.00    +0.000 N 
ATOM     12  C   UNL     1       5.324   5.673  15.371  0.00  0.00    +0.000 C 
ATOM     13  O   UNL     1       5.315   6.895  15.265  0.00  0.00    +0.000 OA
ATOM     14  N   UNL     1       3.622   6.798  17.458  0.00  0.00    +0.000 NA
ATOM     15  H   UNL     1       4.932   3.959  16.515  0.00  0.00    +0.000 HD
BRANCH  12  16
ATOM     16  C   UNL     1       5.923   4.892  14.254  0.00  0.00    +0.000 A 
ATOM     17  C   UNL     1       5.119   3.896  13.672  0.00  0.00    +0.000 A 
ATOM     18  C   UNL     1       5.599   3.118  12.622  0.00  0.00    +0.000 A 
ATOM     19  C   UNL     1       6.888   3.329  12.145  0.00  0.00    +0.000 A 
ATOM     20 CL   UNL     1       7.487   2.366  10.854  0.00  0.00    +0.000 Cl
ATOM     21  C   UNL     1       7.696   4.323  12.703  0.00  0.00    +0.000 A 
ATOM     22  C   UNL     1       7.215   5.113  13.757  0.00  0.00    +0.000 A 
ENDBRANCH  12  16
ENDBRANCH   4   7
BRANCH   1  26
ATOM     23  C   UNL     1      -1.924  12.164  21.679  0.00  0.00    +0.000 A 
ATOM     24  C   UNL     1      -2.109  11.897  20.314  0.00  0.00    +0.000 A 
ATOM     25  C   UNL     1      -1.158  11.154  19.601  0.00  0.00    +0.000 A 
ATOM     26  C   UNL     1      -0.033  10.639  20.262  0.00  0.00    +0.000 A 
ATOM     27  C   UNL     1       0.178  10.959  21.607  0.00  0.00    +0.000 A 
ATOM     28  C   UNL     1      -0.762  11.711  22.312  0.00  0.00    +0.000 A 
BRANCH  23  29
ATOM     29  C   UNL     1      -2.977  12.914  22.418  0.00  0.00    +0.000 C 
ATOM     30  O   UNL     1      -3.999  12.403  22.846  0.00  0.00    +0.000 OA
BRANCH  29  32
ATOM     31  C   UNL     1      -3.282  15.112  21.666  0.00  0.00    +0.000 C 
ATOM     32  O   UNL     1      -2.617  14.214  22.557  0.00  0.00    +0.000 OA
ENDBRANCH  29  32
ENDBRANCH  23  29
ENDBRANCH   1  26
TORSDOF 5
ENDMDL
MODEL 5
REMARK VINA RESULT:      -7.9      0.591      1.217
REMARK  Name = 
REMARK  7 active torsions:
REMARK  status: ('A' for Active; 'I' for Inactive)
REMARK    1  A    between atoms: C_1  and  O_2
REMARK    2  A    between atoms: O_2  and  C_3
REMARK    3  A    between atoms: C_3  and  C_5
REMARK    4  A    between atoms: C_8  and  N_9
REMARK    5  A    between atoms: C_12  and  C_13
REMARK    6  A    between atoms: C_18  and  C_20
REMARK    7  A    between atoms: C_28  and  C_29
REMARK                            x       y       z     vdW  Elec       q    Type
REMARK                         _______ _______ _______ _____ _____    ______ ____
ROOT
ATOM      1  N   UNL     1       3.246   6.416  18.765  0.00  0.00    +0.000 N 
ATOM      2  N   UNL     1       2.904   5.632  19.814  0.00  0.00    +0.000 NA
ATOM      3  N   UNL     1       2.159   6.346  20.647  0.00  0.00    +0.000 NA
ATOM      4  C   UNL     1       1.925   7.563  20.069  0.00  0.00    +0.000 A 
ATOM      5  C   UNL     1       2.594   7.641  18.860  0.00  0.00    +0.000 A 
ATOM      6  C   UNL     1       2.545   8.670  17.794  0.00  0.00    +0.000 C 
ENDROOT
BRANCH   4   7
ATOM      7  C   UNL     1       0.969   8.503  20.676  0.00  0.00    +0.000 A 
ATOM      8  N   UNL     1       0.223   8.179  21.743  0.00  0.00    +0.000 NA
ATOM      9  S   UNL     1      -0.581   9.568  22.200  0.00  0.00    +0.000 S 
ATOM     10  C   UNL     1       0.061  10.475  20.906  0.00  0.00    +0.000 A 
ATOM     11  N   UNL     1      -0.322  11.785  20.823  0.00  0.00    +0.000 N 
ATOM     12  C   UNL     1      -0.016  12.525  19.703  0.00  0.00    +0.000 C 
ATOM     13  O   UNL     1       0.471  12.086  18.667  0.00  0.00    +0.000 OA
ATOM     14  N   UNL     1       0.880   9.785  20.156  0.00  0.00    +0.000 NA
ATOM     15  H   UNL     1      -0.800  12.175  21.618  0.00  0.00    +0.000 HD
BRANCH  12  16
ATOM     16  C   UNL     1      -0.301  13.985  19.763  0.00  0.00    +0.000 A 
ATOM     17  C   UNL     1      -0.745  14.496  20.995  0.00  0.00    +0.000 A 
ATOM     18  C   UNL     1      -1.034  15.851  21.142  0.00  0.00    +0.000 A 
ATOM     19  C   UNL     1      -0.882  16.705  20.055  0.00  0.00    +0.000 A 
ATOM     20 CL   UNL     1      -1.246  18.376  20.228  0.00  0.00    +0.000 Cl
ATOM     21  C   UNL     1      -0.430  16.217  18.827  0.00  0.00    +0.000 A 
ATOM     22  C   UNL     1      -0.132  14.854  18.677  0.00  0.00    +0.000 A 
ENDBRANCH  12  16
ENDBRANCH   4   7
BRANCH   1  26
ATOM     23  C   UNL     1       5.611   4.997  15.559  0.00  0.00    +0.000 A 
ATOM     24  C   UNL     1       4.683   4.152  16.184  0.00  0.00    +0.000 A 
ATOM     25  C   UNL     1       3.936   4.604  17.281  0.00  0.00    +0.000 A 
ATOM     26  C   UNL     1       4.087   5.922  17.734  0.00  0.00    +0.000 A 
ATOM     27  C   UNL     1       5.057   6.742  17.148  0.00  0.00    +0.000 A 
ATOM     28  C   UNL     1       5.810   6.286  16.065  0.00  0.00    +0.000 A 
BRANCH  23  29
ATOM     29  C   UNL     1       6.352   4.502  14.366  0.00  0.00    +0.000 C 
ATOM     30  O   UNL     1       5.953   3.602  13.646  0.00  0.00    +0.000 OA
BRANCH  29  32
ATOM     31  C   UNL     1       7.909   5.359  12.840  0.00  0.00    +0.000 C 
ATOM     32  O   UNL     1       7.499   5.207  14.200  0.00  0.00    +0.000 OA
ENDBRANCH  29  32
ENDBRANCH  23  29
ENDBRANCH   1  26
TORSDOF 5
ENDMDL
MODEL 6
REMARK VINA RESULT:      -7.8      3.545      4.514
REMARK  Name = 
REMARK  7 active torsions:
REMARK  status: ('A' for Active; 'I' for Inactive)
REMARK    1  A    between atoms: C_1  and  O_2
REMARK    2  A    between atoms: O_2  and  C_3
REMARK    3  A    between atoms: C_3  and  C_5
REMARK    4  A    between atoms: C_8  and  N_9
REMARK    5  A    between atoms: C_12  and  C_13
REMARK    6  A    between atoms: C_18  and  C_20
REMARK    7  A    between atoms: C_28  and  C_29
REMARK                            x       y       z     vdW  Elec       q    Type
REMARK                         _______ _______ _______ _____ _____    ______ ____
ROOT
ATOM      1  N   UNL     1       2.242   7.850  18.909  0.00  0.00    +0.000 N 
ATOM      2  N   UNL     1       2.458   8.349  17.670  0.00  0.00    +0.000 NA
ATOM      3  N   UNL     1       1.908   9.554  17.601  0.00  0.00    +0.000 NA
ATOM      4  C   UNL     1       1.438   9.877  18.843  0.00  0.00    +0.000 A 
ATOM      5  C   UNL     1       1.643   8.817  19.709  0.00  0.00    +0.000 A 
ATOM      6  C   UNL     1       1.456   8.720  21.177  0.00  0.00    +0.000 C 
ENDROOT
BRANCH   4   7
ATOM      7  C   UNL     1       0.943  11.235  19.121  0.00  0.00    +0.000 A 
ATOM      8  N   UNL     1       1.432  12.318  18.499  0.00  0.00    +0.000 NA
ATOM      9  S   UNL     1       0.487  13.608  18.978  0.00  0.00    +0.000 S 
ATOM     10  C   UNL     1      -0.452  12.648  20.029  0.00  0.00    +0.000 A 
ATOM     11  N   UNL     1      -1.446  13.284  20.720  0.00  0.00    +0.000 N 
ATOM     12  C   UNL     1      -2.110  12.631  21.734  0.00  0.00    +0.000 C 
ATOM     13  O   UNL     1      -1.810  11.536  22.197  0.00  0.00    +0.000 OA
ATOM     14  N   UNL     1      -0.103  11.388  20.017  0.00  0.00    +0.000 NA
ATOM     15  H   UNL     1      -1.679  14.219  20.432  0.00  0.00    +0.000 HD
BRANCH  12  16
ATOM     16  C   UNL     1      -3.298  13.317  22.311  0.00  0.00    +0.000 A 
ATOM     17  C   UNL     1      -3.226  14.716  22.435  0.00  0.00    +0.000 A 
ATOM     18  C   UNL     1      -4.292  15.439  22.965  0.00  0.00    +0.000 A 
ATOM     19  C   UNL     1      -5.438  14.769  23.377  0.00  0.00    +0.000 A 
ATOM     20 CL   UNL     1      -6.753  15.656  24.039  0.00  0.00    +0.000 Cl
ATOM     21  C   UNL     1      -5.532  13.380  23.249  0.00  0.00    +0.000 A 
ATOM     22  C   UNL     1      -4.463  12.649  22.711  0.00  0.00    +0.000 A 
ENDBRANCH  12  16
ENDBRANCH   4   7
BRANCH   1  26
ATOM     23  C   UNL     1       3.482   3.897  19.760  0.00  0.00    +0.000 A 
ATOM     24  C   UNL     1       2.195   4.328  20.111  0.00  0.00    +0.000 A 
ATOM     25  C   UNL     1       1.801   5.653  19.878  0.00  0.00    +0.000 A 
ATOM     26  C   UNL     1       2.683   6.546  19.254  0.00  0.00    +0.000 A 
ATOM     27  C   UNL     1       3.986   6.130  18.960  0.00  0.00    +0.000 A 
ATOM     28  C   UNL     1       4.382   4.814  19.206  0.00  0.00    +0.000 A 
BRANCH  23  29
ATOM     29  C   UNL     1       3.853   2.471  19.976  0.00  0.00    +0.000 C 
ATOM     30  O   UNL     1       4.761   2.110  20.706  0.00  0.00    +0.000 OA
BRANCH  29  32
ATOM     31  C   UNL     1       3.180   1.748  17.851  0.00  0.00    +0.000 C 
ATOM     32  O   UNL     1       3.028   1.659  19.269  0.00  0.00    +0.000 OA
ENDBRANCH  29  32
ENDBRANCH  23  29
ENDBRANCH   1  26
TORSDOF 5
ENDMDL
MODEL 7
REMARK VINA RESULT:      -7.7      4.271     10.690
REMARK  Name = 
REMARK  7 active torsions:
REMARK  status: ('A' for Active; 'I' for Inactive)
REMARK    1  A    between atoms: C_1  and  O_2
REMARK    2  A    between atoms: O_2  and  C_3
REMARK    3  A    between atoms: C_3  and  C_5
REMARK    4  A    between atoms: C_8  and  N_9
REMARK    5  A    between atoms: C_12  and  C_13
REMARK    6  A    between atoms: C_18  and  C_20
REMARK    7  A    between atoms: C_28  and  C_29
REMARK                            x       y       z     vdW  Elec       q    Type
REMARK                         _______ _______ _______ _____ _____    ______ ____
ROOT
ATOM      1  N   UNL     1       1.141   8.869  20.111  0.00  0.00    +0.000 N 
ATOM      2  N   UNL     1       1.035   8.123  21.235  0.00  0.00    +0.000 NA
ATOM      3  N   UNL     1       1.631   6.958  21.024  0.00  0.00    +0.000 NA
ATOM      4  C   UNL     1       2.226   7.003  19.794  0.00  0.00    +0.000 A 
ATOM      5  C   UNL     1       1.944   8.213  19.183  0.00  0.00    +0.000 A 
ATOM      6  C   UNL     1       2.468   8.807  17.930  0.00  0.00    +0.000 C 
ENDROOT
BRANCH   4   7
ATOM      7  C   UNL     1       3.124   5.920  19.363  0.00  0.00    +0.000 A 
ATOM      8  N   UNL     1       3.357   4.837  20.119  0.00  0.00    +0.000 NA
ATOM      9  S   UNL     1       4.282   3.801  19.193  0.00  0.00    +0.000 S 
ATOM     10  C   UNL     1       4.366   4.896  17.888  0.00  0.00    +0.000 A 
ATOM     11  N   UNL     1       5.073   4.491  16.789  0.00  0.00    +0.000 N 
ATOM     12  C   UNL     1       5.361   5.386  15.784  0.00  0.00    +0.000 C 
ATOM     13  O   UNL     1       5.160   6.595  15.823  0.00  0.00    +0.000 OA
ATOM     14  N   UNL     1       3.704   6.002  18.106  0.00  0.00    +0.000 NA
ATOM     15  H   UNL     1       5.334   3.521  16.744  0.00  0.00    +0.000 HD
BRANCH  12  16
ATOM     16  C   UNL     1       5.967   4.831  14.542  0.00  0.00    +0.000 A 
ATOM     17  C   UNL     1       5.213   3.875  13.839  0.00  0.00    +0.000 A 
ATOM     18  C   UNL     1       5.702   3.304  12.667  0.00  0.00    +0.000 A 
ATOM     19  C   UNL     1       6.952   3.684  12.189  0.00  0.00    +0.000 A 
ATOM     20 CL   UNL     1       7.564   2.976  10.748  0.00  0.00    +0.000 Cl
ATOM     21  C   UNL     1       7.709   4.642  12.868  0.00  0.00    +0.000 A 
ATOM     22  C   UNL     1       7.217   5.224  14.046  0.00  0.00    +0.000 A 
ENDBRANCH  12  16
ENDBRANCH   4   7
BRANCH   1  26
ATOM     23  C   UNL     1      -0.730  12.662  20.052  0.00  0.00    +0.000 A 
ATOM     24  C   UNL     1      -1.344  11.558  19.442  0.00  0.00    +0.000 A 
ATOM     25  C   UNL     1      -0.701  10.313  19.415  0.00  0.00    +0.000 A 
ATOM     26  C   UNL     1       0.547  10.156  20.034  0.00  0.00    +0.000 A 
ATOM     27  C   UNL     1       1.183  11.272  20.587  0.00  0.00    +0.000 A 
ATOM     28  C   UNL     1       0.549  12.515  20.600  0.00  0.00    +0.000 A 
BRANCH  23  29
ATOM     29  C   UNL     1      -1.460  13.958  20.107  0.00  0.00    +0.000 C 
ATOM     30  O   UNL     1      -0.965  15.029  19.798  0.00  0.00    +0.000 OA
BRANCH  29  32
ATOM     31  C   UNL     1      -2.882  13.589  21.932  0.00  0.00    +0.000 C 
ATOM     32  O   UNL     1      -2.737  13.761  20.522  0.00  0.00    +0.000 OA
ENDBRANCH  29  32
ENDBRANCH  23  29
ENDBRANCH   1  26
TORSDOF 5
ENDMDL
MODEL 8
REMARK VINA RESULT:      -7.7      4.566     11.244
REMARK  Name = 
REMARK  7 active torsions:
REMARK  status: ('A' for Active; 'I' for Inactive)
REMARK    1  A    between atoms: C_1  and  O_2
REMARK    2  A    between atoms: O_2  and  C_3
REMARK    3  A    between atoms: C_3  and  C_5
REMARK    4  A    between atoms: C_8  and  N_9
REMARK    5  A    between atoms: C_12  and  C_13
REMARK    6  A    between atoms: C_18  and  C_20
REMARK    7  A    between atoms: C_28  and  C_29
REMARK                            x       y       z     vdW  Elec       q    Type
REMARK                         _______ _______ _______ _____ _____    ______ ____
ROOT
ATOM      1  N   UNL     1       0.913   9.398  19.755  0.00  0.00    +0.000 N 
ATOM      2  N   UNL     1       1.222   9.704  18.473  0.00  0.00    +0.000 NA
ATOM      3  N   UNL     1       2.122   8.833  18.039  0.00  0.00    +0.000 NA
ATOM      4  C   UNL     1       2.306   7.892  19.012  0.00  0.00    +0.000 A 
ATOM      5  C   UNL     1       1.542   8.213  20.122  0.00  0.00    +0.000 A 
ATOM      6  C   UNL     1       1.273   7.448  21.363  0.00  0.00    +0.000 C 
ENDROOT
BRANCH   4   7
ATOM      7  C   UNL     1       3.109   6.689  18.742  0.00  0.00    +0.000 A 
ATOM      8  N   UNL     1       3.267   5.713  19.649  0.00  0.00    +0.000 NA
ATOM      9  S   UNL     1       4.094   4.482  18.883  0.00  0.00    +0.000 S 
ATOM     10  C   UNL     1       4.247   5.365  17.432  0.00  0.00    +0.000 A 
ATOM     11  N   UNL     1       4.904   4.748  16.403  0.00  0.00    +0.000 N 
ATOM     12  C   UNL     1       5.249   5.460  15.276  0.00  0.00    +0.000 C 
ATOM     13  O   UNL     1       5.144   6.674  15.138  0.00  0.00    +0.000 OA
ATOM     14  N   UNL     1       3.677   6.540  17.487  0.00  0.00    +0.000 NA
ATOM     15  H   UNL     1       5.088   3.764  16.500  0.00  0.00    +0.000 HD
BRANCH  12  16
ATOM     16  C   UNL     1       5.792   4.684  14.129  0.00  0.00    +0.000 A 
ATOM     17  C   UNL     1       7.108   4.976  13.729  0.00  0.00    +0.000 A 
ATOM     18  C   UNL     1       7.696   4.297  12.665  0.00  0.00    +0.000 A 
ATOM     19  C   UNL     1       6.972   3.321  11.990  0.00  0.00    +0.000 A 
ATOM     20 CL   UNL     1       7.691   2.486  10.671  0.00  0.00    +0.000 Cl
ATOM     21  C   UNL     1       5.667   3.009  12.382  0.00  0.00    +0.000 A 
ATOM     22  C   UNL     1       5.073   3.686  13.457  0.00  0.00    +0.000 A 
ENDBRANCH  12  16
ENDBRANCH   4   7
BRANCH   1  26
ATOM     23  C   UNL     1      -1.643  11.890  22.022  0.00  0.00    +0.000 A 
ATOM     24  C   UNL     1      -1.070  10.749  22.600  0.00  0.00    +0.000 A 
ATOM     25  C   UNL     1      -0.265   9.893  21.836  0.00  0.00    +0.000 A 
ATOM     26  C   UNL     1       0.003  10.199  20.494  0.00  0.00    +0.000 A 
ATOM     27  C   UNL     1      -0.620  11.304  19.904  0.00  0.00    +0.000 A 
ATOM     28  C   UNL     1      -1.433  12.147  20.663  0.00  0.00    +0.000 A 
BRANCH  23  29
ATOM     29  C   UNL     1      -2.453  12.804  22.874  0.00  0.00    +0.000 C 
ATOM     30  O   UNL     1      -2.111  13.939  23.166  0.00  0.00    +0.000 OA
BRANCH  29  32
ATOM     31  C   UNL     1      -4.079  12.565  24.544  0.00  0.00    +0.000 C 
ATOM     32  O   UNL     1      -3.609  12.200  23.245  0.00  0.00    +0.000 OA
ENDBRANCH  29  32
ENDBRANCH  23  29
ENDBRANCH   1  26
TORSDOF 5
ENDMDL
MODEL 9
REMARK VINA RESULT:      -7.7      3.614      4.619
REMARK  Name = 
REMARK  7 active torsions:
REMARK  status: ('A' for Active; 'I' for Inactive)
REMARK    1  A    between atoms: C_1  and  O_2
REMARK    2  A    between atoms: O_2  and  C_3
REMARK    3  A    between atoms: C_3  and  C_5
REMARK    4  A    between atoms: C_8  and  N_9
REMARK    5  A    between atoms: C_12  and  C_13
REMARK    6  A    between atoms: C_18  and  C_20
REMARK    7  A    between atoms: C_28  and  C_29
REMARK                            x       y       z     vdW  Elec       q    Type
REMARK                         _______ _______ _______ _____ _____    ______ ____
ROOT
ATOM      1  N   UNL     1       2.244   7.901  18.418  0.00  0.00    +0.000 N 
ATOM      2  N   UNL     1       2.621   8.542  17.286  0.00  0.00    +0.000 NA
ATOM      3  N   UNL     1       2.180   9.790  17.343  0.00  0.00    +0.000 NA
ATOM      4  C   UNL     1       1.617   9.985  18.573  0.00  0.00    +0.000 A 
ATOM      5  C   UNL     1       1.648   8.804  19.293  0.00  0.00    +0.000 A 
ATOM      6  C   UNL     1       1.310   8.526  20.710  0.00  0.00    +0.000 C 
ENDROOT
BRANCH   4   7
ATOM      7  C   UNL     1       1.207  11.333  18.999  0.00  0.00    +0.000 A 
ATOM      8  N   UNL     1       1.806  12.443  18.541  0.00  0.00    +0.000 NA
ATOM      9  S   UNL     1       0.933  13.735  19.138  0.00  0.00    +0.000 S 
ATOM     10  C   UNL     1      -0.127  12.729  20.017  0.00  0.00    +0.000 A 
ATOM     11  N   UNL     1      -1.108  13.352  20.739  0.00  0.00    +0.000 N 
ATOM     12  C   UNL     1      -1.870  12.633  21.633  0.00  0.00    +0.000 C 
ATOM     13  O   UNL     1      -1.675  11.469  21.966  0.00  0.00    +0.000 OA
ATOM     14  N   UNL     1       0.129  11.457  19.861  0.00  0.00    +0.000 NA
ATOM     15  H   UNL     1      -1.257  14.330  20.562  0.00  0.00    +0.000 HD
BRANCH  12  16
ATOM     16  C   UNL     1      -3.034  13.334  22.241  0.00  0.00    +0.000 A 
ATOM     17  C   UNL     1      -2.926  14.728  22.396  0.00  0.00    +0.000 A 
ATOM     18  C   UNL     1      -3.967  15.465  22.956  0.00  0.00    +0.000 A 
ATOM     19  C   UNL     1      -5.125  14.813  23.366  0.00  0.00    +0.000 A 
ATOM     20 CL   UNL     1      -6.409  15.716  24.064  0.00  0.00    +0.000 Cl
ATOM     21  C   UNL     1      -5.254  13.431  23.207  0.00  0.00    +0.000 A 
ATOM     22  C   UNL     1      -4.211  12.686  22.639  0.00  0.00    +0.000 A 
ENDBRANCH  12  16
ENDBRANCH   4   7
BRANCH   1  26
ATOM     23  C   UNL     1       3.042   3.816  19.165  0.00  0.00    +0.000 A 
ATOM     24  C   UNL     1       3.941   4.804  19.593  0.00  0.00    +0.000 A 
ATOM     25  C   UNL     1       3.705   6.155  19.299  0.00  0.00    +0.000 A 
ATOM     26  C   UNL     1       2.543   6.527  18.608  0.00  0.00    +0.000 A 
ATOM     27  C   UNL     1       1.681   5.534  18.131  0.00  0.00    +0.000 A 
ATOM     28  C   UNL     1       1.925   4.189  18.411  0.00  0.00    +0.000 A 
BRANCH  23  29
ATOM     29  C   UNL     1       3.297   2.397  19.536  0.00  0.00    +0.000 C 
ATOM     30  O   UNL     1       3.392   1.491  18.724  0.00  0.00    +0.000 OA
BRANCH  29  32
ATOM     31  C   UNL     1       2.224   2.512  21.615  0.00  0.00    +0.000 C 
ATOM     32  O   UNL     1       3.426   2.278  20.881  0.00  0.00    +0.000 OA
ENDBRANCH  29  32
ENDBRANCH  23  29
ENDBRANCH   1  26
TORSDOF 5
ENDMDL
