MODEL 1
REMARK VINA RESULT:      -7.8      0.000      0.000
REMARK  Name = 
REMARK  10 active torsions:
REMARK  status: ('A' for Active; 'I' for Inactive)
REMARK    1  A    between atoms: C_1  and  C_2
REMARK    2  A    between atoms: C_2  and  C_3
REMARK    3  A    between atoms: C_3  and  O_4
REMARK    4  A    between atoms: O_4  and  C_5
REMARK    5  A    between atoms: C_10  and  C_11
REMARK    6  A    between atoms: C_11  and  N_12
REMARK    7  A    between atoms: N_12  and  C_13
REMARK    8  A    between atoms: C_17  and  C_18
REMARK    9  A    between atoms: C_18  and  C_19
REMARK   10  A    between atoms: C_21  and  C_22
REMARK                            x       y       z     vdW  Elec       q    Type
REMARK                         _______ _______ _______ _____ _____    ______ ____
ROOT
ATOM      1  N   UNL     1       3.486   3.971  17.195  0.00  0.00    +0.000 NA
ATOM      2  H   UNL     1       2.955   3.649  16.388  0.00  0.00    +0.000 HD
ENDROOT
BRANCH   1   3
ATOM      3  C   UNL     1       2.839   3.533  18.430  0.00  0.00    +0.000 C 
ATOM      4  C   UNL     1       1.779   2.447  18.237  0.00  0.00    +0.000 C 
ATOM      5  C   UNL     1       0.897   2.541  19.475  0.00  0.00    +0.000 C 
ATOM      6  C   UNL     1       1.040   3.967  20.000  0.00  0.00    +0.000 C 
ATOM      7  C   UNL     1       2.012   4.681  19.047  0.00  0.00    +0.000 C 
BRANCH   7   8
ATOM      8  C   UNL     1       2.861   5.756  19.737  0.00  0.00    +0.000 C 
BRANCH   8   9
ATOM      9  C   UNL     1       2.280   7.114  19.574  0.00  0.00    +0.000 A 
ATOM     10  C   UNL     1       2.265   8.032  18.552  0.00  0.00    +0.000 A 
ATOM     11  C   UNL     1       1.542   9.128  19.073  0.00  0.00    +0.000 A 
ATOM     12  C   UNL     1       1.227  10.418  18.420  0.00  0.00    +0.000 C 
ATOM     13  N   UNL     1       1.134   8.888  20.325  0.00  0.00    +0.000 NA
ATOM     14  O   UNL     1       1.604   7.624  20.639  0.00  0.00    +0.000 OA
ENDBRANCH   8   9
ENDBRANCH   7   8
ENDBRANCH   1   3
BRANCH   1  15
ATOM     15  C   UNL     1       4.876   3.522  17.037  0.00  0.00    +0.000 C 
BRANCH  15  21
ATOM     16  C   UNL     1       6.329   5.612  16.459  0.00  0.00    +0.000 A 
ATOM     17  C   UNL     1       7.231   6.589  16.932  0.00  0.00    +0.000 A 
ATOM     18  C   UNL     1       7.640   6.629  18.262  0.00  0.00    +0.000 A 
ATOM     19  C   UNL     1       7.167   5.682  19.154  0.00  0.00    +0.000 A 
ATOM     20  C   UNL     1       6.272   4.711  18.704  0.00  0.00    +0.000 A 
ATOM     21  C   UNL     1       5.829   4.656  17.360  0.00  0.00    +0.000 A 
BRANCH  16  22
ATOM     22  O   UNL     1       6.163   5.693  15.104  0.00  0.00    +0.000 OA
BRANCH  22  23
ATOM     23  C   UNL     1       6.948   4.880  14.237  0.00  0.00    +0.000 C 
BRANCH  23  25
ATOM     24  C   UNL     1       6.468   3.470  12.183  0.00  0.00    +0.000 C 
ATOM     25  C   UNL     1       6.017   3.856  13.582  0.00  0.00    +0.000 C 
ENDBRANCH  23  25
ENDBRANCH  22  23
ENDBRANCH  16  22
ENDBRANCH  15  21
ENDBRANCH   1  15
TORSDOF 8
ENDMDL
MODEL 2
REMARK VINA RESULT:      -7.7      1.771      6.659
REMARK  Name = 
REMARK  10 active torsions:
REMARK  status: ('A' for Active; 'I' for Inactive)
REMARK    1  A    between atoms: C_1  and  C_2
REMARK    2  A    between atoms: C_2  and  C_3
REMARK    3  A    between atoms: C_3  and  O_4
REMARK    4  A    between atoms: O_4  and  C_5
REMARK    5  A    between atoms: C_10  and  C_11
REMARK    6  A    between atoms: C_11  and  N_12
REMARK    7  A    between atoms: N_12  and  C_13
REMARK    8  A    between atoms: C_17  and  C_18
REMARK    9  A    between atoms: C_18  and  C_19
REMARK   10  A    between atoms: C_21  and  C_22
REMARK                            x       y       z     vdW  Elec       q    Type
REMARK                         _______ _______ _______ _____ _____    ______ ____
ROOT
ATOM      1  N   UNL     1       3.727   6.620  18.211  0.00  0.00    +0.000 NA
ATOM      2  H   UNL     1       3.613   6.518  19.217  0.00  0.00    +0.000 HD
ENDROOT
BRANCH   1   3
ATOM      3  C   UNL     1       3.636   5.315  17.560  0.00  0.00    +0.000 C 
ATOM      4  C   UNL     1       2.250   4.670  17.628  0.00  0.00    +0.000 C 
ATOM      5  C   UNL     1       2.503   3.184  17.410  0.00  0.00    +0.000 C 
ATOM      6  C   UNL     1       3.946   2.924  17.836  0.00  0.00    +0.000 C 
ATOM      7  C   UNL     1       4.508   4.278  18.297  0.00  0.00    +0.000 C 
BRANCH   7   8
ATOM      8  C   UNL     1       6.012   4.433  18.035  0.00  0.00    +0.000 C 
BRANCH   8   9
ATOM      9  C   UNL     1       6.322   4.484  16.583  0.00  0.00    +0.000 A 
ATOM     10  C   UNL     1       5.917   3.754  15.492  0.00  0.00    +0.000 A 
ATOM     11  C   UNL     1       6.613   4.329  14.405  0.00  0.00    +0.000 A 
ATOM     12  C   UNL     1       6.581   3.935  12.979  0.00  0.00    +0.000 C 
ATOM     13  N   UNL     1       7.381   5.349  14.806  0.00  0.00    +0.000 NA
ATOM     14  O   UNL     1       7.201   5.441  16.176  0.00  0.00    +0.000 OA
ENDBRANCH   8   9
ENDBRANCH   7   8
ENDBRANCH   1   3
BRANCH   1  15
ATOM     15  C   UNL     1       2.751   7.611  17.738  0.00  0.00    +0.000 C 
BRANCH  15  21
ATOM     16  C   UNL     1       1.875   7.643  20.197  0.00  0.00    +0.000 A 
ATOM     17  C   UNL     1       1.113   8.327  21.169  0.00  0.00    +0.000 A 
ATOM     18  C   UNL     1       0.481   9.536  20.891  0.00  0.00    +0.000 A 
ATOM     19  C   UNL     1       0.582  10.087  19.625  0.00  0.00    +0.000 A 
ATOM     20  C   UNL     1       1.334   9.427  18.653  0.00  0.00    +0.000 A 
ATOM     21  C   UNL     1       1.999   8.204  18.913  0.00  0.00    +0.000 A 
BRANCH  16  22
ATOM     22  O   UNL     1       2.302   6.428  20.654  0.00  0.00    +0.000 OA
BRANCH  22  23
ATOM     23  C   UNL     1       1.442   5.295  20.588  0.00  0.00    +0.000 C 
BRANCH  23  25
ATOM     24  C   UNL     1       1.380   2.819  21.138  0.00  0.00    +0.000 C 
ATOM     25  C   UNL     1       2.173   4.112  21.229  0.00  0.00    +0.000 C 
ENDBRANCH  23  25
ENDBRANCH  22  23
ENDBRANCH  16  22
ENDBRANCH  15  21
ENDBRANCH   1  15
TORSDOF 8
ENDMDL
MODEL 3
REMARK VINA RESULT:      -7.6      1.999      6.777
REMARK  Name = 
REMARK  10 active torsions:
REMARK  status: ('A' for Active; 'I' for Inactive)
REMARK    1  A    between atoms: C_1  and  C_2
REMARK    2  A    between atoms: C_2  and  C_3
REMARK    3  A    between atoms: C_3  and  O_4
REMARK    4  A    between atoms: O_4  and  C_5
REMARK    5  A    between atoms: C_10  and  C_11
REMARK    6  A    between atoms: C_11  and  N_12
REMARK    7  A    between atoms: N_12  and  C_13
REMARK    8  A    between atoms: C_17  and  C_18
REMARK    9  A    between atoms: C_18  and  C_19
REMARK   10  A    between atoms: C_21  and  C_22
REMARK                            x       y       z     vdW  Elec       q    Type
REMARK                         _______ _______ _______ _____ _____    ______ ____
ROOT
ATOM      1  N   UNL     1       5.805   3.875  18.125  0.00  0.00    +0.000 NA
ATOM      2  H   UNL     1       5.163   3.580  17.393  0.00  0.00    +0.000 HD
ENDROOT
BRANCH   1   3
ATOM      3  C   UNL     1       6.605   5.008  17.665  0.00  0.00    +0.000 C 
ATOM      4  C   UNL     1       7.612   5.529  18.692  0.00  0.00    +0.000 C 
ATOM      5  C   UNL     1       7.911   6.956  18.254  0.00  0.00    +0.000 C 
ATOM      6  C   UNL     1       6.700   7.423  17.449  0.00  0.00    +0.000 C 
ATOM      7  C   UNL     1       5.713   6.246  17.436  0.00  0.00    +0.000 C 
BRANCH   7   8
ATOM      8  C   UNL     1       4.868   6.174  16.157  0.00  0.00    +0.000 C 
BRANCH   8   9
ATOM      9  C   UNL     1       5.567   5.442  15.069  0.00  0.00    +0.000 A 
ATOM     10  C   UNL     1       5.194   4.456  14.188  0.00  0.00    +0.000 A 
ATOM     11  C   UNL     1       6.357   4.206  13.426  0.00  0.00    +0.000 A 
ATOM     12  C   UNL     1       6.551   3.225  12.336  0.00  0.00    +0.000 C 
ATOM     13  N   UNL     1       7.367   4.996  13.811  0.00  0.00    +0.000 NA
ATOM     14  O   UNL     1       6.869   5.767  14.847  0.00  0.00    +0.000 OA
ENDBRANCH   8   9
ENDBRANCH   7   8
ENDBRANCH   1   3
BRANCH   1  15
ATOM     15  C   UNL     1       5.025   4.128  19.345  0.00  0.00    +0.000 C 
BRANCH  15  21
ATOM     16  C   UNL     1       2.449   4.217  19.759  0.00  0.00    +0.000 A 
ATOM     17  C   UNL     1       1.189   3.647  19.479  0.00  0.00    +0.000 A 
ATOM     18  C   UNL     1       1.049   2.559  18.622  0.00  0.00    +0.000 A 
ATOM     19  C   UNL     1       2.170   2.002  18.031  0.00  0.00    +0.000 A 
ATOM     20  C   UNL     1       3.424   2.555  18.294  0.00  0.00    +0.000 A 
ATOM     21  C   UNL     1       3.593   3.671  19.151  0.00  0.00    +0.000 A 
BRANCH  16  22
ATOM     22  O   UNL     1       2.360   5.193  20.712  0.00  0.00    +0.000 OA
BRANCH  22  23
ATOM     23  C   UNL     1       1.811   6.466  20.385  0.00  0.00    +0.000 C 
BRANCH  23  25
ATOM     24  C   UNL     1       2.123   7.592  18.133  0.00  0.00    +0.000 C 
ATOM     25  C   UNL     1       2.784   7.168  19.434  0.00  0.00    +0.000 C 
ENDBRANCH  23  25
ENDBRANCH  22  23
ENDBRANCH  16  22
ENDBRANCH  15  21
ENDBRANCH   1  15
TORSDOF 8
ENDMDL
MODEL 4
REMARK VINA RESULT:      -7.6      1.156      1.337
REMARK  Name = 
REMARK  10 active torsions:
REMARK  status: ('A' for Active; 'I' for Inactive)
REMARK    1  A    between atoms: C_1  and  C_2
REMARK    2  A    between atoms: C_2  and  C_3
REMARK    3  A    between atoms: C_3  and  O_4
REMARK    4  A    between atoms: O_4  and  C_5
REMARK    5  A    between atoms: C_10  and  C_11
REMARK    6  A    between atoms: C_11  and  N_12
REMARK    7  A    between atoms: N_12  and  C_13
REMARK    8  A    between atoms: C_17  and  C_18
REMARK    9  A    between atoms: C_18  and  C_19
REMARK   10  A    between atoms: C_21  and  C_22
REMARK                            x       y       z     vdW  Elec       q    Type
REMARK                         _______ _______ _______ _____ _____    ______ ____
ROOT
ATOM      1  N   UNL     1       4.469   3.820  18.216  0.00  0.00    +0.000 NA
ATOM      2  H   UNL     1       4.763   3.167  17.493  0.00  0.00    +0.000 HD
ENDROOT
BRANCH   1   3
ATOM      3  C   UNL     1       3.315   3.285  18.936  0.00  0.00    +0.000 C 
ATOM      4  C   UNL     1       2.553   2.191  18.185  0.00  0.00    +0.000 C 
ATOM      5  C   UNL     1       1.167   2.181  18.815  0.00  0.00    +0.000 C 
ATOM      6  C   UNL     1       0.952   3.572  19.408  0.00  0.00    +0.000 C 
ATOM      7  C   UNL     1       2.231   4.369  19.108  0.00  0.00    +0.000 C 
BRANCH   7   8
ATOM      8  C   UNL     1       2.562   5.414  20.181  0.00  0.00    +0.000 C 
BRANCH   8   9
ATOM      9  C   UNL     1       2.212   6.791  19.745  0.00  0.00    +0.000 A 
ATOM     10  C   UNL     1       2.406   7.506  18.588  0.00  0.00    +0.000 A 
ATOM     11  C   UNL     1       1.833   8.769  18.854  0.00  0.00    +0.000 A 
ATOM     12  C   UNL     1       1.765   9.955  17.971  0.00  0.00    +0.000 C 
ATOM     13  N   UNL     1       1.314   8.816  20.088  0.00  0.00    +0.000 NA
ATOM     14  O   UNL     1       1.560   7.573  20.647  0.00  0.00    +0.000 OA
ENDBRANCH   8   9
ENDBRANCH   7   8
ENDBRANCH   1   3
BRANCH   1  15
ATOM     15  C   UNL     1       5.632   4.125  19.060  0.00  0.00    +0.000 C 
BRANCH  15  21
ATOM     16  C   UNL     1       5.895   6.206  17.507  0.00  0.00    +0.000 A 
ATOM     17  C   UNL     1       6.669   7.339  17.174  0.00  0.00    +0.000 A 
ATOM     18  C   UNL     1       7.832   7.665  17.867  0.00  0.00    +0.000 A 
ATOM     19  C   UNL     1       8.260   6.857  18.905  0.00  0.00    +0.000 A 
ATOM     20  C   UNL     1       7.506   5.735  19.250  0.00  0.00    +0.000 A 
ATOM     21  C   UNL     1       6.312   5.388  18.572  0.00  0.00    +0.000 A 
BRANCH  16  22
ATOM     22  O   UNL     1       4.870   6.019  16.623  0.00  0.00    +0.000 OA
BRANCH  22  23
ATOM     23  C   UNL     1       5.106   6.108  15.221  0.00  0.00    +0.000 C 
BRANCH  23  25
ATOM     24  C   UNL     1       6.977   4.478  14.690  0.00  0.00    +0.000 C 
ATOM     25  C   UNL     1       5.475   4.710  14.717  0.00  0.00    +0.000 C 
ENDBRANCH  23  25
ENDBRANCH  22  23
ENDBRANCH  16  22
ENDBRANCH  15  21
ENDBRANCH   1  15
TORSDOF 8
ENDMDL
MODEL 5
REMARK VINA RESULT:      -7.4      1.426      3.063
REMARK  Name = 
REMARK  10 active torsions:
REMARK  status: ('A' for Active; 'I' for Inactive)
REMARK    1  A    between atoms: C_1  and  C_2
REMARK    2  A    between atoms: C_2  and  C_3
REMARK    3  A    between atoms: C_3  and  O_4
REMARK    4  A    between atoms: O_4  and  C_5
REMARK    5  A    between atoms: C_10  and  C_11
REMARK    6  A    between atoms: C_11  and  N_12
REMARK    7  A    between atoms: N_12  and  C_13
REMARK    8  A    between atoms: C_17  and  C_18
REMARK    9  A    between atoms: C_18  and  C_19
REMARK   10  A    between atoms: C_21  and  C_22
REMARK                            x       y       z     vdW  Elec       q    Type
REMARK                         _______ _______ _______ _____ _____    ______ ____
ROOT
ATOM      1  N   UNL     1       3.350   4.862  17.913  0.00  0.00    +0.000 NA
ATOM      2  H   UNL     1       3.242   4.585  16.940  0.00  0.00    +0.000 HD
ENDROOT
BRANCH   1   3
ATOM      3  C   UNL     1       2.729   3.871  18.789  0.00  0.00    +0.000 C 
ATOM      4  C   UNL     1       2.036   2.723  18.053  0.00  0.00    +0.000 C 
ATOM      5  C   UNL     1       1.043   2.159  19.061  0.00  0.00    +0.000 C 
ATOM      6  C   UNL     1       0.734   3.288  20.041  0.00  0.00    +0.000 C 
ATOM      7  C   UNL     1       1.561   4.498  19.578  0.00  0.00    +0.000 C 
BRANCH   7   8
ATOM      8  C   UNL     1       2.006   5.407  20.730  0.00  0.00    +0.000 C 
BRANCH   8   9
ATOM      9  C   UNL     1       1.734   6.840  20.447  0.00  0.00    +0.000 A 
ATOM     10  C   UNL     1       1.124   7.854  21.145  0.00  0.00    +0.000 A 
ATOM     11  C   UNL     1       1.195   8.969  20.281  0.00  0.00    +0.000 A 
ATOM     12  C   UNL     1       0.679  10.339  20.500  0.00  0.00    +0.000 C 
ATOM     13  N   UNL     1       1.817   8.657  19.137  0.00  0.00    +0.000 NA
ATOM     14  O   UNL     1       2.149   7.317  19.242  0.00  0.00    +0.000 OA
ENDBRANCH   8   9
ENDBRANCH   7   8
ENDBRANCH   1   3
BRANCH   1  15
ATOM     15  C   UNL     1       4.778   5.097  18.167  0.00  0.00    +0.000 C 
BRANCH  15  21
ATOM     16  C   UNL     1       6.967   5.007  16.748  0.00  0.00    +0.000 A 
ATOM     17  C   UNL     1       7.538   4.822  15.470  0.00  0.00    +0.000 A 
ATOM     18  C   UNL     1       6.758   4.549  14.349  0.00  0.00    +0.000 A 
ATOM     19  C   UNL     1       5.382   4.467  14.475  0.00  0.00    +0.000 A 
ATOM     20  C   UNL     1       4.801   4.644  15.730  0.00  0.00    +0.000 A 
ATOM     21  C   UNL     1       5.571   4.909  16.890  0.00  0.00    +0.000 A 
BRANCH  16  22
ATOM     22  O   UNL     1       7.905   5.378  17.670  0.00  0.00    +0.000 OA
BRANCH  22  23
ATOM     23  C   UNL     1       7.726   6.565  18.436  0.00  0.00    +0.000 C 
BRANCH  23  25
ATOM     24  C   UNL     1       8.267   9.013  18.048  0.00  0.00    +0.000 C 
ATOM     25  C   UNL     1       7.662   7.747  17.465  0.00  0.00    +0.000 C 
ENDBRANCH  23  25
ENDBRANCH  22  23
ENDBRANCH  16  22
ENDBRANCH  15  21
ENDBRANCH   1  15
TORSDOF 8
ENDMDL
MODEL 6
REMARK VINA RESULT:      -7.4      2.222      6.944
REMARK  Name = 
REMARK  10 active torsions:
REMARK  status: ('A' for Active; 'I' for Inactive)
REMARK    1  A    between atoms: C_1  and  C_2
REMARK    2  A    between atoms: C_2  and  C_3
REMARK    3  A    between atoms: C_3  and  O_4
REMARK    4  A    between atoms: O_4  and  C_5
REMARK    5  A    between atoms: C_10  and  C_11
REMARK    6  A    between atoms: C_11  and  N_12
REMARK    7  A    between atoms: N_12  and  C_13
REMARK    8  A    between atoms: C_17  and  C_18
REMARK    9  A    between atoms: C_18  and  C_19
REMARK   10  A    between atoms: C_21  and  C_22
REMARK                            x       y       z     vdW  Elec       q    Type
REMARK                         _______ _______ _______ _____ _____    ______ ____
ROOT
ATOM      1  N   UNL     1       3.107   5.398  19.492  0.00  0.00    +0.000 NA
ATOM      2  H   UNL     1       3.845   4.958  20.038  0.00  0.00    +0.000 HD
ENDROOT
BRANCH   1   3
ATOM      3  C   UNL     1       2.406   4.394  18.694  0.00  0.00    +0.000 C 
ATOM      4  C   UNL     1       1.279   3.673  19.435  0.00  0.00    +0.000 C 
ATOM      5  C   UNL     1       1.077   2.374  18.667  0.00  0.00    +0.000 C 
ATOM      6  C   UNL     1       2.399   2.082  17.960  0.00  0.00    +0.000 C 
ATOM      7  C   UNL     1       3.350   3.228  18.336  0.00  0.00    +0.000 C 
BRANCH   7   8
ATOM      8  C   UNL     1       4.362   3.565  17.233  0.00  0.00    +0.000 C 
BRANCH   8   9
ATOM      9  C   UNL     1       5.420   4.493  17.712  0.00  0.00    +0.000 A 
ATOM     10  C   UNL     1       6.001   5.628  17.198  0.00  0.00    +0.000 A 
ATOM     11  C   UNL     1       6.955   6.005  18.170  0.00  0.00    +0.000 A 
ATOM     12  C   UNL     1       7.894   7.148  18.143  0.00  0.00    +0.000 C 
ATOM     13  N   UNL     1       6.947   5.162  19.210  0.00  0.00    +0.000 NA
ATOM     14  O   UNL     1       5.985   4.210  18.917  0.00  0.00    +0.000 OA
ENDBRANCH   8   9
ENDBRANCH   7   8
ENDBRANCH   1   3
BRANCH   1  15
ATOM     15  C   UNL     1       2.250   6.161  20.410  0.00  0.00    +0.000 C 
BRANCH  15  21
ATOM     16  C   UNL     1       1.209   8.555  20.435  0.00  0.00    +0.000 A 
ATOM     17  C   UNL     1       0.985   9.751  19.721  0.00  0.00    +0.000 A 
ATOM     18  C   UNL     1       1.455   9.931  18.422  0.00  0.00    +0.000 A 
ATOM     19  C   UNL     1       2.151   8.911  17.797  0.00  0.00    +0.000 A 
ATOM     20  C   UNL     1       2.385   7.723  18.490  0.00  0.00    +0.000 A 
ATOM     21  C   UNL     1       1.931   7.519  19.816  0.00  0.00    +0.000 A 
BRANCH  16  22
ATOM     22  O   UNL     1       0.560   8.557  21.638  0.00  0.00    +0.000 OA
BRANCH  22  23
ATOM     23  C   UNL     1       0.609   9.708  22.476  0.00  0.00    +0.000 C 
BRANCH  23  25
ATOM     24  C   UNL     1      -1.226  11.385  22.980  0.00  0.00    +0.000 C 
ATOM     25  C   UNL     1      -0.792   9.930  23.051  0.00  0.00    +0.000 C 
ENDBRANCH  23  25
ENDBRANCH  22  23
ENDBRANCH  16  22
ENDBRANCH  15  21
ENDBRANCH   1  15
TORSDOF 8
ENDMDL
MODEL 7
REMARK VINA RESULT:      -7.4      2.247      7.538
REMARK  Name = 
REMARK  10 active torsions:
REMARK  status: ('A' for Active; 'I' for Inactive)
REMARK    1  A    between atoms: C_1  and  C_2
REMARK    2  A    between atoms: C_2  and  C_3
REMARK    3  A    between atoms: C_3  and  O_4
REMARK    4  A    between atoms: O_4  and  C_5
REMARK    5  A    between atoms: C_10  and  C_11
REMARK    6  A    between atoms: C_11  and  N_12
REMARK    7  A    between atoms: N_12  and  C_13
REMARK    8  A    between atoms: C_17  and  C_18
REMARK    9  A    between atoms: C_18  and  C_19
REMARK   10  A    between atoms: C_21  and  C_22
REMARK                            x       y       z     vdW  Elec       q    Type
REMARK                         _______ _______ _______ _____ _____    ______ ____
ROOT
ATOM      1  N   UNL     1       2.430   5.902  18.272  0.00  0.00    +0.000 NA
ATOM      2  H   UNL     1       2.479   6.625  17.558  0.00  0.00    +0.000 HD
ENDROOT
BRANCH   1   3
ATOM      3  C   UNL     1       3.568   4.993  18.146  0.00  0.00    +0.000 C 
ATOM      4  C   UNL     1       3.592   3.863  19.177  0.00  0.00    +0.000 C 
ATOM      5  C   UNL     1       5.045   3.411  19.224  0.00  0.00    +0.000 C 
ATOM      6  C   UNL     1       5.882   4.600  18.760  0.00  0.00    +0.000 C 
ATOM      7  C   UNL     1       4.889   5.731  18.449  0.00  0.00    +0.000 C 
BRANCH   7   8
ATOM      8  C   UNL     1       5.355   6.658  17.320  0.00  0.00    +0.000 C 
BRANCH   8   9
ATOM      9  C   UNL     1       5.887   5.897  16.158  0.00  0.00    +0.000 A 
ATOM     10  C   UNL     1       5.317   5.095  15.200  0.00  0.00    +0.000 A 
ATOM     11  C   UNL     1       6.404   4.678  14.399  0.00  0.00    +0.000 A 
ATOM     12  C   UNL     1       6.390   3.780  13.222  0.00  0.00    +0.000 C 
ATOM     13  N   UNL     1       7.556   5.202  14.835  0.00  0.00    +0.000 NA
ATOM     14  O   UNL     1       7.229   5.963  15.944  0.00  0.00    +0.000 OA
ENDBRANCH   8   9
ENDBRANCH   7   8
ENDBRANCH   1   3
BRANCH   1  15
ATOM     15  C   UNL     1       2.311   6.558  19.581  0.00  0.00    +0.000 C 
BRANCH  15  21
ATOM     16  C   UNL     1       1.270   8.822  20.361  0.00  0.00    +0.000 A 
ATOM     17  C   UNL     1       0.931  10.146  20.011  0.00  0.00    +0.000 A 
ATOM     18  C   UNL     1       1.194  10.663  18.745  0.00  0.00    +0.000 A 
ATOM     19  C   UNL     1       1.792   9.861  17.788  0.00  0.00    +0.000 A 
ATOM     20  C   UNL     1       2.137   8.551  18.117  0.00  0.00    +0.000 A 
ATOM     21  C   UNL     1       1.895   8.005  19.402  0.00  0.00    +0.000 A 
BRANCH  16  22
ATOM     22  O   UNL     1       0.815   8.497  21.608  0.00  0.00    +0.000 OA
BRANCH  22  23
ATOM     23  C   UNL     1      -0.494   8.882  22.016  0.00  0.00    +0.000 C 
BRANCH  23  25
ATOM     24  C   UNL     1      -1.343  10.954  23.210  0.00  0.00    +0.000 C 
ATOM     25  C   UNL     1      -0.357   9.797  23.236  0.00  0.00    +0.000 C 
ENDBRANCH  23  25
ENDBRANCH  22  23
ENDBRANCH  16  22
ENDBRANCH  15  21
ENDBRANCH   1  15
TORSDOF 8
ENDMDL
MODEL 8
REMARK VINA RESULT:      -7.4      1.340      1.363
REMARK  Name = 
REMARK  10 active torsions:
REMARK  status: ('A' for Active; 'I' for Inactive)
REMARK    1  A    between atoms: C_1  and  C_2
REMARK    2  A    between atoms: C_2  and  C_3
REMARK    3  A    between atoms: C_3  and  O_4
REMARK    4  A    between atoms: O_4  and  C_5
REMARK    5  A    between atoms: C_10  and  C_11
REMARK    6  A    between atoms: C_11  and  N_12
REMARK    7  A    between atoms: N_12  and  C_13
REMARK    8  A    between atoms: C_17  and  C_18
REMARK    9  A    between atoms: C_18  and  C_19
REMARK   10  A    between atoms: C_21  and  C_22
REMARK                            x       y       z     vdW  Elec       q    Type
REMARK                         _______ _______ _______ _____ _____    ______ ____
ROOT
ATOM      1  N   UNL     1       4.771   3.490  19.576  0.00  0.00    +0.000 NA
ATOM      2  H   UNL     1       5.031   4.308  20.122  0.00  0.00    +0.000 HD
ENDROOT
BRANCH   1   3
ATOM      3  C   UNL     1       3.383   3.123  19.850  0.00  0.00    +0.000 C 
ATOM      4  C   UNL     1       2.899   1.879  19.103  0.00  0.00    +0.000 C 
ATOM      5  C   UNL     1       1.381   2.000  19.090  0.00  0.00    +0.000 C 
ATOM      6  C   UNL     1       1.066   3.487  19.232  0.00  0.00    +0.000 C 
ATOM      7  C   UNL     1       2.420   4.207  19.325  0.00  0.00    +0.000 C 
BRANCH   7   8
ATOM      8  C   UNL     1       2.378   5.473  20.191  0.00  0.00    +0.000 C 
BRANCH   8   9
ATOM      9  C   UNL     1       2.405   6.711  19.369  0.00  0.00    +0.000 A 
ATOM     10  C   UNL     1       1.870   7.968  19.517  0.00  0.00    +0.000 A 
ATOM     11  C   UNL     1       2.272   8.660  18.353  0.00  0.00    +0.000 A 
ATOM     12  C   UNL     1       1.968  10.054  17.959  0.00  0.00    +0.000 C 
ATOM     13  N   UNL     1       3.012   7.880  17.555  0.00  0.00    +0.000 NA
ATOM     14  O   UNL     1       3.088   6.654  18.194  0.00  0.00    +0.000 OA
ENDBRANCH   8   9
ENDBRANCH   7   8
ENDBRANCH   1   3
BRANCH   1  15
ATOM     15  C   UNL     1       5.064   3.769  18.164  0.00  0.00    +0.000 C 
BRANCH  15  21
ATOM     16  C   UNL     1       6.283   5.709  16.911  0.00  0.00    +0.000 A 
ATOM     17  C   UNL     1       7.247   6.737  16.983  0.00  0.00    +0.000 A 
ATOM     18  C   UNL     1       7.962   6.994  18.150  0.00  0.00    +0.000 A 
ATOM     19  C   UNL     1       7.742   6.218  19.275  0.00  0.00    +0.000 A 
ATOM     20  C   UNL     1       6.790   5.199  19.223  0.00  0.00    +0.000 A 
ATOM     21  C   UNL     1       6.038   4.926  18.053  0.00  0.00    +0.000 A 
BRANCH  16  22
ATOM     22  O   UNL     1       5.794   5.564  15.643  0.00  0.00    +0.000 OA
BRANCH  22  23
ATOM     23  C   UNL     1       6.622   5.031  14.613  0.00  0.00    +0.000 C 
BRANCH  23  25
ATOM     24  C   UNL     1       6.321   3.591  12.546  0.00  0.00    +0.000 C 
ATOM     25  C   UNL     1       5.879   3.853  13.976  0.00  0.00    +0.000 C 
ENDBRANCH  23  25
ENDBRANCH  22  23
ENDBRANCH  16  22
ENDBRANCH  15  21
ENDBRANCH   1  15
TORSDOF 8
ENDMDL
MODEL 9
REMARK VINA RESULT:      -7.2      0.999      1.019
REMARK  Name = 
REMARK  10 active torsions:
REMARK  status: ('A' for Active; 'I' for Inactive)
REMARK    1  A    between atoms: C_1  and  C_2
REMARK    2  A    between atoms: C_2  and  C_3
REMARK    3  A    between atoms: C_3  and  O_4
REMARK    4  A    between atoms: O_4  and  C_5
REMARK    5  A    between atoms: C_10  and  C_11
REMARK    6  A    between atoms: C_11  and  N_12
REMARK    7  A    between atoms: N_12  and  C_13
REMARK    8  A    between atoms: C_17  and  C_18
REMARK    9  A    between atoms: C_18  and  C_19
REMARK   10  A    between atoms: C_21  and  C_22
REMARK                            x       y       z     vdW  Elec       q    Type
REMARK                         _______ _______ _______ _____ _____    ______ ____
ROOT
ATOM      1  N   UNL     1       3.129   4.285  17.478  0.00  0.00    +0.000 NA
ATOM      2  H   UNL     1       2.428   4.098  16.764  0.00  0.00    +0.000 HD
ENDROOT
BRANCH   1   3
ATOM      3  C   UNL     1       2.680   3.769  18.769  0.00  0.00    +0.000 C 
ATOM      4  C   UNL     1       1.756   2.553  18.678  0.00  0.00    +0.000 C 
ATOM      5  C   UNL     1       1.007   2.534  20.004  0.00  0.00    +0.000 C 
ATOM      6  C   UNL     1       1.020   3.969  20.527  0.00  0.00    +0.000 C 
ATOM      7  C   UNL     1       1.783   4.800  19.485  0.00  0.00    +0.000 C 
BRANCH   7   8
ATOM      8  C   UNL     1       2.554   5.979  20.093  0.00  0.00    +0.000 C 
BRANCH   8   9
ATOM      9  C   UNL     1       2.300   7.248  19.362  0.00  0.00    +0.000 A 
ATOM     10  C   UNL     1       1.703   8.439  19.695  0.00  0.00    +0.000 A 
ATOM     11  C   UNL     1       1.788   9.216  18.518  0.00  0.00    +0.000 A 
ATOM     12  C   UNL     1       1.289  10.590  18.283  0.00  0.00    +0.000 C 
ATOM     13  N   UNL     1       2.407   8.546  17.538  0.00  0.00    +0.000 NA
ATOM     14  O   UNL     1       2.722   7.307  18.070  0.00  0.00    +0.000 OA
ENDBRANCH   8   9
ENDBRANCH   7   8
ENDBRANCH   1   3
BRANCH   1  15
ATOM     15  C   UNL     1       4.413   3.743  17.013  0.00  0.00    +0.000 C 
BRANCH  15  21
ATOM     16  C   UNL     1       6.197   5.531  16.352  0.00  0.00    +0.000 A 
ATOM     17  C   UNL     1       7.232   6.383  16.793  0.00  0.00    +0.000 A 
ATOM     18  C   UNL     1       7.609   6.451  18.132  0.00  0.00    +0.000 A 
ATOM     19  C   UNL     1       6.968   5.655  19.066  0.00  0.00    +0.000 A 
ATOM     20  C   UNL     1       5.940   4.809  18.648  0.00  0.00    +0.000 A 
ATOM     21  C   UNL     1       5.527   4.731  17.295  0.00  0.00    +0.000 A 
BRANCH  16  22
ATOM     22  O   UNL     1       6.080   5.542  14.990  0.00  0.00    +0.000 OA
BRANCH  22  23
ATOM     23  C   UNL     1       5.887   4.324  14.278  0.00  0.00    +0.000 C 
BRANCH  23  25
ATOM     24  C   UNL     1       6.522   3.321  12.035  0.00  0.00    +0.000 C 
ATOM     25  C   UNL     1       6.927   4.265  13.156  0.00  0.00    +0.000 C 
ENDBRANCH  23  25
ENDBRANCH  22  23
ENDBRANCH  16  22
ENDBRANCH  15  21
ENDBRANCH   1  15
TORSDOF 8
ENDMDL
