MODEL 1
REMARK VINA RESULT:      -5.3      0.000      0.000
REMARK  Name = 
REMARK  3 active torsions:
REMARK  status: ('A' for Active; 'I' for Inactive)
REMARK    1  A    between atoms: C_1  and  C_2
REMARK    2  A    between atoms: C_2  and  C_5
REMARK    3  A    between atoms: N_3  and  O_4
REMARK                            x       y       z     vdW  Elec       q    Type
REMARK                         _______ _______ _______ _____ _____    ______ ____
ROOT
ATOM      1  C   UNL     1       5.299   4.969  16.033  0.00  0.00    +0.000 C 
ATOM      2  C   UNL     1       4.830   3.806  16.520  0.00  0.00    +0.000 C 
ATOM      3  C   UNL     1       3.772   3.723  17.580  0.00  0.00    +0.000 C 
ATOM      4  C   UNL     1       3.025   5.042  17.774  0.00  0.00    +0.000 C 
ATOM      5  C   UNL     1       3.993   6.219  17.819  0.00  0.00    +0.000 C 
ATOM      6  C   UNL     1       4.822   6.307  16.531  0.00  0.00    +0.000 C 
ENDROOT
BRANCH   1   8
ATOM      7  C   UNL     1       6.033   4.022  13.756  0.00  0.00    +0.000 C 
ATOM      8  C   UNL     1       6.333   4.928  14.937  0.00  0.00    +0.000 C 
ATOM      9  N   UNL     1       7.426   5.633  15.057  0.00  0.00    +0.000 NA
BRANCH   9  10
ATOM     10  O   UNL     1       8.295   5.461  13.979  0.00  0.00    +0.000 OA
ATOM     11  H   UNL     1       7.855   5.972  13.274  0.00  0.00    +0.000 HD
ENDBRANCH   9  10
ENDBRANCH   1   8
TORSDOF 2
ENDMDL
MODEL 2
REMARK VINA RESULT:      -5.3      3.006      4.147
REMARK  Name = 
REMARK  3 active torsions:
REMARK  status: ('A' for Active; 'I' for Inactive)
REMARK    1  A    between atoms: C_1  and  C_2
REMARK    2  A    between atoms: C_2  and  C_5
REMARK    3  A    between atoms: N_3  and  O_4
REMARK                            x       y       z     vdW  Elec       q    Type
REMARK                         _______ _______ _______ _____ _____    ______ ____
ROOT
ATOM      1  C   UNL     1       3.309   3.861  18.940  0.00  0.00    +0.000 C 
ATOM      2  C   UNL     1       2.962   4.741  19.897  0.00  0.00    +0.000 C 
ATOM      3  C   UNL     1       1.659   4.681  20.637  0.00  0.00    +0.000 C 
ATOM      4  C   UNL     1       0.948   3.338  20.477  0.00  0.00    +0.000 C 
ATOM      5  C   UNL     1       0.967   2.879  19.023  0.00  0.00    +0.000 C 
ATOM      6  C   UNL     1       2.404   2.743  18.501  0.00  0.00    +0.000 C 
ENDROOT
BRANCH   1   8
ATOM      7  C   UNL     1       4.698   3.957  16.775  0.00  0.00    +0.000 C 
ATOM      8  C   UNL     1       4.664   3.996  18.293  0.00  0.00    +0.000 C 
ATOM      9  N   UNL     1       5.726   4.110  19.044  0.00  0.00    +0.000 NA
BRANCH   9  10
ATOM     10  O   UNL     1       6.904   4.191  18.298  0.00  0.00    +0.000 OA
ATOM     11  H   UNL     1       6.864   5.099  17.947  0.00  0.00    +0.000 HD
ENDBRANCH   9  10
ENDBRANCH   1   8
TORSDOF 2
ENDMDL
MODEL 3
REMARK VINA RESULT:      -5.3      3.056      3.531
REMARK  Name = 
REMARK  3 active torsions:
REMARK  status: ('A' for Active; 'I' for Inactive)
REMARK    1  A    between atoms: C_1  and  C_2
REMARK    2  A    between atoms: C_2  and  C_5
REMARK    3  A    between atoms: N_3  and  O_4
REMARK                            x       y       z     vdW  Elec       q    Type
REMARK                         _______ _______ _______ _____ _____    ______ ____
ROOT
ATOM      1  C   UNL     1       5.003   4.936  18.226  0.00  0.00    +0.000 C 
ATOM      2  C   UNL     1       4.260   6.055  18.324  0.00  0.00    +0.000 C 
ATOM      3  C   UNL     1       2.784   6.088  18.063  0.00  0.00    +0.000 C 
ATOM      4  C   UNL     1       2.153   4.696  18.050  0.00  0.00    +0.000 C 
ATOM      5  C   UNL     1       3.001   3.718  17.245  0.00  0.00    +0.000 C 
ATOM      6  C   UNL     1       4.421   3.611  17.816  0.00  0.00    +0.000 C 
ENDROOT
BRANCH   1   8
ATOM      7  C   UNL     1       7.436   4.628  17.446  0.00  0.00    +0.000 C 
ATOM      8  C   UNL     1       6.472   5.015  18.555  0.00  0.00    +0.000 C 
ATOM      9  N   UNL     1       6.845   5.375  19.753  0.00  0.00    +0.000 NA
BRANCH   9  10
ATOM     10  O   UNL     1       8.232   5.366  19.908  0.00  0.00    +0.000 OA
ATOM     11  H   UNL     1       8.378   6.122  20.506  0.00  0.00    +0.000 HD
ENDBRANCH   9  10
ENDBRANCH   1   8
TORSDOF 2
ENDMDL
MODEL 4
REMARK VINA RESULT:      -5.3      1.848      2.171
REMARK  Name = 
REMARK  3 active torsions:
REMARK  status: ('A' for Active; 'I' for Inactive)
REMARK    1  A    between atoms: C_1  and  C_2
REMARK    2  A    between atoms: C_2  and  C_5
REMARK    3  A    between atoms: N_3  and  O_4
REMARK                            x       y       z     vdW  Elec       q    Type
REMARK                         _______ _______ _______ _____ _____    ______ ____
ROOT
ATOM      1  C   UNL     1       4.412   4.289  17.351  0.00  0.00    +0.000 C 
ATOM      2  C   UNL     1       3.714   3.143  17.462  0.00  0.00    +0.000 C 
ATOM      3  C   UNL     1       2.259   3.096  17.817  0.00  0.00    +0.000 C 
ATOM      4  C   UNL     1       1.568   4.451  17.668  0.00  0.00    +0.000 C 
ATOM      5  C   UNL     1       2.417   5.567  18.269  0.00  0.00    +0.000 C 
ATOM      6  C   UNL     1       3.796   5.639  17.602  0.00  0.00    +0.000 C 
ENDROOT
BRANCH   1   8
ATOM      7  C   UNL     1       6.143   3.998  15.469  0.00  0.00    +0.000 C 
ATOM      8  C   UNL     1       5.862   4.215  16.946  0.00  0.00    +0.000 C 
ATOM      9  N   UNL     1       6.790   4.311  17.858  0.00  0.00    +0.000 NA
BRANCH   9  10
ATOM     10  O   UNL     1       8.076   4.190  17.330  0.00  0.00    +0.000 OA
ATOM     11  H   UNL     1       8.443   3.448  17.845  0.00  0.00    +0.000 HD
ENDBRANCH   9  10
ENDBRANCH   1   8
TORSDOF 2
ENDMDL
MODEL 5
REMARK VINA RESULT:      -5.3      3.225      4.156
REMARK  Name = 
REMARK  3 active torsions:
REMARK  status: ('A' for Active; 'I' for Inactive)
REMARK    1  A    between atoms: C_1  and  C_2
REMARK    2  A    between atoms: C_2  and  C_5
REMARK    3  A    between atoms: N_3  and  O_4
REMARK                            x       y       z     vdW  Elec       q    Type
REMARK                         _______ _______ _______ _____ _____    ______ ____
ROOT
ATOM      1  C   UNL     1       3.542   3.824  19.501  0.00  0.00    +0.000 C 
ATOM      2  C   UNL     1       3.515   2.837  20.416  0.00  0.00    +0.000 C 
ATOM      3  C   UNL     1       2.353   2.595  21.332  0.00  0.00    +0.000 C 
ATOM      4  C   UNL     1       1.082   3.314  20.880  0.00  0.00    +0.000 C 
ATOM      5  C   UNL     1       1.383   4.751  20.469  0.00  0.00    +0.000 C 
ATOM      6  C   UNL     1       2.410   4.801  19.330  0.00  0.00    +0.000 C 
ENDROOT
BRANCH   1   8
ATOM      7  C   UNL     1       4.500   3.802  17.112  0.00  0.00    +0.000 C 
ATOM      8  C   UNL     1       4.748   3.945  18.604  0.00  0.00    +0.000 C 
ATOM      9  N   UNL     1       5.926   4.134  19.133  0.00  0.00    +0.000 NA
BRANCH   9  10
ATOM     10  O   UNL     1       6.941   4.190  18.176  0.00  0.00    +0.000 OA
ATOM     11  H   UNL     1       7.493   3.423  18.415  0.00  0.00    +0.000 HD
ENDBRANCH   9  10
ENDBRANCH   1   8
TORSDOF 2
ENDMDL
MODEL 6
REMARK VINA RESULT:      -5.3      0.452      1.641
REMARK  Name = 
REMARK  3 active torsions:
REMARK  status: ('A' for Active; 'I' for Inactive)
REMARK    1  A    between atoms: C_1  and  C_2
REMARK    2  A    between atoms: C_2  and  C_5
REMARK    3  A    between atoms: N_3  and  O_4
REMARK                            x       y       z     vdW  Elec       q    Type
REMARK                         _______ _______ _______ _____ _____    ______ ____
ROOT
ATOM      1  C   UNL     1       5.119   5.175  16.136  0.00  0.00    +0.000 C 
ATOM      2  C   UNL     1       4.815   6.403  16.596  0.00  0.00    +0.000 C 
ATOM      3  C   UNL     1       3.820   6.650  17.690  0.00  0.00    +0.000 C 
ATOM      4  C   UNL     1       3.475   5.384  18.474  0.00  0.00    +0.000 C 
ATOM      5  C   UNL     1       3.231   4.208  17.534  0.00  0.00    +0.000 C 
ATOM      6  C   UNL     1       4.461   3.928  16.661  0.00  0.00    +0.000 C 
ENDROOT
BRANCH   1   8
ATOM      7  C   UNL     1       5.841   4.121  13.902  0.00  0.00    +0.000 C 
ATOM      8  C   UNL     1       6.169   5.046  15.062  0.00  0.00    +0.000 C 
ATOM      9  N   UNL     1       7.295   5.695  15.182  0.00  0.00    +0.000 NA
BRANCH   9  10
ATOM     10  O   UNL     1       8.173   5.445  14.126  0.00  0.00    +0.000 OA
ATOM     11  H   UNL     1       8.709   6.260  14.105  0.00  0.00    +0.000 HD
ENDBRANCH   9  10
ENDBRANCH   1   8
TORSDOF 2
ENDMDL
MODEL 7
REMARK VINA RESULT:      -5.2      1.953      2.695
REMARK  Name = 
REMARK  3 active torsions:
REMARK  status: ('A' for Active; 'I' for Inactive)
REMARK    1  A    between atoms: C_1  and  C_2
REMARK    2  A    between atoms: C_2  and  C_5
REMARK    3  A    between atoms: N_3  and  O_4
REMARK                            x       y       z     vdW  Elec       q    Type
REMARK                         _______ _______ _______ _____ _____    ______ ____
ROOT
ATOM      1  C   UNL     1       4.576   4.563  17.434  0.00  0.00    +0.000 C 
ATOM      2  C   UNL     1       4.145   5.803  17.734  0.00  0.00    +0.000 C 
ATOM      3  C   UNL     1       2.728   6.112  18.115  0.00  0.00    +0.000 C 
ATOM      4  C   UNL     1       1.930   4.865  18.492  0.00  0.00    +0.000 C 
ATOM      5  C   UNL     1       2.174   3.736  17.496  0.00  0.00    +0.000 C 
ATOM      6  C   UNL     1       3.662   3.368  17.426  0.00  0.00    +0.000 C 
ENDROOT
BRANCH   1   8
ATOM      7  C   UNL     1       6.381   4.169  15.642  0.00  0.00    +0.000 C 
ATOM      8  C   UNL     1       6.035   4.366  17.108  0.00  0.00    +0.000 C 
ATOM      9  N   UNL     1       6.913   4.345  18.074  0.00  0.00    +0.000 NA
BRANCH   9  10
ATOM     10  O   UNL     1       8.211   4.119  17.613  0.00  0.00    +0.000 OA
ATOM     11  H   UNL     1       8.538   3.445  18.238  0.00  0.00    +0.000 HD
ENDBRANCH   9  10
ENDBRANCH   1   8
TORSDOF 2
ENDMDL
MODEL 8
REMARK VINA RESULT:      -5.2      1.236      1.769
REMARK  Name = 
REMARK  3 active torsions:
REMARK  status: ('A' for Active; 'I' for Inactive)
REMARK    1  A    between atoms: C_1  and  C_2
REMARK    2  A    between atoms: C_2  and  C_5
REMARK    3  A    between atoms: N_3  and  O_4
REMARK                            x       y       z     vdW  Elec       q    Type
REMARK                         _______ _______ _______ _____ _____    ______ ____
ROOT
ATOM      1  C   UNL     1       5.750   4.666  16.645  0.00  0.00    +0.000 C 
ATOM      2  C   UNL     1       6.324   5.179  17.749  0.00  0.00    +0.000 C 
ATOM      3  C   UNL     1       5.739   5.037  19.122  0.00  0.00    +0.000 C 
ATOM      4  C   UNL     1       4.661   3.957  19.199  0.00  0.00    +0.000 C 
ATOM      5  C   UNL     1       3.700   4.058  18.018  0.00  0.00    +0.000 C 
ATOM      6  C   UNL     1       4.443   3.921  16.683  0.00  0.00    +0.000 C 
ENDROOT
BRANCH   1   8
ATOM      7  C   UNL     1       5.850   4.100  14.136  0.00  0.00    +0.000 C 
ATOM      8  C   UNL     1       6.452   4.835  15.322  0.00  0.00    +0.000 C 
ATOM      9  N   UNL     1       7.534   5.563  15.256  0.00  0.00    +0.000 NA
BRANCH   9  10
ATOM     10  O   UNL     1       8.083   5.593  13.973  0.00  0.00    +0.000 OA
ATOM     11  H   UNL     1       7.356   5.973  13.446  0.00  0.00    +0.000 HD
ENDBRANCH   9  10
ENDBRANCH   1   8
TORSDOF 2
ENDMDL
MODEL 9
REMARK VINA RESULT:      -5.2      3.046      3.972
REMARK  Name = 
REMARK  3 active torsions:
REMARK  status: ('A' for Active; 'I' for Inactive)
REMARK    1  A    between atoms: C_1  and  C_2
REMARK    2  A    between atoms: C_2  and  C_5
REMARK    3  A    between atoms: N_3  and  O_4
REMARK                            x       y       z     vdW  Elec       q    Type
REMARK                         _______ _______ _______ _____ _____    ______ ____
ROOT
ATOM      1  C   UNL     1       3.344   3.685  19.008  0.00  0.00    +0.000 C 
ATOM      2  C   UNL     1       2.482   2.791  18.488  0.00  0.00    +0.000 C 
ATOM      3  C   UNL     1       1.125   2.523  19.065  0.00  0.00    +0.000 C 
ATOM      4  C   UNL     1       0.674   3.606  20.046  0.00  0.00    +0.000 C 
ATOM      5  C   UNL     1       1.799   3.980  21.004  0.00  0.00    +0.000 C 
ATOM      6  C   UNL     1       3.033   4.484  20.244  0.00  0.00    +0.000 C 
ENDROOT
BRANCH   1   8
ATOM      7  C   UNL     1       4.641   3.909  16.797  0.00  0.00    +0.000 C 
ATOM      8  C   UNL     1       4.665   3.902  18.316  0.00  0.00    +0.000 C 
ATOM      9  N   UNL     1       5.749   4.043  19.029  0.00  0.00    +0.000 NA
BRANCH   9  10
ATOM     10  O   UNL     1       6.892   4.200  18.242  0.00  0.00    +0.000 OA
ATOM     11  H   UNL     1       7.010   5.168  18.240  0.00  0.00    +0.000 HD
ENDBRANCH   9  10
ENDBRANCH   1   8
TORSDOF 2
ENDMDL
