MODEL 1
REMARK VINA RESULT:      -8.1      0.000      0.000
REMARK  Name = 
REMARK  7 active torsions:
REMARK  status: ('A' for Active; 'I' for Inactive)
REMARK    1  A    between atoms: C_1  and  N_2
REMARK    2  A    between atoms: N_6  and  C_7
REMARK    3  A    between atoms: C_7  and  C_8
REMARK    4  A    between atoms: C_8  and  C_9
REMARK    5  A    between atoms: C_14  and  O_15
REMARK    6  A    between atoms: O_15  and  C_16
REMARK    7  A    between atoms: N_19  and  C_20
REMARK                            x       y       z     vdW  Elec       q    Type
REMARK                         _______ _______ _______ _____ _____    ______ ____
ROOT
ATOM      1  C   UNL     1       6.692   4.340  13.937  0.00  0.00    +0.000 C 
ATOM      2  N   UNL     1       7.239   5.517  14.553  0.00  0.00    +0.000 N 
ATOM      3  C   UNL     1       6.780   5.852  15.821  0.00  0.00    +0.000 A 
ATOM      4  N   UNL     1       7.572   6.648  16.506  0.00  0.00    +0.000 NA
ATOM      5  C   UNL     1       7.162   7.008  17.730  0.00  0.00    +0.000 A 
ATOM      6  N   UNL     1       7.905   7.866  18.461  0.00  0.00    +0.000 N 
ATOM      7  N   UNL     1       6.008   6.606  18.250  0.00  0.00    +0.000 NA
ATOM      8  C   UNL     1       5.237   5.885  17.466  0.00  0.00    +0.000 A 
ATOM      9  N   UNL     1       3.963   5.534  17.913  0.00  0.00    +0.000 N 
ATOM     10  N   UNL     1       5.594   5.440  16.253  0.00  0.00    +0.000 NA
ATOM     11  H   UNL     1       7.279   6.364  13.990  0.00  0.00    +0.000 HD
ATOM     12  H   UNL     1       7.892   7.730  19.459  0.00  0.00    +0.000 HD
ATOM     13  H   UNL     1       3.585   4.790  17.345  0.00  0.00    +0.000 HD
ENDROOT
BRANCH   9  14
ATOM     14  C   UNL     1       3.013   6.235  18.684  0.00  0.00    +0.000 A 
ATOM     15  C   UNL     1       2.480   5.590  19.798  0.00  0.00    +0.000 A 
ATOM     16  C   UNL     1       1.631   6.279  20.660  0.00  0.00    +0.000 A 
ATOM     17  C   UNL     1       1.276   7.600  20.450  0.00  0.00    +0.000 A 
ATOM     18  N   UNL     1       0.737   8.236  21.469  0.00  0.00    +0.000 NA
ATOM     19  C   UNL     1       0.503   9.541  21.275  0.00  0.00    +0.000 A 
ATOM     20  C   UNL     1       0.192  10.038  20.051  0.00  0.00    +0.000 A 
ATOM     21  C   UNL     1       1.048   9.542  19.074  0.00  0.00    +0.000 A 
ATOM     22  C   UNL     1       1.670   8.253  19.276  0.00  0.00    +0.000 A 
ATOM     23  C   UNL     1       2.627   7.581  18.444  0.00  0.00    +0.000 A 
ENDBRANCH   9  14
BRANCH   6  24
ATOM     24  C   UNL     1       8.851   8.705  17.773  0.00  0.00    +0.000 C 
BRANCH  24  25
ATOM     25  C   UNL     1       8.554  10.178  18.039  0.00  0.00    +0.000 C 
BRANCH  25  26
ATOM     26  C   UNL     1       9.685  10.997  18.619  0.00  0.00    +0.000 A 
ATOM     27  C   UNL     1      10.797  11.292  17.801  0.00  0.00    +0.000 A 
ATOM     28  C   UNL     1      11.955  11.866  18.312  0.00  0.00    +0.000 A 
ATOM     29  C   UNL     1      11.990  12.265  19.637  0.00  0.00    +0.000 A 
ATOM     30  C   UNL     1      10.871  12.058  20.449  0.00  0.00    +0.000 A 
ATOM     31  C   UNL     1       9.707  11.440  19.954  0.00  0.00    +0.000 A 
BRANCH  31  32
ATOM     32  O   UNL     1       8.734  11.276  20.907  0.00  0.00    +0.000 OA
ATOM     33  C   UNL     1       8.937  11.846  22.197  0.00  0.00    +0.000 C 
ENDBRANCH  31  32
ENDBRANCH  25  26
ENDBRANCH  24  25
ENDBRANCH   6  24
TORSDOF 5
ENDMDL
MODEL 2
REMARK VINA RESULT:      -8.1      2.703      5.142
REMARK  Name = 
REMARK  7 active torsions:
REMARK  status: ('A' for Active; 'I' for Inactive)
REMARK    1  A    between atoms: C_1  and  N_2
REMARK    2  A    between atoms: N_6  and  C_7
REMARK    3  A    between atoms: C_7  and  C_8
REMARK    4  A    between atoms: C_8  and  C_9
REMARK    5  A    between atoms: C_14  and  O_15
REMARK    6  A    between atoms: O_15  and  C_16
REMARK    7  A    between atoms: N_19  and  C_20
REMARK                            x       y       z     vdW  Elec       q    Type
REMARK                         _______ _______ _______ _____ _____    ______ ____
ROOT
ATOM      1  C   UNL     1       1.727   2.180  19.205  0.00  0.00    +0.000 C 
ATOM      2  N   UNL     1       2.234   3.053  18.183  0.00  0.00    +0.000 N 
ATOM      3  C   UNL     1       2.501   4.370  18.535  0.00  0.00    +0.000 A 
ATOM      4  N   UNL     1       3.331   5.003  17.734  0.00  0.00    +0.000 NA
ATOM      5  C   UNL     1       3.607   6.280  18.029  0.00  0.00    +0.000 A 
ATOM      6  N   UNL     1       4.409   6.998  17.214  0.00  0.00    +0.000 N 
ATOM      7  N   UNL     1       3.072   6.911  19.068  0.00  0.00    +0.000 NA
ATOM      8  C   UNL     1       2.187   6.234  19.766  0.00  0.00    +0.000 A 
ATOM      9  N   UNL     1       1.504   6.881  20.796  0.00  0.00    +0.000 N 
ATOM     10  N   UNL     1       1.894   4.940  19.569  0.00  0.00    +0.000 NA
ATOM     11  H   UNL     1       1.755   3.050  17.285  0.00  0.00    +0.000 HD
ATOM     12  H   UNL     1       4.989   7.693  17.657  0.00  0.00    +0.000 HD
ATOM     13  H   UNL     1       1.058   6.207  21.399  0.00  0.00    +0.000 HD
ENDROOT
BRANCH   9  14
ATOM     14  C   UNL     1       1.018   8.200  20.915  0.00  0.00    +0.000 A 
ATOM     15  C   UNL     1       1.302   9.091  19.883  0.00  0.00    +0.000 A 
ATOM     16  C   UNL     1       0.745  10.367  19.893  0.00  0.00    +0.000 A 
ATOM     17  C   UNL     1      -0.086  10.804  20.910  0.00  0.00    +0.000 A 
ATOM     18  N   UNL     1      -0.796  11.887  20.669  0.00  0.00    +0.000 NA
ATOM     19  C   UNL     1      -1.672  12.226  21.624  0.00  0.00    +0.000 A 
ATOM     20  C   UNL     1      -1.437  11.966  22.935  0.00  0.00    +0.000 A 
ATOM     21  C   UNL     1      -0.992  10.661  23.118  0.00  0.00    +0.000 A 
ATOM     22  C   UNL     1      -0.295  10.001  22.037  0.00  0.00    +0.000 A 
ATOM     23  C   UNL     1       0.190   8.652  21.978  0.00  0.00    +0.000 A 
ENDBRANCH   9  14
BRANCH   6  24
ATOM     24  C   UNL     1       4.582   6.548  15.858  0.00  0.00    +0.000 C 
BRANCH  24  25
ATOM     25  C   UNL     1       6.044   6.201  15.591  0.00  0.00    +0.000 C 
BRANCH  25  26
ATOM     26  C   UNL     1       6.926   6.023  16.806  0.00  0.00    +0.000 A 
ATOM     27  C   UNL     1       7.206   4.715  17.255  0.00  0.00    +0.000 A 
ATOM     28  C   UNL     1       7.840   4.473  18.469  0.00  0.00    +0.000 A 
ATOM     29  C   UNL     1       8.313   5.540  19.214  0.00  0.00    +0.000 A 
ATOM     30  C   UNL     1       8.120   6.844  18.751  0.00  0.00    +0.000 A 
ATOM     31  C   UNL     1       7.443   7.104  17.545  0.00  0.00    +0.000 A 
BRANCH  31  32
ATOM     32  O   UNL     1       7.305   8.443  17.278  0.00  0.00    +0.000 OA
ATOM     33  C   UNL     1       8.179   9.362  17.925  0.00  0.00    +0.000 C 
ENDBRANCH  31  32
ENDBRANCH  25  26
ENDBRANCH  24  25
ENDBRANCH   6  24
TORSDOF 5
ENDMDL
MODEL 3
REMARK VINA RESULT:      -8.0      5.989     11.077
REMARK  Name = 
REMARK  7 active torsions:
REMARK  status: ('A' for Active; 'I' for Inactive)
REMARK    1  A    between atoms: C_1  and  N_2
REMARK    2  A    between atoms: N_6  and  C_7
REMARK    3  A    between atoms: C_7  and  C_8
REMARK    4  A    between atoms: C_8  and  C_9
REMARK    5  A    between atoms: C_14  and  O_15
REMARK    6  A    between atoms: O_15  and  C_16
REMARK    7  A    between atoms: N_19  and  C_20
REMARK                            x       y       z     vdW  Elec       q    Type
REMARK                         _______ _______ _______ _____ _____    ______ ____
ROOT
ATOM      1  C   UNL     1       0.473  14.698  18.952  0.00  0.00    +0.000 C 
ATOM      2  N   UNL     1      -0.487  13.938  18.200  0.00  0.00    +0.000 N 
ATOM      3  C   UNL     1      -0.611  12.586  18.495  0.00  0.00    +0.000 A 
ATOM      4  N   UNL     1      -1.744  12.036  18.114  0.00  0.00    +0.000 NA
ATOM      5  C   UNL     1      -1.900  10.729  18.367  0.00  0.00    +0.000 A 
ATOM      6  N   UNL     1      -3.018  10.095  17.952  0.00  0.00    +0.000 N 
ATOM      7  N   UNL     1      -0.968   9.994  18.961  0.00  0.00    +0.000 NA
ATOM      8  C   UNL     1       0.167  10.601  19.230  0.00  0.00    +0.000 A 
ATOM      9  N   UNL     1       1.225   9.852  19.745  0.00  0.00    +0.000 N 
ATOM     10  N   UNL     1       0.385  11.913  19.058  0.00  0.00    +0.000 NA
ATOM     11  H   UNL     1      -0.483  14.049  17.189  0.00  0.00    +0.000 HD
ATOM     12  H   UNL     1      -3.351   9.347  18.538  0.00  0.00    +0.000 HD
ATOM     13  H   UNL     1       1.928  10.461  20.137  0.00  0.00    +0.000 HD
ENDROOT
BRANCH   9  14
ATOM     14  C   UNL     1       1.659   8.536  19.483  0.00  0.00    +0.000 A 
ATOM     15  C   UNL     1       2.241   8.281  18.243  0.00  0.00    +0.000 A 
ATOM     16  C   UNL     1       2.795   7.031  17.979  0.00  0.00    +0.000 A 
ATOM     17  C   UNL     1       2.781   6.005  18.906  0.00  0.00    +0.000 A 
ATOM     18  N   UNL     1       3.591   4.991  18.678  0.00  0.00    +0.000 NA
ATOM     19  C   UNL     1       3.640   4.065  19.644  0.00  0.00    +0.000 A 
ATOM     20  C   UNL     1       2.563   3.783  20.421  0.00  0.00    +0.000 A 
ATOM     21  C   UNL     1       1.960   4.946  20.887  0.00  0.00    +0.000 A 
ATOM     22  C   UNL     1       2.089   6.160  20.113  0.00  0.00    +0.000 A 
ATOM     23  C   UNL     1       1.613   7.477  20.428  0.00  0.00    +0.000 A 
ENDBRANCH   9  14
BRANCH   6  24
ATOM     24  C   UNL     1      -3.786  10.693  16.891  0.00  0.00    +0.000 C 
BRANCH  24  25
ATOM     25  C   UNL     1      -4.691  11.793  17.438  0.00  0.00    +0.000 C 
BRANCH  25  26
ATOM     26  C   UNL     1      -5.543  11.430  18.633  0.00  0.00    +0.000 A 
ATOM     27  C   UNL     1      -6.353  10.277  18.563  0.00  0.00    +0.000 A 
ATOM     28  C   UNL     1      -7.305   9.985  19.533  0.00  0.00    +0.000 A 
ATOM     29  C   UNL     1      -7.395  10.784  20.660  0.00  0.00    +0.000 A 
ATOM     30  C   UNL     1      -6.548  11.887  20.793  0.00  0.00    +0.000 A 
ATOM     31  C   UNL     1      -5.608  12.217  19.798  0.00  0.00    +0.000 A 
BRANCH  31  32
ATOM     32  O   UNL     1      -4.901  13.359  20.077  0.00  0.00    +0.000 OA
ATOM     33  C   UNL     1      -3.670  13.246  20.786  0.00  0.00    +0.000 C 
ENDBRANCH  31  32
ENDBRANCH  25  26
ENDBRANCH  24  25
ENDBRANCH   6  24
TORSDOF 5
ENDMDL
MODEL 4
REMARK VINA RESULT:      -7.9      4.706      8.737
REMARK  Name = 
REMARK  7 active torsions:
REMARK  status: ('A' for Active; 'I' for Inactive)
REMARK    1  A    between atoms: C_1  and  N_2
REMARK    2  A    between atoms: N_6  and  C_7
REMARK    3  A    between atoms: C_7  and  C_8
REMARK    4  A    between atoms: C_8  and  C_9
REMARK    5  A    between atoms: C_14  and  O_15
REMARK    6  A    between atoms: O_15  and  C_16
REMARK    7  A    between atoms: N_19  and  C_20
REMARK                            x       y       z     vdW  Elec       q    Type
REMARK                         _______ _______ _______ _____ _____    ______ ____
ROOT
ATOM      1  C   UNL     1       2.254   2.378  21.820  0.00  0.00    +0.000 C 
ATOM      2  N   UNL     1       2.245   3.813  21.737  0.00  0.00    +0.000 N 
ATOM      3  C   UNL     1       2.418   4.386  20.484  0.00  0.00    +0.000 A 
ATOM      4  N   UNL     1       1.994   5.627  20.376  0.00  0.00    +0.000 NA
ATOM      5  C   UNL     1       2.153   6.223  19.187  0.00  0.00    +0.000 A 
ATOM      6  N   UNL     1       1.786   7.513  19.030  0.00  0.00    +0.000 N 
ATOM      7  N   UNL     1       2.722   5.621  18.150  0.00  0.00    +0.000 NA
ATOM      8  C   UNL     1       3.197   4.414  18.367  0.00  0.00    +0.000 A 
ATOM      9  N   UNL     1       3.910   3.779  17.351  0.00  0.00    +0.000 N 
ATOM     10  N   UNL     1       3.033   3.729  19.508  0.00  0.00    +0.000 NA
ATOM     11  H   UNL     1       2.815   4.324  22.408  0.00  0.00    +0.000 HD
ATOM     12  H   UNL     1       1.436   7.771  18.122  0.00  0.00    +0.000 HD
ATOM     13  H   UNL     1       3.995   2.792  17.545  0.00  0.00    +0.000 HD
ENDROOT
BRANCH   9  14
ATOM     14  C   UNL     1       4.813   4.274  16.387  0.00  0.00    +0.000 A 
ATOM     15  C   UNL     1       5.595   5.373  16.736  0.00  0.00    +0.000 A 
ATOM     16  C   UNL     1       6.586   5.825  15.869  0.00  0.00    +0.000 A 
ATOM     17  C   UNL     1       6.826   5.228  14.644  0.00  0.00    +0.000 A 
ATOM     18  N   UNL     1       7.966   5.526  14.054  0.00  0.00    +0.000 NA
ATOM     19  C   UNL     1       8.224   4.852  12.926  0.00  0.00    +0.000 A 
ATOM     20  C   UNL     1       7.232   4.439  12.096  0.00  0.00    +0.000 A 
ATOM     21  C   UNL     1       6.202   3.831  12.806  0.00  0.00    +0.000 A 
ATOM     22  C   UNL     1       5.983   4.210  14.183  0.00  0.00    +0.000 A 
ATOM     23  C   UNL     1       5.033   3.675  15.118  0.00  0.00    +0.000 A 
ENDBRANCH   9  14
BRANCH   6  24
ATOM     24  C   UNL     1       1.660   8.334  20.206  0.00  0.00    +0.000 C 
BRANCH  24  25
ATOM     25  C   UNL     1       0.975   9.655  19.867  0.00  0.00    +0.000 C 
BRANCH  25  26
ATOM     26  C   UNL     1       0.223  10.329  20.993  0.00  0.00    +0.000 A 
ATOM     27  C   UNL     1       0.064   9.637  22.212  0.00  0.00    +0.000 A 
ATOM     28  C   UNL     1      -0.775  10.102  23.219  0.00  0.00    +0.000 A 
ATOM     29  C   UNL     1      -1.392  11.333  23.076  0.00  0.00    +0.000 A 
ATOM     30  C   UNL     1      -1.186  12.076  21.911  0.00  0.00    +0.000 A 
ATOM     31  C   UNL     1      -0.372  11.598  20.867  0.00  0.00    +0.000 A 
BRANCH  31  32
ATOM     32  O   UNL     1      -0.329  12.440  19.784  0.00  0.00    +0.000 OA
ATOM     33  C   UNL     1      -1.024  13.681  19.854  0.00  0.00    +0.000 C 
ENDBRANCH  31  32
ENDBRANCH  25  26
ENDBRANCH  24  25
ENDBRANCH   6  24
TORSDOF 5
ENDMDL
MODEL 5
REMARK VINA RESULT:      -7.8      4.533      6.725
REMARK  Name = 
REMARK  7 active torsions:
REMARK  status: ('A' for Active; 'I' for Inactive)
REMARK    1  A    between atoms: C_1  and  N_2
REMARK    2  A    between atoms: N_6  and  C_7
REMARK    3  A    between atoms: C_7  and  C_8
REMARK    4  A    between atoms: C_8  and  C_9
REMARK    5  A    between atoms: C_14  and  O_15
REMARK    6  A    between atoms: O_15  and  C_16
REMARK    7  A    between atoms: N_19  and  C_20
REMARK                            x       y       z     vdW  Elec       q    Type
REMARK                         _______ _______ _______ _____ _____    ______ ____
ROOT
ATOM      1  C   UNL     1       1.514   2.492  21.925  0.00  0.00    +0.000 C 
ATOM      2  N   UNL     1       1.847   2.666  20.539  0.00  0.00    +0.000 N 
ATOM      3  C   UNL     1       2.224   3.936  20.122  0.00  0.00    +0.000 A 
ATOM      4  N   UNL     1       2.908   3.974  18.999  0.00  0.00    +0.000 NA
ATOM      5  C   UNL     1       3.280   5.181  18.553  0.00  0.00    +0.000 A 
ATOM      6  N   UNL     1       3.938   5.288  17.379  0.00  0.00    +0.000 N 
ATOM      7  N   UNL     1       2.977   6.307  19.187  0.00  0.00    +0.000 NA
ATOM      8  C   UNL     1       2.218   6.188  20.254  0.00  0.00    +0.000 A 
ATOM      9  N   UNL     1       1.768   7.344  20.892  0.00  0.00    +0.000 N 
ATOM     10  N   UNL     1       1.847   5.019  20.794  0.00  0.00    +0.000 NA
ATOM     11  H   UNL     1       1.206   2.278  19.851  0.00  0.00    +0.000 HD
ATOM     12  H   UNL     1       4.616   6.030  17.312  0.00  0.00    +0.000 HD
ATOM     13  H   UNL     1       1.421   7.123  21.814  0.00  0.00    +0.000 HD
ENDROOT
BRANCH   9  14
ATOM     14  C   UNL     1       1.361   8.597  20.388  0.00  0.00    +0.000 A 
ATOM     15  C   UNL     1       1.574   8.851  19.035  0.00  0.00    +0.000 A 
ATOM     16  C   UNL     1       1.083  10.021  18.461  0.00  0.00    +0.000 A 
ATOM     17  C   UNL     1       0.389  10.968  19.192  0.00  0.00    +0.000 A 
ATOM     18  N   UNL     1      -0.290  11.864  18.505  0.00  0.00    +0.000 NA
ATOM     19  C   UNL     1      -1.040  12.701  19.233  0.00  0.00    +0.000 A 
ATOM     20  C   UNL     1      -0.678  13.083  20.485  0.00  0.00    +0.000 A 
ATOM     21  C   UNL     1      -0.279  11.991  21.248  0.00  0.00    +0.000 A 
ATOM     22  C   UNL     1       0.265  10.831  20.580  0.00  0.00    +0.000 A 
ATOM     23  C   UNL     1       0.676   9.580  21.152  0.00  0.00    +0.000 A 
ENDBRANCH   9  14
BRANCH   6  24
ATOM     24  C   UNL     1       3.832   4.205  16.438  0.00  0.00    +0.000 C 
BRANCH  24  25
ATOM     25  C   UNL     1       5.205   3.594  16.166  0.00  0.00    +0.000 C 
BRANCH  25  26
ATOM     26  C   UNL     1       5.923   4.080  14.927  0.00  0.00    +0.000 A 
ATOM     27  C   UNL     1       5.610   3.485  13.686  0.00  0.00    +0.000 A 
ATOM     28  C   UNL     1       6.358   3.734  12.541  0.00  0.00    +0.000 A 
ATOM     29  C   UNL     1       7.374   4.674  12.582  0.00  0.00    +0.000 A 
ATOM     30  C   UNL     1       7.651   5.337  13.781  0.00  0.00    +0.000 A 
ATOM     31  C   UNL     1       6.928   5.063  14.957  0.00  0.00    +0.000 A 
BRANCH  31  32
ATOM     32  O   UNL     1       7.374   5.772  16.044  0.00  0.00    +0.000 OA
ATOM     33  C   UNL     1       7.620   5.074  17.262  0.00  0.00    +0.000 C 
ENDBRANCH  31  32
ENDBRANCH  25  26
ENDBRANCH  24  25
ENDBRANCH   6  24
TORSDOF 5
ENDMDL
MODEL 6
REMARK VINA RESULT:      -7.8      6.201     11.245
REMARK  Name = 
REMARK  7 active torsions:
REMARK  status: ('A' for Active; 'I' for Inactive)
REMARK    1  A    between atoms: C_1  and  N_2
REMARK    2  A    between atoms: N_6  and  C_7
REMARK    3  A    between atoms: C_7  and  C_8
REMARK    4  A    between atoms: C_8  and  C_9
REMARK    5  A    between atoms: C_14  and  O_15
REMARK    6  A    between atoms: O_15  and  C_16
REMARK    7  A    between atoms: N_19  and  C_20
REMARK                            x       y       z     vdW  Elec       q    Type
REMARK                         _______ _______ _______ _____ _____    ______ ____
ROOT
ATOM      1  C   UNL     1       1.633  14.114  20.558  0.00  0.00    +0.000 C 
ATOM      2  N   UNL     1       0.692  13.695  19.557  0.00  0.00    +0.000 N 
ATOM      3  C   UNL     1       0.305  12.361  19.555  0.00  0.00    +0.000 A 
ATOM      4  N   UNL     1      -0.828  12.111  18.935  0.00  0.00    +0.000 NA
ATOM      5  C   UNL     1      -1.232  10.834  18.898  0.00  0.00    +0.000 A 
ATOM      6  N   UNL     1      -2.359  10.507  18.230  0.00  0.00    +0.000 N 
ATOM      7  N   UNL     1      -0.537   9.842  19.441  0.00  0.00    +0.000 NA
ATOM      8  C   UNL     1       0.625  10.166  19.964  0.00  0.00    +0.000 A 
ATOM      9  N   UNL     1       1.453   9.151  20.444  0.00  0.00    +0.000 N 
ATOM     10  N   UNL     1       1.078  11.421  20.088  0.00  0.00    +0.000 NA
ATOM     11  H   UNL     1       0.873  13.980  18.597  0.00  0.00    +0.000 HD
ATOM     12  H   UNL     1      -2.897   9.744  18.607  0.00  0.00    +0.000 HD
ATOM     13  H   UNL     1       2.176   9.536  21.033  0.00  0.00    +0.000 HD
ENDROOT
BRANCH   9  14
ATOM     14  C   UNL     1       1.703   7.843  19.976  0.00  0.00    +0.000 A 
ATOM     15  C   UNL     1       2.333   7.707  18.741  0.00  0.00    +0.000 A 
ATOM     16  C   UNL     1       2.710   6.445  18.288  0.00  0.00    +0.000 A 
ATOM     17  C   UNL     1       2.473   5.295  19.020  0.00  0.00    +0.000 A 
ATOM     18  N   UNL     1       3.136   4.217  18.658  0.00  0.00    +0.000 NA
ATOM     19  C   UNL     1       2.972   3.147  19.448  0.00  0.00    +0.000 A 
ATOM     20  C   UNL     1       1.810   2.918  20.111  0.00  0.00    +0.000 A 
ATOM     21  C   UNL     1       1.355   4.070  20.743  0.00  0.00    +0.000 A 
ATOM     22  C   UNL     1       1.723   5.358  20.201  0.00  0.00    +0.000 A 
ATOM     23  C   UNL     1       1.428   6.664  20.718  0.00  0.00    +0.000 A 
ENDBRANCH   9  14
BRANCH   6  24
ATOM     24  C   UNL     1      -2.844  11.417  17.225  0.00  0.00    +0.000 C 
BRANCH  24  25
ATOM     25  C   UNL     1      -4.252  11.027  16.783  0.00  0.00    +0.000 C 
BRANCH  25  26
ATOM     26  C   UNL     1      -5.375  11.371  17.735  0.00  0.00    +0.000 A 
ATOM     27  C   UNL     1      -5.669  10.478  18.788  0.00  0.00    +0.000 A 
ATOM     28  C   UNL     1      -6.802  10.622  19.581  0.00  0.00    +0.000 A 
ATOM     29  C   UNL     1      -7.614  11.731  19.413  0.00  0.00    +0.000 A 
ATOM     30  C   UNL     1      -7.299  12.674  18.431  0.00  0.00    +0.000 A 
ATOM     31  C   UNL     1      -6.178  12.518  17.594  0.00  0.00    +0.000 A 
BRANCH  31  32
ATOM     32  O   UNL     1      -6.058  13.514  16.658  0.00  0.00    +0.000 OA
ATOM     33  C   UNL     1      -7.111  14.465  16.532  0.00  0.00    +0.000 C 
ENDBRANCH  31  32
ENDBRANCH  25  26
ENDBRANCH  24  25
ENDBRANCH   6  24
TORSDOF 5
ENDMDL
MODEL 7
REMARK VINA RESULT:      -7.6      5.953     10.740
REMARK  Name = 
REMARK  7 active torsions:
REMARK  status: ('A' for Active; 'I' for Inactive)
REMARK    1  A    between atoms: C_1  and  N_2
REMARK    2  A    between atoms: N_6  and  C_7
REMARK    3  A    between atoms: C_7  and  C_8
REMARK    4  A    between atoms: C_8  and  C_9
REMARK    5  A    between atoms: C_14  and  O_15
REMARK    6  A    between atoms: O_15  and  C_16
REMARK    7  A    between atoms: N_19  and  C_20
REMARK                            x       y       z     vdW  Elec       q    Type
REMARK                         _______ _______ _______ _____ _____    ______ ____
ROOT
ATOM      1  C   UNL     1       2.013  13.828  21.177  0.00  0.00    +0.000 C 
ATOM      2  N   UNL     1       1.052  13.538  20.149  0.00  0.00    +0.000 N 
ATOM      3  C   UNL     1       0.589  12.232  20.050  0.00  0.00    +0.000 A 
ATOM      4  N   UNL     1      -0.555  12.094  19.415  0.00  0.00    +0.000 NA
ATOM      5  C   UNL     1      -1.032  10.849  19.285  0.00  0.00    +0.000 A 
ATOM      6  N   UNL     1      -2.174  10.637  18.597  0.00  0.00    +0.000 N 
ATOM      7  N   UNL     1      -0.397   9.782  19.754  0.00  0.00    +0.000 NA
ATOM      8  C   UNL     1       0.781   9.998  20.297  0.00  0.00    +0.000 A 
ATOM      9  N   UNL     1       1.547   8.905  20.700  0.00  0.00    +0.000 N 
ATOM     10  N   UNL     1       1.305  11.213  20.512  0.00  0.00    +0.000 NA
ATOM     11  H   UNL     1       1.252  13.882  19.212  0.00  0.00    +0.000 HD
ATOM     12  H   UNL     1      -2.757   9.881  18.919  0.00  0.00    +0.000 HD
ATOM     13  H   UNL     1       2.290   9.204  21.316  0.00  0.00    +0.000 HD
ENDROOT
BRANCH   9  14
ATOM     14  C   UNL     1       1.722   7.623  20.138  0.00  0.00    +0.000 A 
ATOM     15  C   UNL     1       2.340   7.542  18.892  0.00  0.00    +0.000 A 
ATOM     16  C   UNL     1       2.646   6.297  18.347  0.00  0.00    +0.000 A 
ATOM     17  C   UNL     1       2.346   5.112  18.996  0.00  0.00    +0.000 A 
ATOM     18  N   UNL     1       2.948   4.027  18.552  0.00  0.00    +0.000 NA
ATOM     19  C   UNL     1       2.727   2.915  19.264  0.00  0.00    +0.000 A 
ATOM     20  C   UNL     1       1.555   2.703  19.917  0.00  0.00    +0.000 A 
ATOM     21  C   UNL     1       1.167   3.829  20.634  0.00  0.00    +0.000 A 
ATOM     22  C   UNL     1       1.605   5.131  20.183  0.00  0.00    +0.000 A 
ATOM     23  C   UNL     1       1.384   6.410  20.795  0.00  0.00    +0.000 A 
ENDBRANCH   9  14
BRANCH   6  24
ATOM     24  C   UNL     1      -2.603  11.645  17.663  0.00  0.00    +0.000 C 
BRANCH  24  25
ATOM     25  C   UNL     1      -4.099  11.518  17.386  0.00  0.00    +0.000 C 
BRANCH  25  26
ATOM     26  C   UNL     1      -5.004  11.474  18.596  0.00  0.00    +0.000 A 
ATOM     27  C   UNL     1      -6.148  10.648  18.556  0.00  0.00    +0.000 A 
ATOM     28  C   UNL     1      -7.129  10.700  19.541  0.00  0.00    +0.000 A 
ATOM     29  C   UNL     1      -6.934  11.501  20.653  0.00  0.00    +0.000 A 
ATOM     30  C   UNL     1      -5.771  12.268  20.755  0.00  0.00    +0.000 A 
ATOM     31  C   UNL     1      -4.790  12.256  19.745  0.00  0.00    +0.000 A 
BRANCH  31  32
ATOM     32  O   UNL     1      -3.744  13.108  19.996  0.00  0.00    +0.000 OA
ATOM     33  C   UNL     1      -3.960  14.222  20.857  0.00  0.00    +0.000 C 
ENDBRANCH  31  32
ENDBRANCH  25  26
ENDBRANCH  24  25
ENDBRANCH   6  24
TORSDOF 5
ENDMDL
MODEL 8
REMARK VINA RESULT:      -7.6      4.655      8.357
REMARK  Name = 
REMARK  7 active torsions:
REMARK  status: ('A' for Active; 'I' for Inactive)
REMARK    1  A    between atoms: C_1  and  N_2
REMARK    2  A    between atoms: N_6  and  C_7
REMARK    3  A    between atoms: C_7  and  C_8
REMARK    4  A    between atoms: C_8  and  C_9
REMARK    5  A    between atoms: C_14  and  O_15
REMARK    6  A    between atoms: O_15  and  C_16
REMARK    7  A    between atoms: N_19  and  C_20
REMARK                            x       y       z     vdW  Elec       q    Type
REMARK                         _______ _______ _______ _____ _____    ______ ____
ROOT
ATOM      1  C   UNL     1       2.225   2.242  21.914  0.00  0.00    +0.000 C 
ATOM      2  N   UNL     1       2.266   3.678  21.889  0.00  0.00    +0.000 N 
ATOM      3  C   UNL     1       2.441   4.296  20.657  0.00  0.00    +0.000 A 
ATOM      4  N   UNL     1       2.060   5.554  20.606  0.00  0.00    +0.000 NA
ATOM      5  C   UNL     1       2.223   6.193  19.440  0.00  0.00    +0.000 A 
ATOM      6  N   UNL     1       1.901   7.500  19.341  0.00  0.00    +0.000 N 
ATOM      7  N   UNL     1       2.754   5.613  18.370  0.00  0.00    +0.000 NA
ATOM      8  C   UNL     1       3.188   4.383  18.530  0.00  0.00    +0.000 A 
ATOM      9  N   UNL     1       3.861   3.764  17.477  0.00  0.00    +0.000 N 
ATOM     10  N   UNL     1       3.016   3.657  19.644  0.00  0.00    +0.000 NA
ATOM     11  H   UNL     1       2.865   4.141  22.570  0.00  0.00    +0.000 HD
ATOM     12  H   UNL     1       1.546   7.807  18.450  0.00  0.00    +0.000 HD
ATOM     13  H   UNL     1       3.912   2.767  17.630  0.00  0.00    +0.000 HD
ENDROOT
BRANCH   9  14
ATOM     14  C   UNL     1       4.767   4.265  16.518  0.00  0.00    +0.000 A 
ATOM     15  C   UNL     1       5.546   5.362  16.876  0.00  0.00    +0.000 A 
ATOM     16  C   UNL     1       6.539   5.821  16.014  0.00  0.00    +0.000 A 
ATOM     17  C   UNL     1       6.784   5.230  14.787  0.00  0.00    +0.000 A 
ATOM     18  N   UNL     1       7.925   5.533  14.203  0.00  0.00    +0.000 NA
ATOM     19  C   UNL     1       8.186   4.866  13.071  0.00  0.00    +0.000 A 
ATOM     20  C   UNL     1       7.198   4.457  12.236  0.00  0.00    +0.000 A 
ATOM     21  C   UNL     1       6.166   3.844  12.939  0.00  0.00    +0.000 A 
ATOM     22  C   UNL     1       5.943   4.215  14.318  0.00  0.00    +0.000 A 
ATOM     23  C   UNL     1       4.991   3.674  15.247  0.00  0.00    +0.000 A 
ENDBRANCH   9  14
BRANCH   6  24
ATOM     24  C   UNL     1       1.824   8.276  20.551  0.00  0.00    +0.000 C 
BRANCH  24  25
ATOM     25  C   UNL     1       0.436   8.894  20.704  0.00  0.00    +0.000 C 
BRANCH  25  26
ATOM     26  C   UNL     1       0.314  10.363  20.368  0.00  0.00    +0.000 A 
ATOM     27  C   UNL     1       0.423  10.762  19.019  0.00  0.00    +0.000 A 
ATOM     28  C   UNL     1       0.519  12.099  18.651  0.00  0.00    +0.000 A 
ATOM     29  C   UNL     1       0.393  13.081  19.619  0.00  0.00    +0.000 A 
ATOM     30  C   UNL     1       0.202  12.714  20.953  0.00  0.00    +0.000 A 
ATOM     31  C   UNL     1       0.146  11.363  21.344  0.00  0.00    +0.000 A 
BRANCH  31  32
ATOM     32  O   UNL     1       0.004  11.196  22.699  0.00  0.00    +0.000 OA
ATOM     33  C   UNL     1      -1.253  10.758  23.206  0.00  0.00    +0.000 C 
ENDBRANCH  31  32
ENDBRANCH  25  26
ENDBRANCH  24  25
ENDBRANCH   6  24
TORSDOF 5
ENDMDL
MODEL 9
REMARK VINA RESULT:      -7.6      4.747      8.829
REMARK  Name = 
REMARK  7 active torsions:
REMARK  status: ('A' for Active; 'I' for Inactive)
REMARK    1  A    between atoms: C_1  and  N_2
REMARK    2  A    between atoms: N_6  and  C_7
REMARK    3  A    between atoms: C_7  and  C_8
REMARK    4  A    between atoms: C_8  and  C_9
REMARK    5  A    between atoms: C_14  and  O_15
REMARK    6  A    between atoms: O_15  and  C_16
REMARK    7  A    between atoms: N_19  and  C_20
REMARK                            x       y       z     vdW  Elec       q    Type
REMARK                         _______ _______ _______ _____ _____    ______ ____
ROOT
ATOM      1  C   UNL     1       2.173   2.438  21.945  0.00  0.00    +0.000 C 
ATOM      2  N   UNL     1       2.228   3.873  21.892  0.00  0.00    +0.000 N 
ATOM      3  C   UNL     1       2.397   4.465  20.646  0.00  0.00    +0.000 A 
ATOM      4  N   UNL     1       2.028   5.725  20.574  0.00  0.00    +0.000 NA
ATOM      5  C   UNL     1       2.186   6.339  19.394  0.00  0.00    +0.000 A 
ATOM      6  N   UNL     1       1.876   7.648  19.272  0.00  0.00    +0.000 N 
ATOM      7  N   UNL     1       2.702   5.734  18.331  0.00  0.00    +0.000 NA
ATOM      8  C   UNL     1       3.126   4.503  18.512  0.00  0.00    +0.000 A 
ATOM      9  N   UNL     1       3.784   3.857  17.465  0.00  0.00    +0.000 N 
ATOM     10  N   UNL     1       2.958   3.801  19.642  0.00  0.00    +0.000 NA
ATOM     11  H   UNL     1       2.837   4.343  22.558  0.00  0.00    +0.000 HD
ATOM     12  H   UNL     1       1.516   7.940  18.378  0.00  0.00    +0.000 HD
ATOM     13  H   UNL     1       3.828   2.863  17.638  0.00  0.00    +0.000 HD
ENDROOT
BRANCH   9  14
ATOM     14  C   UNL     1       4.686   4.331  16.489  0.00  0.00    +0.000 A 
ATOM     15  C   UNL     1       5.448   5.454  16.803  0.00  0.00    +0.000 A 
ATOM     16  C   UNL     1       6.437   5.890  15.925  0.00  0.00    +0.000 A 
ATOM     17  C   UNL     1       6.695   5.252  14.725  0.00  0.00    +0.000 A 
ATOM     18  N   UNL     1       7.834   5.547  14.132  0.00  0.00    +0.000 NA
ATOM     19  C   UNL     1       8.110   4.837  13.030  0.00  0.00    +0.000 A 
ATOM     20  C   UNL     1       7.130   4.377  12.210  0.00  0.00    +0.000 A 
ATOM     21  C   UNL     1       6.105   3.780  12.935  0.00  0.00    +0.000 A 
ATOM     22  C   UNL     1       5.871   4.205  14.297  0.00  0.00    +0.000 A 
ATOM     23  C   UNL     1       4.924   3.689  15.245  0.00  0.00    +0.000 A 
ENDBRANCH   9  14
BRANCH   6  24
ATOM     24  C   UNL     1       1.816   8.448  20.467  0.00  0.00    +0.000 C 
BRANCH  24  25
ATOM     25  C   UNL     1       0.373   8.598  20.940  0.00  0.00    +0.000 C 
BRANCH  25  26
ATOM     26  C   UNL     1      -0.177  10.006  20.983  0.00  0.00    +0.000 A 
ATOM     27  C   UNL     1      -0.186  10.694  22.216  0.00  0.00    +0.000 A 
ATOM     28  C   UNL     1      -0.849  11.905  22.378  0.00  0.00    +0.000 A 
ATOM     29  C   UNL     1      -1.426  12.518  21.280  0.00  0.00    +0.000 A 
ATOM     30  C   UNL     1      -1.360  11.897  20.030  0.00  0.00    +0.000 A 
ATOM     31  C   UNL     1      -0.729  10.650  19.860  0.00  0.00    +0.000 A 
BRANCH  31  32
ATOM     32  O   UNL     1      -0.807  10.173  18.576  0.00  0.00    +0.000 OA
ATOM     33  C   UNL     1      -1.936  10.527  17.783  0.00  0.00    +0.000 C 
ENDBRANCH  31  32
ENDBRANCH  25  26
ENDBRANCH  24  25
ENDBRANCH   6  24
TORSDOF 5
ENDMDL
