MODEL 1
REMARK VINA RESULT:      -6.8      0.000      0.000
REMARK  Name = 
REMARK  13 active torsions:
REMARK  status: ('A' for Active; 'I' for Inactive)
REMARK    1  A    between atoms: C_1  and  N_2
REMARK    2  A    between atoms: N_2  and  C_3
REMARK    3  A    between atoms: C_4  and  C_6
REMARK    4  A    between atoms: C_6  and  S_7
REMARK    5  A    between atoms: S_7  and  C_8
REMARK    6  A    between atoms: C_11  and  C_12
REMARK    7  A    between atoms: C_12  and  C_13
REMARK    8  A    between atoms: C_13  and  N_14
REMARK    9  A    between atoms: C_15  and  O_17
REMARK   10  A    between atoms: O_17  and  C_18
REMARK   11  A    between atoms: C_18  and  C_19
REMARK   12  A    between atoms: C_18  and  C_20
REMARK   13  A    between atoms: C_18  and  C_21
REMARK                            x       y       z     vdW  Elec       q    Type
REMARK                         _______ _______ _______ _____ _____    ______ ____
ROOT
ATOM      1  C   UNL     1       4.285   3.076  18.401  0.00  0.00    +0.000 A 
ATOM      2  N   UNL     1       5.024   3.262  19.477  0.00  0.00    +0.000 NA
ATOM      3  N   UNL     1       5.768   4.405  19.260  0.00  0.00    +0.000 NA
ATOM      4  C   UNL     1       5.442   4.836  18.060  0.00  0.00    +0.000 A 
ATOM      5  O   UNL     1       4.495   4.050  17.457  0.00  0.00    +0.000 OA
ENDROOT
BRANCH   1   6
ATOM      6  S   UNL     1       3.186   1.753  18.154  0.00  0.00    +0.000 S 
BRANCH   6   7
ATOM      7  C   UNL     1       1.868   2.191  19.323  0.00  0.00    +0.000 C 
BRANCH   7  11
ATOM      8  C   UNL     1       1.715   5.838  20.506  0.00  0.00    +0.000 C 
ATOM      9  N   UNL     1       1.886   4.393  20.524  0.00  0.00    +0.000 N 
ATOM     10  C   UNL     1       2.262   3.762  21.778  0.00  0.00    +0.000 C 
ATOM     11  C   UNL     1       1.667   3.701  19.335  0.00  0.00    +0.000 C 
ATOM     12  O   UNL     1       1.323   4.289  18.304  0.00  0.00    +0.000 OA
ENDBRANCH   7  11
ENDBRANCH   6   7
ENDBRANCH   1   6
BRANCH   4  13
ATOM     13  C   UNL     1       5.931   6.018  17.303  0.00  0.00    +0.000 C 
BRANCH  13  14
ATOM     14  C   UNL     1       5.322   6.082  15.900  0.00  0.00    +0.000 C 
BRANCH  14  15
ATOM     15  N   UNL     1       5.462   4.836  15.164  0.00  0.00    +0.000 N 
ATOM     16  C   UNL     1       6.602   4.558  14.464  0.00  0.00    +0.000 C 
ATOM     17  O   UNL     1       7.594   5.271  14.494  0.00  0.00    +0.000 OA
ATOM     18  H   UNL     1       4.685   4.198  15.056  0.00  0.00    +0.000 HD
BRANCH  16  19
ATOM     19  O   UNL     1       6.467   3.404  13.761  0.00  0.00    +0.000 OA
BRANCH  19  20
ATOM     20  C   UNL     1       6.390   3.476  12.308  0.00  0.00    +0.000 C 
ATOM     21  C   UNL     1       6.862   2.168  11.657  0.00  0.00    +0.000 C 
ATOM     22  C   UNL     1       4.903   3.664  11.958  0.00  0.00    +0.000 C 
ATOM     23  C   UNL     1       7.152   4.697  11.775  0.00  0.00    +0.000 C 
ENDBRANCH  19  20
ENDBRANCH  16  19
ENDBRANCH  14  15
ENDBRANCH  13  14
ENDBRANCH   4  13
TORSDOF 8
ENDMDL
MODEL 2
REMARK VINA RESULT:      -6.7      5.427      8.520
REMARK  Name = 
REMARK  13 active torsions:
REMARK  status: ('A' for Active; 'I' for Inactive)
REMARK    1  A    between atoms: C_1  and  N_2
REMARK    2  A    between atoms: N_2  and  C_3
REMARK    3  A    between atoms: C_4  and  C_6
REMARK    4  A    between atoms: C_6  and  S_7
REMARK    5  A    between atoms: S_7  and  C_8
REMARK    6  A    between atoms: C_11  and  C_12
REMARK    7  A    between atoms: C_12  and  C_13
REMARK    8  A    between atoms: C_13  and  N_14
REMARK    9  A    between atoms: C_15  and  O_17
REMARK   10  A    between atoms: O_17  and  C_18
REMARK   11  A    between atoms: C_18  and  C_19
REMARK   12  A    between atoms: C_18  and  C_20
REMARK   13  A    between atoms: C_18  and  C_21
REMARK                            x       y       z     vdW  Elec       q    Type
REMARK                         _______ _______ _______ _____ _____    ______ ____
ROOT
ATOM      1  C   UNL     1       8.432   8.732  18.361  0.00  0.00    +0.000 A 
ATOM      2  N   UNL     1       7.759   8.877  17.237  0.00  0.00    +0.000 NA
ATOM      3  N   UNL     1       7.218   7.645  16.930  0.00  0.00    +0.000 NA
ATOM      4  C   UNL     1       7.605   6.823  17.882  0.00  0.00    +0.000 A 
ATOM      5  O   UNL     1       8.370   7.444  18.835  0.00  0.00    +0.000 OA
ENDROOT
BRANCH   1   6
ATOM      6  S   UNL     1       9.330   9.984  19.165  0.00  0.00    +0.000 S 
BRANCH   6   7
ATOM      7  C   UNL     1       8.799  11.437  18.215  0.00  0.00    +0.000 C 
BRANCH   7  11
ATOM      8  C   UNL     1      11.090  14.392  17.352  0.00  0.00    +0.000 C 
ATOM      9  N   UNL     1       9.908  13.636  17.737  0.00  0.00    +0.000 N 
ATOM     10  C   UNL     1       8.689  14.371  18.034  0.00  0.00    +0.000 C 
ATOM     11  C   UNL     1      10.016  12.248  17.787  0.00  0.00    +0.000 C 
ATOM     12  O   UNL     1      11.072  11.676  17.498  0.00  0.00    +0.000 OA
ENDBRANCH   7  11
ENDBRANCH   6   7
ENDBRANCH   1   6
BRANCH   4  13
ATOM     13  C   UNL     1       7.330   5.374  18.066  0.00  0.00    +0.000 C 
BRANCH  13  14
ATOM     14  C   UNL     1       6.286   5.131  19.158  0.00  0.00    +0.000 C 
BRANCH  14  15
ATOM     15  N   UNL     1       5.044   4.577  18.642  0.00  0.00    +0.000 N 
ATOM     16  C   UNL     1       4.577   3.371  19.081  0.00  0.00    +0.000 C 
ATOM     17  O   UNL     1       5.102   2.742  19.988  0.00  0.00    +0.000 OA
ATOM     18  H   UNL     1       4.555   5.010  17.869  0.00  0.00    +0.000 HD
BRANCH  16  19
ATOM     19  O   UNL     1       3.474   2.997  18.383  0.00  0.00    +0.000 OA
BRANCH  19  20
ATOM     20  C   UNL     1       2.179   3.529  18.784  0.00  0.00    +0.000 C 
ATOM     21  C   UNL     1       1.689   4.607  17.806  0.00  0.00    +0.000 C 
ATOM     22  C   UNL     1       1.186   2.354  18.721  0.00  0.00    +0.000 C 
ATOM     23  C   UNL     1       2.215   4.032  20.234  0.00  0.00    +0.000 C 
ENDBRANCH  19  20
ENDBRANCH  16  19
ENDBRANCH  14  15
ENDBRANCH  13  14
ENDBRANCH   4  13
TORSDOF 8
ENDMDL
MODEL 3
REMARK VINA RESULT:      -6.7      4.866      7.817
REMARK  Name = 
REMARK  13 active torsions:
REMARK  status: ('A' for Active; 'I' for Inactive)
REMARK    1  A    between atoms: C_1  and  N_2
REMARK    2  A    between atoms: N_2  and  C_3
REMARK    3  A    between atoms: C_4  and  C_6
REMARK    4  A    between atoms: C_6  and  S_7
REMARK    5  A    between atoms: S_7  and  C_8
REMARK    6  A    between atoms: C_11  and  C_12
REMARK    7  A    between atoms: C_12  and  C_13
REMARK    8  A    between atoms: C_13  and  N_14
REMARK    9  A    between atoms: C_15  and  O_17
REMARK   10  A    between atoms: O_17  and  C_18
REMARK   11  A    between atoms: C_18  and  C_19
REMARK   12  A    between atoms: C_18  and  C_20
REMARK   13  A    between atoms: C_18  and  C_21
REMARK                            x       y       z     vdW  Elec       q    Type
REMARK                         _______ _______ _______ _____ _____    ______ ____
ROOT
ATOM      1  C   UNL     1       7.892   8.107  17.772  0.00  0.00    +0.000 A 
ATOM      2  N   UNL     1       8.154   7.219  18.711  0.00  0.00    +0.000 NA
ATOM      3  N   UNL     1       7.706   5.998  18.246  0.00  0.00    +0.000 NA
ATOM      4  C   UNL     1       7.189   6.222  17.057  0.00  0.00    +0.000 A 
ATOM      5  O   UNL     1       7.282   7.537  16.681  0.00  0.00    +0.000 OA
ENDROOT
BRANCH   1   6
ATOM      6  S   UNL     1       8.232   9.807  17.874  0.00  0.00    +0.000 S 
BRANCH   6   7
ATOM      7  C   UNL     1       9.236   9.857  19.386  0.00  0.00    +0.000 C 
BRANCH   7  11
ATOM      8  C   UNL     1      10.692  13.223  20.518  0.00  0.00    +0.000 C 
ATOM      9  N   UNL     1       9.879  12.016  20.490  0.00  0.00    +0.000 N 
ATOM     10  C   UNL     1       8.928  11.804  21.570  0.00  0.00    +0.000 C 
ATOM     11  C   UNL     1      10.056  11.141  19.421  0.00  0.00    +0.000 C 
ATOM     12  O   UNL     1      10.862  11.387  18.517  0.00  0.00    +0.000 OA
ENDBRANCH   7  11
ENDBRANCH   6   7
ENDBRANCH   1   6
BRANCH   4  13
ATOM     13  C   UNL     1       6.554   5.282  16.098  0.00  0.00    +0.000 C 
BRANCH  13  14
ATOM     14  C   UNL     1       5.838   4.137  16.818  0.00  0.00    +0.000 C 
BRANCH  14  15
ATOM     15  N   UNL     1       4.712   4.587  17.620  0.00  0.00    +0.000 N 
ATOM     16  C   UNL     1       4.558   4.169  18.912  0.00  0.00    +0.000 C 
ATOM     17  O   UNL     1       5.389   3.491  19.496  0.00  0.00    +0.000 OA
ATOM     18  H   UNL     1       3.958   5.126  17.214  0.00  0.00    +0.000 HD
BRANCH  16  19
ATOM     19  O   UNL     1       3.384   4.615  19.426  0.00  0.00    +0.000 OA
BRANCH  19  20
ATOM     20  C   UNL     1       2.173   3.846  19.174  0.00  0.00    +0.000 C 
ATOM     21  C   UNL     1       2.443   2.336  19.246  0.00  0.00    +0.000 C 
ATOM     22  C   UNL     1       1.187   4.199  20.303  0.00  0.00    +0.000 C 
ATOM     23  C   UNL     1       1.525   4.257  17.844  0.00  0.00    +0.000 C 
ENDBRANCH  19  20
ENDBRANCH  16  19
ENDBRANCH  14  15
ENDBRANCH  13  14
ENDBRANCH   4  13
TORSDOF 8
ENDMDL
MODEL 4
REMARK VINA RESULT:      -6.7      5.348      8.494
REMARK  Name = 
REMARK  13 active torsions:
REMARK  status: ('A' for Active; 'I' for Inactive)
REMARK    1  A    between atoms: C_1  and  N_2
REMARK    2  A    between atoms: N_2  and  C_3
REMARK    3  A    between atoms: C_4  and  C_6
REMARK    4  A    between atoms: C_6  and  S_7
REMARK    5  A    between atoms: S_7  and  C_8
REMARK    6  A    between atoms: C_11  and  C_12
REMARK    7  A    between atoms: C_12  and  C_13
REMARK    8  A    between atoms: C_13  and  N_14
REMARK    9  A    between atoms: C_15  and  O_17
REMARK   10  A    between atoms: O_17  and  C_18
REMARK   11  A    between atoms: C_18  and  C_19
REMARK   12  A    between atoms: C_18  and  C_20
REMARK   13  A    between atoms: C_18  and  C_21
REMARK                            x       y       z     vdW  Elec       q    Type
REMARK                         _______ _______ _______ _____ _____    ______ ____
ROOT
ATOM      1  C   UNL     1       8.384   8.723  18.448  0.00  0.00    +0.000 A 
ATOM      2  N   UNL     1       7.691   8.818  17.330  0.00  0.00    +0.000 NA
ATOM      3  N   UNL     1       7.264   7.544  17.012  0.00  0.00    +0.000 NA
ATOM      4  C   UNL     1       7.734   6.751  17.951  0.00  0.00    +0.000 A 
ATOM      5  O   UNL     1       8.445   7.429  18.906  0.00  0.00    +0.000 OA
ENDROOT
BRANCH   1   6
ATOM      6  S   UNL     1       9.167  10.044  19.260  0.00  0.00    +0.000 S 
BRANCH   6   7
ATOM      7  C   UNL     1       9.834  10.959  17.842  0.00  0.00    +0.000 C 
BRANCH   7  11
ATOM      8  C   UNL     1       9.259  14.747  18.076  0.00  0.00    +0.000 C 
ATOM      9  N   UNL     1       9.896  13.443  18.193  0.00  0.00    +0.000 N 
ATOM     10  C   UNL     1      11.231  13.378  18.765  0.00  0.00    +0.000 C 
ATOM     11  C   UNL     1       9.178  12.332  17.756  0.00  0.00    +0.000 C 
ATOM     12  O   UNL     1       8.035  12.445  17.301  0.00  0.00    +0.000 OA
ENDBRANCH   7  11
ENDBRANCH   6   7
ENDBRANCH   1   6
BRANCH   4  13
ATOM     13  C   UNL     1       7.596   5.281  18.119  0.00  0.00    +0.000 C 
BRANCH  13  14
ATOM     14  C   UNL     1       6.208   4.791  17.697  0.00  0.00    +0.000 C 
BRANCH  14  15
ATOM     15  N   UNL     1       5.559   3.981  18.716  0.00  0.00    +0.000 N 
ATOM     16  C   UNL     1       4.357   3.378  18.474  0.00  0.00    +0.000 C 
ATOM     17  O   UNL     1       3.813   3.392  17.380  0.00  0.00    +0.000 OA
ATOM     18  H   UNL     1       5.918   3.936  19.661  0.00  0.00    +0.000 HD
BRANCH  16  19
ATOM     19  O   UNL     1       3.884   2.777  19.596  0.00  0.00    +0.000 OA
BRANCH  19  20
ATOM     20  C   UNL     1       2.579   3.177  20.105  0.00  0.00    +0.000 C 
ATOM     21  C   UNL     1       2.408   2.781  21.578  0.00  0.00    +0.000 C 
ATOM     22  C   UNL     1       2.530   4.713  20.023  0.00  0.00    +0.000 C 
ATOM     23  C   UNL     1       1.451   2.626  19.221  0.00  0.00    +0.000 C 
ENDBRANCH  19  20
ENDBRANCH  16  19
ENDBRANCH  14  15
ENDBRANCH  13  14
ENDBRANCH   4  13
TORSDOF 8
ENDMDL
MODEL 5
REMARK VINA RESULT:      -6.5      4.718      7.984
REMARK  Name = 
REMARK  13 active torsions:
REMARK  status: ('A' for Active; 'I' for Inactive)
REMARK    1  A    between atoms: C_1  and  N_2
REMARK    2  A    between atoms: N_2  and  C_3
REMARK    3  A    between atoms: C_4  and  C_6
REMARK    4  A    between atoms: C_6  and  S_7
REMARK    5  A    between atoms: S_7  and  C_8
REMARK    6  A    between atoms: C_11  and  C_12
REMARK    7  A    between atoms: C_12  and  C_13
REMARK    8  A    between atoms: C_13  and  N_14
REMARK    9  A    between atoms: C_15  and  O_17
REMARK   10  A    between atoms: O_17  and  C_18
REMARK   11  A    between atoms: C_18  and  C_19
REMARK   12  A    between atoms: C_18  and  C_20
REMARK   13  A    between atoms: C_18  and  C_21
REMARK                            x       y       z     vdW  Elec       q    Type
REMARK                         _______ _______ _______ _____ _____    ______ ____
ROOT
ATOM      1  C   UNL     1       7.822   7.857  17.699  0.00  0.00    +0.000 A 
ATOM      2  N   UNL     1       8.109   7.024  18.679  0.00  0.00    +0.000 NA
ATOM      3  N   UNL     1       7.698   5.769  18.274  0.00  0.00    +0.000 NA
ATOM      4  C   UNL     1       7.175   5.921  17.076  0.00  0.00    +0.000 A 
ATOM      5  O   UNL     1       7.229   7.218  16.637  0.00  0.00    +0.000 OA
ENDROOT
BRANCH   1   6
ATOM      6  S   UNL     1       8.112   9.570  17.720  0.00  0.00    +0.000 S 
BRANCH   6   7
ATOM      7  C   UNL     1       9.126   9.719  19.218  0.00  0.00    +0.000 C 
BRANCH   7  11
ATOM      8  C   UNL     1      10.608  13.101  20.266  0.00  0.00    +0.000 C 
ATOM      9  N   UNL     1       9.838  11.866  20.304  0.00  0.00    +0.000 N 
ATOM     10  C   UNL     1       9.045  11.587  21.490  0.00  0.00    +0.000 C 
ATOM     11  C   UNL     1       9.901  11.031  19.191  0.00  0.00    +0.000 C 
ATOM     12  O   UNL     1      10.573  11.333  18.199  0.00  0.00    +0.000 OA
ENDBRANCH   7  11
ENDBRANCH   6   7
ENDBRANCH   1   6
BRANCH   4  13
ATOM     13  C   UNL     1       6.569   4.918  16.162  0.00  0.00    +0.000 C 
BRANCH  13  14
ATOM     14  C   UNL     1       5.431   4.151  16.840  0.00  0.00    +0.000 C 
BRANCH  14  15
ATOM     15  N   UNL     1       4.845   4.875  17.958  0.00  0.00    +0.000 N 
ATOM     16  C   UNL     1       4.431   4.217  19.081  0.00  0.00    +0.000 C 
ATOM     17  O   UNL     1       4.616   3.023  19.260  0.00  0.00    +0.000 OA
ATOM     18  H   UNL     1       4.626   5.860  17.890  0.00  0.00    +0.000 HD
BRANCH  16  19
ATOM     19  O   UNL     1       3.812   5.069  19.938  0.00  0.00    +0.000 OA
BRANCH  19  20
ATOM     20  C   UNL     1       2.388   4.895  20.189  0.00  0.00    +0.000 C 
ATOM     21  C   UNL     1       1.709   6.234  20.512  0.00  0.00    +0.000 C 
ATOM     22  C   UNL     1       1.775   4.364  18.880  0.00  0.00    +0.000 C 
ATOM     23  C   UNL     1       2.144   3.843  21.279  0.00  0.00    +0.000 C 
ENDBRANCH  19  20
ENDBRANCH  16  19
ENDBRANCH  14  15
ENDBRANCH  13  14
ENDBRANCH   4  13
TORSDOF 8
ENDMDL
MODEL 6
REMARK VINA RESULT:      -6.5      4.839      7.989
REMARK  Name = 
REMARK  13 active torsions:
REMARK  status: ('A' for Active; 'I' for Inactive)
REMARK    1  A    between atoms: C_1  and  N_2
REMARK    2  A    between atoms: N_2  and  C_3
REMARK    3  A    between atoms: C_4  and  C_6
REMARK    4  A    between atoms: C_6  and  S_7
REMARK    5  A    between atoms: S_7  and  C_8
REMARK    6  A    between atoms: C_11  and  C_12
REMARK    7  A    between atoms: C_12  and  C_13
REMARK    8  A    between atoms: C_13  and  N_14
REMARK    9  A    between atoms: C_15  and  O_17
REMARK   10  A    between atoms: O_17  and  C_18
REMARK   11  A    between atoms: C_18  and  C_19
REMARK   12  A    between atoms: C_18  and  C_20
REMARK   13  A    between atoms: C_18  and  C_21
REMARK                            x       y       z     vdW  Elec       q    Type
REMARK                         _______ _______ _______ _____ _____    ______ ____
ROOT
ATOM      1  C   UNL     1       7.748   8.161  17.791  0.00  0.00    +0.000 A 
ATOM      2  N   UNL     1       8.189   7.184  18.557  0.00  0.00    +0.000 NA
ATOM      3  N   UNL     1       7.382   6.089  18.316  0.00  0.00    +0.000 NA
ATOM      4  C   UNL     1       6.494   6.474  17.425  0.00  0.00    +0.000 A 
ATOM      5  O   UNL     1       6.669   7.775  17.033  0.00  0.00    +0.000 OA
ENDROOT
BRANCH   1   6
ATOM      6  S   UNL     1       8.404   9.770  17.737  0.00  0.00    +0.000 S 
BRANCH   6   7
ATOM      7  C   UNL     1       9.157   9.878  19.385  0.00  0.00    +0.000 C 
BRANCH   7  11
ATOM      8  C   UNL     1      10.621  13.180  20.683  0.00  0.00    +0.000 C 
ATOM      9  N   UNL     1       9.796  11.985  20.589  0.00  0.00    +0.000 N 
ATOM     10  C   UNL     1       8.815  11.743  21.634  0.00  0.00    +0.000 C 
ATOM     11  C   UNL     1       9.990  11.150  19.491  0.00  0.00    +0.000 C 
ATOM     12  O   UNL     1      10.822  11.420  18.618  0.00  0.00    +0.000 OA
ENDBRANCH   7  11
ENDBRANCH   6   7
ENDBRANCH   1   6
BRANCH   4  13
ATOM     13  C   UNL     1       5.376   5.718  16.801  0.00  0.00    +0.000 C 
BRANCH  13  14
ATOM     14  C   UNL     1       5.587   4.206  16.905  0.00  0.00    +0.000 C 
BRANCH  14  15
ATOM     15  N   UNL     1       5.028   3.638  18.123  0.00  0.00    +0.000 N 
ATOM     16  C   UNL     1       3.739   3.189  18.160  0.00  0.00    +0.000 C 
ATOM     17  O   UNL     1       3.021   3.140  17.173  0.00  0.00    +0.000 OA
ATOM     18  H   UNL     1       5.536   3.665  18.997  0.00  0.00    +0.000 HD
BRANCH  16  19
ATOM     19  O   UNL     1       3.395   2.815  19.419  0.00  0.00    +0.000 OA
BRANCH  19  20
ATOM     20  C   UNL     1       2.307   3.518  20.085  0.00  0.00    +0.000 C 
ATOM     21  C   UNL     1       2.364   5.027  19.808  0.00  0.00    +0.000 C 
ATOM     22  C   UNL     1       1.000   2.979  19.476  0.00  0.00    +0.000 C 
ATOM     23  C   UNL     1       2.286   3.204  21.587  0.00  0.00    +0.000 C 
ENDBRANCH  19  20
ENDBRANCH  16  19
ENDBRANCH  14  15
ENDBRANCH  13  14
ENDBRANCH   4  13
TORSDOF 8
ENDMDL
MODEL 7
REMARK VINA RESULT:      -6.5      1.706      2.282
REMARK  Name = 
REMARK  13 active torsions:
REMARK  status: ('A' for Active; 'I' for Inactive)
REMARK    1  A    between atoms: C_1  and  N_2
REMARK    2  A    between atoms: N_2  and  C_3
REMARK    3  A    between atoms: C_4  and  C_6
REMARK    4  A    between atoms: C_6  and  S_7
REMARK    5  A    between atoms: S_7  and  C_8
REMARK    6  A    between atoms: C_11  and  C_12
REMARK    7  A    between atoms: C_12  and  C_13
REMARK    8  A    between atoms: C_13  and  N_14
REMARK    9  A    between atoms: C_15  and  O_17
REMARK   10  A    between atoms: O_17  and  C_18
REMARK   11  A    between atoms: C_18  and  C_19
REMARK   12  A    between atoms: C_18  and  C_20
REMARK   13  A    between atoms: C_18  and  C_21
REMARK                            x       y       z     vdW  Elec       q    Type
REMARK                         _______ _______ _______ _____ _____    ______ ____
ROOT
ATOM      1  C   UNL     1       4.315   5.845  18.785  0.00  0.00    +0.000 A 
ATOM      2  N   UNL     1       4.736   5.223  19.868  0.00  0.00    +0.000 NA
ATOM      3  N   UNL     1       6.018   4.781  19.606  0.00  0.00    +0.000 NA
ATOM      4  C   UNL     1       6.293   5.153  18.374  0.00  0.00    +0.000 A 
ATOM      5  O   UNL     1       5.264   5.846  17.791  0.00  0.00    +0.000 OA
ENDROOT
BRANCH   1   6
ATOM      6  S   UNL     1       2.747   6.564  18.584  0.00  0.00    +0.000 S 
BRANCH   6   7
ATOM      7  C   UNL     1       1.730   5.429  19.571  0.00  0.00    +0.000 C 
BRANCH   7  11
ATOM      8  C   UNL     1       1.615   1.665  18.828  0.00  0.00    +0.000 C 
ATOM      9  N   UNL     1       1.796   2.921  19.541  0.00  0.00    +0.000 N 
ATOM     10  C   UNL     1       2.206   2.866  20.935  0.00  0.00    +0.000 C 
ATOM     11  C   UNL     1       1.574   4.102  18.837  0.00  0.00    +0.000 C 
ATOM     12  O   UNL     1       1.252   4.088  17.645  0.00  0.00    +0.000 OA
ENDBRANCH   7  11
ENDBRANCH   6   7
ENDBRANCH   1   6
BRANCH   4  13
ATOM     13  C   UNL     1       7.521   4.945  17.564  0.00  0.00    +0.000 C 
BRANCH  13  14
ATOM     14  C   UNL     1       7.372   5.522  16.154  0.00  0.00    +0.000 C 
BRANCH  14  15
ATOM     15  N   UNL     1       7.323   4.495  15.124  0.00  0.00    +0.000 N 
ATOM     16  C   UNL     1       6.158   4.213  14.469  0.00  0.00    +0.000 C 
ATOM     17  O   UNL     1       5.132   4.857  14.626  0.00  0.00    +0.000 OA
ATOM     18  H   UNL     1       8.113   3.889  14.946  0.00  0.00    +0.000 HD
BRANCH  16  19
ATOM     19  O   UNL     1       6.315   3.148  13.642  0.00  0.00    +0.000 OA
BRANCH  19  20
ATOM     20  C   UNL     1       6.233   3.361  12.204  0.00  0.00    +0.000 C 
ATOM     21  C   UNL     1       7.108   4.543  11.762  0.00  0.00    +0.000 C 
ATOM     22  C   UNL     1       6.792   2.090  11.540  0.00  0.00    +0.000 C 
ATOM     23  C   UNL     1       4.774   3.519  11.753  0.00  0.00    +0.000 C 
ENDBRANCH  19  20
ENDBRANCH  16  19
ENDBRANCH  14  15
ENDBRANCH  13  14
ENDBRANCH   4  13
TORSDOF 8
ENDMDL
MODEL 8
REMARK VINA RESULT:      -6.4      5.558      8.042
REMARK  Name = 
REMARK  13 active torsions:
REMARK  status: ('A' for Active; 'I' for Inactive)
REMARK    1  A    between atoms: C_1  and  N_2
REMARK    2  A    between atoms: N_2  and  C_3
REMARK    3  A    between atoms: C_4  and  C_6
REMARK    4  A    between atoms: C_6  and  S_7
REMARK    5  A    between atoms: S_7  and  C_8
REMARK    6  A    between atoms: C_11  and  C_12
REMARK    7  A    between atoms: C_12  and  C_13
REMARK    8  A    between atoms: C_13  and  N_14
REMARK    9  A    between atoms: C_15  and  O_17
REMARK   10  A    between atoms: O_17  and  C_18
REMARK   11  A    between atoms: C_18  and  C_19
REMARK   12  A    between atoms: C_18  and  C_20
REMARK   13  A    between atoms: C_18  and  C_21
REMARK                            x       y       z     vdW  Elec       q    Type
REMARK                         _______ _______ _______ _____ _____    ______ ____
ROOT
ATOM      1  C   UNL     1       8.356   9.112  18.118  0.00  0.00    +0.000 A 
ATOM      2  N   UNL     1       7.510   8.802  17.156  0.00  0.00    +0.000 NA
ATOM      3  N   UNL     1       7.219   7.459  17.295  0.00  0.00    +0.000 NA
ATOM      4  C   UNL     1       7.914   7.035  18.328  0.00  0.00    +0.000 A 
ATOM      5  O   UNL     1       8.652   8.031  18.912  0.00  0.00    +0.000 OA
ENDROOT
BRANCH   1   6
ATOM      6  S   UNL     1       9.059  10.681  18.371  0.00  0.00    +0.000 S 
BRANCH   6   7
ATOM      7  C   UNL     1       9.435  10.596  20.145  0.00  0.00    +0.000 C 
BRANCH   7  11
ATOM      8  C   UNL     1       9.685  13.852  22.161  0.00  0.00    +0.000 C 
ATOM      9  N   UNL     1       9.206  12.563  21.686  0.00  0.00    +0.000 N 
ATOM     10  C   UNL     1       8.028  11.992  22.319  0.00  0.00    +0.000 C 
ATOM     11  C   UNL     1       9.902  11.960  20.641  0.00  0.00    +0.000 C 
ATOM     12  O   UNL     1      10.882  12.505  20.123  0.00  0.00    +0.000 OA
ENDBRANCH   7  11
ENDBRANCH   6   7
ENDBRANCH   1   6
BRANCH   4  13
ATOM     13  C   UNL     1       7.999   5.680  18.933  0.00  0.00    +0.000 C 
BRANCH  13  14
ATOM     14  C   UNL     1       7.154   4.663  18.162  0.00  0.00    +0.000 C 
BRANCH  14  15
ATOM     15  N   UNL     1       5.729   4.950  18.220  0.00  0.00    +0.000 N 
ATOM     16  C   UNL     1       4.890   4.190  18.985  0.00  0.00    +0.000 C 
ATOM     17  O   UNL     1       5.284   3.308  19.733  0.00  0.00    +0.000 OA
ATOM     18  H   UNL     1       5.305   5.640  17.614  0.00  0.00    +0.000 HD
BRANCH  16  19
ATOM     19  O   UNL     1       3.597   4.559  18.796  0.00  0.00    +0.000 OA
BRANCH  19  20
ATOM     20  C   UNL     1       2.600   3.523  18.564  0.00  0.00    +0.000 C 
ATOM     21  C   UNL     1       1.978   3.040  19.883  0.00  0.00    +0.000 C 
ATOM     22  C   UNL     1       1.482   4.171  17.728  0.00  0.00    +0.000 C 
ATOM     23  C   UNL     1       3.188   2.367  17.742  0.00  0.00    +0.000 C 
ENDBRANCH  19  20
ENDBRANCH  16  19
ENDBRANCH  14  15
ENDBRANCH  13  14
ENDBRANCH   4  13
TORSDOF 8
ENDMDL
MODEL 9
REMARK VINA RESULT:      -6.4      3.610      5.842
REMARK  Name = 
REMARK  13 active torsions:
REMARK  status: ('A' for Active; 'I' for Inactive)
REMARK    1  A    between atoms: C_1  and  N_2
REMARK    2  A    between atoms: N_2  and  C_3
REMARK    3  A    between atoms: C_4  and  C_6
REMARK    4  A    between atoms: C_6  and  S_7
REMARK    5  A    between atoms: S_7  and  C_8
REMARK    6  A    between atoms: C_11  and  C_12
REMARK    7  A    between atoms: C_12  and  C_13
REMARK    8  A    between atoms: C_13  and  N_14
REMARK    9  A    between atoms: C_15  and  O_17
REMARK   10  A    between atoms: O_17  and  C_18
REMARK   11  A    between atoms: C_18  and  C_19
REMARK   12  A    between atoms: C_18  and  C_20
REMARK   13  A    between atoms: C_18  and  C_21
REMARK                            x       y       z     vdW  Elec       q    Type
REMARK                         _______ _______ _______ _____ _____    ______ ____
ROOT
ATOM      1  C   UNL     1       2.311   6.975  18.830  0.00  0.00    +0.000 A 
ATOM      2  N   UNL     1       2.179   7.046  20.139  0.00  0.00    +0.000 NA
ATOM      3  N   UNL     1       1.862   5.776  20.580  0.00  0.00    +0.000 NA
ATOM      4  C   UNL     1       1.809   5.015  19.508  0.00  0.00    +0.000 A 
ATOM      5  O   UNL     1       2.096   5.703  18.358  0.00  0.00    +0.000 OA
ENDROOT
BRANCH   1   6
ATOM      6  S   UNL     1       2.682   8.312  17.784  0.00  0.00    +0.000 S 
BRANCH   6   7
ATOM      7  C   UNL     1       1.166   9.297  17.951  0.00  0.00    +0.000 C 
BRANCH   7  11
ATOM      8  C   UNL     1       1.203  12.207  20.453  0.00  0.00    +0.000 C 
ATOM      9  N   UNL     1       0.863  10.940  19.823  0.00  0.00    +0.000 N 
ATOM     10  C   UNL     1      -0.110  10.084  20.483  0.00  0.00    +0.000 C 
ATOM     11  C   UNL     1       1.485  10.631  18.616  0.00  0.00    +0.000 C 
ATOM     12  O   UNL     1       2.285  11.410  18.088  0.00  0.00    +0.000 OA
ENDBRANCH   7  11
ENDBRANCH   6   7
ENDBRANCH   1   6
BRANCH   4  13
ATOM     13  C   UNL     1       1.506   3.566  19.378  0.00  0.00    +0.000 C 
BRANCH  13  14
ATOM     14  C   UNL     1       2.782   2.727  19.276  0.00  0.00    +0.000 C 
BRANCH  14  15
ATOM     15  N   UNL     1       3.988   3.495  19.543  0.00  0.00    +0.000 N 
ATOM     16  C   UNL     1       4.891   3.751  18.550  0.00  0.00    +0.000 C 
ATOM     17  O   UNL     1       4.700   3.449  17.381  0.00  0.00    +0.000 OA
ATOM     18  H   UNL     1       4.246   3.761  20.484  0.00  0.00    +0.000 HD
BRANCH  16  19
ATOM     19  O   UNL     1       5.990   4.375  19.046  0.00  0.00    +0.000 OA
BRANCH  19  20
ATOM     20  C   UNL     1       6.727   5.286  18.181  0.00  0.00    +0.000 C 
ATOM     21  C   UNL     1       5.805   6.359  17.584  0.00  0.00    +0.000 C 
ATOM     22  C   UNL     1       7.758   5.999  19.075  0.00  0.00    +0.000 C 
ATOM     23  C   UNL     1       7.499   4.517  17.101  0.00  0.00    +0.000 C 
ENDBRANCH  19  20
ENDBRANCH  16  19
ENDBRANCH  14  15
ENDBRANCH  13  14
ENDBRANCH   4  13
TORSDOF 8
ENDMDL
