MODEL 1
REMARK VINA RESULT:      -8.3      0.000      0.000
REMARK  Name = 
REMARK  6 active torsions:
REMARK  status: ('A' for Active; 'I' for Inactive)
REMARK    1  A    between atoms: C_1  and  C_2
REMARK    2  A    between atoms: C_2  and  O_3
REMARK    3  A    between atoms: O_3  and  C_4
REMARK    4  A    between atoms: C_9  and  N_10
REMARK    5  A    between atoms: N_10  and  C_11
REMARK    6  A    between atoms: C_13  and  C_14
REMARK                            x       y       z     vdW  Elec       q    Type
REMARK                         _______ _______ _______ _____ _____    ______ ____
ROOT
ATOM      1  C   UNL     1       2.621   5.697  18.883  0.00  0.00    +0.000 A 
ATOM      2  N   UNL     1       3.529   5.734  17.894  0.00  0.00    +0.000 NA
ATOM      3  C   UNL     1       4.453   4.761  17.827  0.00  0.00    +0.000 A 
ATOM      4  N   UNL     1       4.533   3.735  18.684  0.00  0.00    +0.000 NA
ATOM      5  C   UNL     1       3.609   3.689  19.661  0.00  0.00    +0.000 A 
ATOM      6  C   UNL     1       2.600   4.640  19.789  0.00  0.00    +0.000 A 
ATOM      7  C   UNL     1       1.596   4.503  20.903  0.00  0.00    +0.000 C 
ATOM      8  C   UNL     1       1.507   3.061  21.429  0.00  0.00    +0.000 C 
ATOM      9  N   UNL     1       2.833   2.548  21.768  0.00  0.00    +0.000 NA
ATOM     10  C   UNL     1       3.666   2.472  20.559  0.00  0.00    +0.000 C 
ATOM     11  H   UNL     1       2.756   1.613  22.164  0.00  0.00    +0.000 HD
ENDROOT
BRANCH   3  12
ATOM     12  C   UNL     1       5.391   4.768  16.701  0.00  0.00    +0.000 A 
ATOM     13  C   UNL     1       5.179   4.011  15.534  0.00  0.00    +0.000 A 
ATOM     14  C   UNL     1       6.062   4.088  14.461  0.00  0.00    +0.000 A 
ATOM     15  C   UNL     1       7.156   4.921  14.572  0.00  0.00    +0.000 A 
ATOM     16  N   UNL     1       7.426   5.654  15.674  0.00  0.00    +0.000 NA
ATOM     17  C   UNL     1       6.543   5.556  16.702  0.00  0.00    +0.000 A 
ENDBRANCH   3  12
BRANCH   1  18
ATOM     18  N   UNL     1       1.709   6.766  19.018  0.00  0.00    +0.000 N 
ATOM     19  H   UNL     1       1.123   6.770  18.187  0.00  0.00    +0.000 HD
BRANCH  18  25
ATOM     20  C   UNL     1      -0.858  11.051  19.452  0.00  0.00    +0.000 C 
ATOM     21  O   UNL     1      -1.385  11.326  20.526  0.00  0.00    +0.000 OA
ATOM     22  N   UNL     1       0.033  10.011  19.280  0.00  0.00    +0.000 N 
ATOM     23  C   UNL     1       0.232   9.099  20.392  0.00  0.00    +0.000 C 
ATOM     24  C   UNL     1       1.707   8.797  20.531  0.00  0.00    +0.000 C 
ATOM     25  C   UNL     1       2.257   8.120  19.268  0.00  0.00    +0.000 C 
ATOM     26  C   UNL     1       1.958   9.032  18.053  0.00  0.00    +0.000 C 
ATOM     27  C   UNL     1       0.507   9.529  17.987  0.00  0.00    +0.000 C 
BRANCH  20  28
ATOM     28  O   UNL     1      -1.125  11.712  18.297  0.00  0.00    +0.000 OA
BRANCH  28  30
ATOM     29  C   UNL     1      -2.537  10.995  16.519  0.00  0.00    +0.000 C 
ATOM     30  C   UNL     1      -2.498  11.654  17.885  0.00  0.00    +0.000 C 
ENDBRANCH  28  30
ENDBRANCH  20  28
ENDBRANCH  18  25
ENDBRANCH   1  18
TORSDOF 5
ENDMDL
MODEL 2
REMARK VINA RESULT:      -8.3      0.794      1.004
REMARK  Name = 
REMARK  6 active torsions:
REMARK  status: ('A' for Active; 'I' for Inactive)
REMARK    1  A    between atoms: C_1  and  C_2
REMARK    2  A    between atoms: C_2  and  O_3
REMARK    3  A    between atoms: O_3  and  C_4
REMARK    4  A    between atoms: C_9  and  N_10
REMARK    5  A    between atoms: N_10  and  C_11
REMARK    6  A    between atoms: C_13  and  C_14
REMARK                            x       y       z     vdW  Elec       q    Type
REMARK                         _______ _______ _______ _____ _____    ______ ____
ROOT
ATOM      1  C   UNL     1       2.646   5.693  18.823  0.00  0.00    +0.000 A 
ATOM      2  N   UNL     1       3.549   5.719  17.830  0.00  0.00    +0.000 NA
ATOM      3  C   UNL     1       4.464   4.737  17.763  0.00  0.00    +0.000 A 
ATOM      4  N   UNL     1       4.540   3.715  18.623  0.00  0.00    +0.000 NA
ATOM      5  C   UNL     1       3.620   3.681  19.604  0.00  0.00    +0.000 A 
ATOM      6  C   UNL     1       2.619   4.640  19.734  0.00  0.00    +0.000 A 
ATOM      7  C   UNL     1       1.619   4.516  20.853  0.00  0.00    +0.000 C 
ATOM      8  C   UNL     1       1.521   3.077  21.385  0.00  0.00    +0.000 C 
ATOM      9  N   UNL     1       2.845   2.555  21.720  0.00  0.00    +0.000 NA
ATOM     10  C   UNL     1       3.670   2.467  20.508  0.00  0.00    +0.000 C 
ATOM     11  H   UNL     1       2.761   1.621  22.120  0.00  0.00    +0.000 HD
ENDROOT
BRANCH   3  12
ATOM     12  C   UNL     1       5.397   4.732  16.632  0.00  0.00    +0.000 A 
ATOM     13  C   UNL     1       5.154   4.002  15.453  0.00  0.00    +0.000 A 
ATOM     14  C   UNL     1       6.034   4.068  14.377  0.00  0.00    +0.000 A 
ATOM     15  C   UNL     1       7.157   4.862  14.497  0.00  0.00    +0.000 A 
ATOM     16  N   UNL     1       7.455   5.567  15.609  0.00  0.00    +0.000 NA
ATOM     17  C   UNL     1       6.575   5.481  16.640  0.00  0.00    +0.000 A 
ENDBRANCH   3  12
BRANCH   1  18
ATOM     18  N   UNL     1       1.743   6.771  18.959  0.00  0.00    +0.000 N 
ATOM     19  H   UNL     1       1.235   6.852  18.081  0.00  0.00    +0.000 HD
BRANCH  18  25
ATOM     20  C   UNL     1      -0.768  11.085  19.430  0.00  0.00    +0.000 C 
ATOM     21  O   UNL     1      -1.400  11.299  20.460  0.00  0.00    +0.000 OA
ATOM     22  N   UNL     1       0.115  10.035  19.277  0.00  0.00    +0.000 N 
ATOM     23  C   UNL     1       0.176   9.043  20.335  0.00  0.00    +0.000 C 
ATOM     24  C   UNL     1       1.622   8.691  20.605  0.00  0.00    +0.000 C 
ATOM     25  C   UNL     1       2.289   8.088  19.360  0.00  0.00    +0.000 C 
ATOM     26  C   UNL     1       2.139   9.090  18.190  0.00  0.00    +0.000 C 
ATOM     27  C   UNL     1       0.713   9.631  18.009  0.00  0.00    +0.000 C 
BRANCH  20  28
ATOM     28  O   UNL     1      -0.897  11.832  18.304  0.00  0.00    +0.000 OA
BRANCH  28  30
ATOM     29  C   UNL     1       0.927  13.352  18.487  0.00  0.00    +0.000 C 
ATOM     30  C   UNL     1      -0.584  13.222  18.477  0.00  0.00    +0.000 C 
ENDBRANCH  28  30
ENDBRANCH  20  28
ENDBRANCH  18  25
ENDBRANCH   1  18
TORSDOF 5
ENDMDL
MODEL 3
REMARK VINA RESULT:      -7.8      0.958      1.005
REMARK  Name = 
REMARK  6 active torsions:
REMARK  status: ('A' for Active; 'I' for Inactive)
REMARK    1  A    between atoms: C_1  and  C_2
REMARK    2  A    between atoms: C_2  and  O_3
REMARK    3  A    between atoms: O_3  and  C_4
REMARK    4  A    between atoms: C_9  and  N_10
REMARK    5  A    between atoms: N_10  and  C_11
REMARK    6  A    between atoms: C_13  and  C_14
REMARK                            x       y       z     vdW  Elec       q    Type
REMARK                         _______ _______ _______ _____ _____    ______ ____
ROOT
ATOM      1  C   UNL     1       2.606   5.768  18.739  0.00  0.00    +0.000 A 
ATOM      2  N   UNL     1       3.525   5.777  17.760  0.00  0.00    +0.000 NA
ATOM      3  C   UNL     1       4.439   4.793  17.721  0.00  0.00    +0.000 A 
ATOM      4  N   UNL     1       4.499   3.783  18.597  0.00  0.00    +0.000 NA
ATOM      5  C   UNL     1       3.564   3.765  19.564  0.00  0.00    +0.000 A 
ATOM      6  C   UNL     1       2.564   4.729  19.665  0.00  0.00    +0.000 A 
ATOM      7  C   UNL     1       1.547   4.622  20.770  0.00  0.00    +0.000 C 
ATOM      8  C   UNL     1       1.437   3.191  21.321  0.00  0.00    +0.000 C 
ATOM      9  N   UNL     1       2.754   2.671  21.684  0.00  0.00    +0.000 NA
ATOM     10  C   UNL     1       3.598   2.564  20.486  0.00  0.00    +0.000 C 
ATOM     11  H   UNL     1       2.663   1.744  22.096  0.00  0.00    +0.000 HD
ENDROOT
BRANCH   3  12
ATOM     12  C   UNL     1       5.388   4.771  16.604  0.00  0.00    +0.000 A 
ATOM     13  C   UNL     1       5.165   4.019  15.435  0.00  0.00    +0.000 A 
ATOM     14  C   UNL     1       6.062   4.067  14.372  0.00  0.00    +0.000 A 
ATOM     15  C   UNL     1       7.181   4.866  14.495  0.00  0.00    +0.000 A 
ATOM     16  N   UNL     1       7.461   5.591  15.599  0.00  0.00    +0.000 NA
ATOM     17  C   UNL     1       6.565   5.522  16.617  0.00  0.00    +0.000 A 
ENDBRANCH   3  12
BRANCH   1  18
ATOM     18  N   UNL     1       1.704   6.849  18.845  0.00  0.00    +0.000 N 
ATOM     19  H   UNL     1       1.202   6.912  17.962  0.00  0.00    +0.000 HD
BRANCH  18  25
ATOM     20  C   UNL     1      -0.853  10.816  20.539  0.00  0.00    +0.000 C 
ATOM     21  O   UNL     1      -1.156  10.868  21.727  0.00  0.00    +0.000 OA
ATOM     22  N   UNL     1       0.016   9.882  20.011  0.00  0.00    +0.000 N 
ATOM     23  C   UNL     1       0.467   8.810  20.879  0.00  0.00    +0.000 C 
ATOM     24  C   UNL     1       1.949   8.588  20.669  0.00  0.00    +0.000 C 
ATOM     25  C   UNL     1       2.249   8.174  19.222  0.00  0.00    +0.000 C 
ATOM     26  C   UNL     1       1.678   9.257  18.274  0.00  0.00    +0.000 C 
ATOM     27  C   UNL     1       0.230   9.660  18.585  0.00  0.00    +0.000 C 
BRANCH  20  28
ATOM     28  O   UNL     1      -1.371  11.644  19.597  0.00  0.00    +0.000 OA
BRANCH  28  30
ATOM     29  C   UNL     1      -3.531  12.599  19.907  0.00  0.00    +0.000 C 
ATOM     30  C   UNL     1      -2.043  12.797  20.127  0.00  0.00    +0.000 C 
ENDBRANCH  28  30
ENDBRANCH  20  28
ENDBRANCH  18  25
ENDBRANCH   1  18
TORSDOF 5
ENDMDL
MODEL 4
REMARK VINA RESULT:      -7.5      1.231      1.761
REMARK  Name = 
REMARK  6 active torsions:
REMARK  status: ('A' for Active; 'I' for Inactive)
REMARK    1  A    between atoms: C_1  and  C_2
REMARK    2  A    between atoms: C_2  and  O_3
REMARK    3  A    between atoms: O_3  and  C_4
REMARK    4  A    between atoms: C_9  and  N_10
REMARK    5  A    between atoms: N_10  and  C_11
REMARK    6  A    between atoms: C_13  and  C_14
REMARK                            x       y       z     vdW  Elec       q    Type
REMARK                         _______ _______ _______ _____ _____    ______ ____
ROOT
ATOM      1  C   UNL     1       3.315   6.213  19.048  0.00  0.00    +0.000 A 
ATOM      2  N   UNL     1       4.148   6.155  17.996  0.00  0.00    +0.000 NA
ATOM      3  C   UNL     1       4.708   4.976  17.678  0.00  0.00    +0.000 A 
ATOM      4  N   UNL     1       4.489   3.833  18.340  0.00  0.00    +0.000 NA
ATOM      5  C   UNL     1       3.637   3.890  19.380  0.00  0.00    +0.000 A 
ATOM      6  C   UNL     1       2.991   5.063  19.763  0.00  0.00    +0.000 A 
ATOM      7  C   UNL     1       2.040   5.033  20.930  0.00  0.00    +0.000 C 
ATOM      8  C   UNL     1       1.515   3.616  21.214  0.00  0.00    +0.000 C 
ATOM      9  N   UNL     1       2.619   2.666  21.332  0.00  0.00    +0.000 NA
ATOM     10  C   UNL     1       3.336   2.568  20.053  0.00  0.00    +0.000 C 
ATOM     11  H   UNL     1       2.262   1.743  21.572  0.00  0.00    +0.000 HD
ENDROOT
BRANCH   3  12
ATOM     12  C   UNL     1       5.554   4.908  16.483  0.00  0.00    +0.000 A 
ATOM     13  C   UNL     1       5.210   4.140  15.355  0.00  0.00    +0.000 A 
ATOM     14  C   UNL     1       6.010   4.145  14.216  0.00  0.00    +0.000 A 
ATOM     15  C   UNL     1       7.154   4.917  14.223  0.00  0.00    +0.000 A 
ATOM     16  N   UNL     1       7.548   5.656  15.282  0.00  0.00    +0.000 NA
ATOM     17  C   UNL     1       6.744   5.629  16.377  0.00  0.00    +0.000 A 
ENDBRANCH   3  12
BRANCH   1  18
ATOM     18  N   UNL     1       2.799   7.465  19.448  0.00  0.00    +0.000 N 
ATOM     19  H   UNL     1       2.755   7.463  20.464  0.00  0.00    +0.000 HD
BRANCH  18  25
ATOM     20  C   UNL     1       1.040  12.147  19.088  0.00  0.00    +0.000 C 
ATOM     21  O   UNL     1       1.412  12.854  18.157  0.00  0.00    +0.000 OA
ATOM     22  N   UNL     1       1.297  10.793  19.170  0.00  0.00    +0.000 N 
ATOM     23  C   UNL     1       2.190  10.212  18.184  0.00  0.00    +0.000 C 
ATOM     24  C   UNL     1       1.623   8.890  17.716  0.00  0.00    +0.000 C 
ATOM     25  C   UNL     1       1.500   7.895  18.879  0.00  0.00    +0.000 C 
ATOM     26  C   UNL     1       0.637   8.542  19.989  0.00  0.00    +0.000 C 
ATOM     27  C   UNL     1       1.057   9.973  20.353  0.00  0.00    +0.000 C 
BRANCH  20  28
ATOM     28  O   UNL     1       0.368  12.622  20.168  0.00  0.00    +0.000 OA
BRANCH  28  30
ATOM     29  C   UNL     1      -1.917  12.226  19.629  0.00  0.00    +0.000 C 
ATOM     30  C   UNL     1      -0.861  13.292  19.852  0.00  0.00    +0.000 C 
ENDBRANCH  28  30
ENDBRANCH  20  28
ENDBRANCH  18  25
ENDBRANCH   1  18
TORSDOF 5
ENDMDL
MODEL 5
REMARK VINA RESULT:      -7.2      1.589      2.215
REMARK  Name = 
REMARK  6 active torsions:
REMARK  status: ('A' for Active; 'I' for Inactive)
REMARK    1  A    between atoms: C_1  and  C_2
REMARK    2  A    between atoms: C_2  and  O_3
REMARK    3  A    between atoms: O_3  and  C_4
REMARK    4  A    between atoms: C_9  and  N_10
REMARK    5  A    between atoms: N_10  and  C_11
REMARK    6  A    between atoms: C_13  and  C_14
REMARK                            x       y       z     vdW  Elec       q    Type
REMARK                         _______ _______ _______ _____ _____    ______ ____
ROOT
ATOM      1  C   UNL     1       3.320   6.109  19.316  0.00  0.00    +0.000 A 
ATOM      2  N   UNL     1       4.147   6.096  18.258  0.00  0.00    +0.000 NA
ATOM      3  C   UNL     1       4.652   4.921  17.845  0.00  0.00    +0.000 A 
ATOM      4  N   UNL     1       4.382   3.741  18.416  0.00  0.00    +0.000 NA
ATOM      5  C   UNL     1       3.536   3.754  19.462  0.00  0.00    +0.000 A 
ATOM      6  C   UNL     1       2.946   4.921  19.941  0.00  0.00    +0.000 A 
ATOM      7  C   UNL     1       1.997   4.843  21.107  0.00  0.00    +0.000 C 
ATOM      8  C   UNL     1       1.408   3.433  21.281  0.00  0.00    +0.000 C 
ATOM      9  N   UNL     1       2.468   2.427  21.318  0.00  0.00    +0.000 NA
ATOM     10  C   UNL     1       3.176   2.398  20.031  0.00  0.00    +0.000 C 
ATOM     11  H   UNL     1       2.069   1.505  21.486  0.00  0.00    +0.000 HD
ENDROOT
BRANCH   3  12
ATOM     12  C   UNL     1       5.491   4.909  16.644  0.00  0.00    +0.000 A 
ATOM     13  C   UNL     1       5.186   4.128  15.514  0.00  0.00    +0.000 A 
ATOM     14  C   UNL     1       5.975   4.186  14.370  0.00  0.00    +0.000 A 
ATOM     15  C   UNL     1       7.070   5.025  14.372  0.00  0.00    +0.000 A 
ATOM     16  N   UNL     1       7.428   5.781  15.432  0.00  0.00    +0.000 NA
ATOM     17  C   UNL     1       6.636   5.701  16.532  0.00  0.00    +0.000 A 
ENDBRANCH   3  12
BRANCH   1  18
ATOM     18  N   UNL     1       2.863   7.347  19.817  0.00  0.00    +0.000 N 
ATOM     19  H   UNL     1       3.106   7.382  20.804  0.00  0.00    +0.000 HD
BRANCH  18  25
ATOM     20  C   UNL     1       0.672  11.793  20.573  0.00  0.00    +0.000 C 
ATOM     21  O   UNL     1       0.747  12.652  19.700  0.00  0.00    +0.000 OA
ATOM     22  N   UNL     1       1.057  10.480  20.391  0.00  0.00    +0.000 N 
ATOM     23  C   UNL     1       1.733  10.139  19.152  0.00  0.00    +0.000 C 
ATOM     24  C   UNL     1       1.187   8.828  18.631  0.00  0.00    +0.000 C 
ATOM     25  C   UNL     1       1.433   7.687  19.628  0.00  0.00    +0.000 C 
ATOM     26  C   UNL     1       0.810   8.082  20.989  0.00  0.00    +0.000 C 
ATOM     27  C   UNL     1       1.181   9.495  21.460  0.00  0.00    +0.000 C 
BRANCH  20  28
ATOM     28  O   UNL     1       0.242  12.045  21.836  0.00  0.00    +0.000 OA
BRANCH  28  30
ATOM     29  C   UNL     1      -1.264  13.295  23.192  0.00  0.00    +0.000 C 
ATOM     30  C   UNL     1      -1.123  12.479  21.921  0.00  0.00    +0.000 C 
ENDBRANCH  28  30
ENDBRANCH  20  28
ENDBRANCH  18  25
ENDBRANCH   1  18
TORSDOF 5
ENDMDL
MODEL 6
REMARK VINA RESULT:      -7.1      3.673      7.769
REMARK  Name = 
REMARK  6 active torsions:
REMARK  status: ('A' for Active; 'I' for Inactive)
REMARK    1  A    between atoms: C_1  and  C_2
REMARK    2  A    between atoms: C_2  and  O_3
REMARK    3  A    between atoms: O_3  and  C_4
REMARK    4  A    between atoms: C_9  and  N_10
REMARK    5  A    between atoms: N_10  and  C_11
REMARK    6  A    between atoms: C_13  and  C_14
REMARK                            x       y       z     vdW  Elec       q    Type
REMARK                         _______ _______ _______ _____ _____    ______ ____
ROOT
ATOM      1  C   UNL     1       3.051   5.928  18.781  0.00  0.00    +0.000 A 
ATOM      2  N   UNL     1       2.563   7.126  19.142  0.00  0.00    +0.000 NA
ATOM      3  C   UNL     1       1.769   7.202  20.223  0.00  0.00    +0.000 A 
ATOM      4  N   UNL     1       1.428   6.155  20.985  0.00  0.00    +0.000 NA
ATOM      5  C   UNL     1       1.937   4.960  20.634  0.00  0.00    +0.000 A 
ATOM      6  C   UNL     1       2.789   4.794  19.544  0.00  0.00    +0.000 A 
ATOM      7  C   UNL     1       3.325   3.422  19.232  0.00  0.00    +0.000 C 
ATOM      8  C   UNL     1       3.280   2.489  20.454  0.00  0.00    +0.000 C 
ATOM      9  N   UNL     1       1.944   2.476  21.048  0.00  0.00    +0.000 NA
ATOM     10  C   UNL     1       1.611   3.811  21.563  0.00  0.00    +0.000 C 
ATOM     11  H   UNL     1       1.914   1.815  21.823  0.00  0.00    +0.000 HD
ENDROOT
BRANCH   3  12
ATOM     12  C   UNL     1       1.304   8.524  20.653  0.00  0.00    +0.000 A 
ATOM     13  C   UNL     1       0.871   9.507  19.744  0.00  0.00    +0.000 A 
ATOM     14  C   UNL     1       0.382  10.730  20.193  0.00  0.00    +0.000 A 
ATOM     15  C   UNL     1       0.339  10.959  21.553  0.00  0.00    +0.000 A 
ATOM     16  N   UNL     1       0.761  10.065  22.472  0.00  0.00    +0.000 NA
ATOM     17  C   UNL     1       1.232   8.881  22.001  0.00  0.00    +0.000 A 
ENDBRANCH   3  12
BRANCH   1  18
ATOM     18  N   UNL     1       3.805   5.823  17.592  0.00  0.00    +0.000 N 
ATOM     19  H   UNL     1       3.289   5.215  16.960  0.00  0.00    +0.000 HD
BRANCH  18  25
ATOM     20  C   UNL     1       6.965   4.801  13.835  0.00  0.00    +0.000 C 
ATOM     21  O   UNL     1       7.550   5.725  13.279  0.00  0.00    +0.000 OA
ATOM     22  N   UNL     1       6.238   4.945  15.000  0.00  0.00    +0.000 N 
ATOM     23  C   UNL     1       6.025   6.291  15.502  0.00  0.00    +0.000 C 
ATOM     24  C   UNL     1       6.221   6.300  17.002  0.00  0.00    +0.000 C 
ATOM     25  C   UNL     1       5.214   5.376  17.700  0.00  0.00    +0.000 C 
ATOM     26  C   UNL     1       5.353   3.956  17.100  0.00  0.00    +0.000 C 
ATOM     27  C   UNL     1       5.363   3.924  15.565  0.00  0.00    +0.000 C 
BRANCH  20  28
ATOM     28  O   UNL     1       6.928   3.535  13.346  0.00  0.00    +0.000 OA
BRANCH  28  30
ATOM     29  C   UNL     1       5.073   3.155  11.901  0.00  0.00    +0.000 C 
ATOM     30  C   UNL     1       6.561   3.447  11.961  0.00  0.00    +0.000 C 
ENDBRANCH  28  30
ENDBRANCH  20  28
ENDBRANCH  18  25
ENDBRANCH   1  18
TORSDOF 5
ENDMDL
MODEL 7
REMARK VINA RESULT:      -7.0      3.728      7.757
REMARK  Name = 
REMARK  6 active torsions:
REMARK  status: ('A' for Active; 'I' for Inactive)
REMARK    1  A    between atoms: C_1  and  C_2
REMARK    2  A    between atoms: C_2  and  O_3
REMARK    3  A    between atoms: O_3  and  C_4
REMARK    4  A    between atoms: C_9  and  N_10
REMARK    5  A    between atoms: N_10  and  C_11
REMARK    6  A    between atoms: C_13  and  C_14
REMARK                            x       y       z     vdW  Elec       q    Type
REMARK                         _______ _______ _______ _____ _____    ______ ____
ROOT
ATOM      1  C   UNL     1       4.317   5.297  18.769  0.00  0.00    +0.000 A 
ATOM      2  N   UNL     1       3.734   6.444  19.155  0.00  0.00    +0.000 NA
ATOM      3  C   UNL     1       2.420   6.438  19.439  0.00  0.00    +0.000 A 
ATOM      4  N   UNL     1       1.637   5.355  19.370  0.00  0.00    +0.000 NA
ATOM      5  C   UNL     1       2.229   4.203  19.003  0.00  0.00    +0.000 A 
ATOM      6  C   UNL     1       3.589   4.111  18.717  0.00  0.00    +0.000 A 
ATOM      7  C   UNL     1       4.172   2.778  18.330  0.00  0.00    +0.000 C 
ATOM      8  C   UNL     1       3.299   1.604  18.804  0.00  0.00    +0.000 C 
ATOM      9  N   UNL     1       1.912   1.783  18.381  0.00  0.00    +0.000 NA
ATOM     10  C   UNL     1       1.342   2.977  19.022  0.00  0.00    +0.000 C 
ATOM     11  H   UNL     1       1.356   0.975  18.656  0.00  0.00    +0.000 HD
ENDROOT
BRANCH   3  12
ATOM     12  C   UNL     1       1.811   7.676  19.933  0.00  0.00    +0.000 A 
ATOM     13  C   UNL     1       1.397   7.835  21.269  0.00  0.00    +0.000 A 
ATOM     14  C   UNL     1       0.875   9.045  21.716  0.00  0.00    +0.000 A 
ATOM     15  C   UNL     1       0.767  10.085  20.815  0.00  0.00    +0.000 A 
ATOM     16  N   UNL     1       1.125   9.986  19.517  0.00  0.00    +0.000 NA
ATOM     17  C   UNL     1       1.631   8.792  19.114  0.00  0.00    +0.000 A 
ENDBRANCH   3  12
BRANCH   1  18
ATOM     18  N   UNL     1       5.673   5.314  18.375  0.00  0.00    +0.000 N 
ATOM     19  H   UNL     1       6.221   5.572  19.192  0.00  0.00    +0.000 HD
BRANCH  18  25
ATOM     20  C   UNL     1       5.799   3.965  13.548  0.00  0.00    +0.000 C 
ATOM     21  O   UNL     1       4.755   3.958  12.902  0.00  0.00    +0.000 OA
ATOM     22  N   UNL     1       5.914   4.508  14.812  0.00  0.00    +0.000 N 
ATOM     23  C   UNL     1       4.699   4.950  15.471  0.00  0.00    +0.000 C 
ATOM     24  C   UNL     1       4.954   6.279  16.147  0.00  0.00    +0.000 C 
ATOM     25  C   UNL     1       6.049   6.158  17.216  0.00  0.00    +0.000 C 
ATOM     26  C   UNL     1       7.324   5.585  16.551  0.00  0.00    +0.000 C 
ATOM     27  C   UNL     1       7.072   4.343  15.684  0.00  0.00    +0.000 C 
BRANCH  20  28
ATOM     28  O   UNL     1       6.953   3.397  13.112  0.00  0.00    +0.000 OA
BRANCH  28  30
ATOM     29  C   UNL     1       7.314   2.008  11.212  0.00  0.00    +0.000 C 
ATOM     30  C   UNL     1       7.130   3.436  11.688  0.00  0.00    +0.000 C 
ENDBRANCH  28  30
ENDBRANCH  20  28
ENDBRANCH  18  25
ENDBRANCH   1  18
TORSDOF 5
ENDMDL
MODEL 8
REMARK VINA RESULT:      -7.0      3.736      7.829
REMARK  Name = 
REMARK  6 active torsions:
REMARK  status: ('A' for Active; 'I' for Inactive)
REMARK    1  A    between atoms: C_1  and  C_2
REMARK    2  A    between atoms: C_2  and  O_3
REMARK    3  A    between atoms: O_3  and  C_4
REMARK    4  A    between atoms: C_9  and  N_10
REMARK    5  A    between atoms: N_10  and  C_11
REMARK    6  A    between atoms: C_13  and  C_14
REMARK                            x       y       z     vdW  Elec       q    Type
REMARK                         _______ _______ _______ _____ _____    ______ ____
ROOT
ATOM      1  C   UNL     1       4.387   5.308  18.402  0.00  0.00    +0.000 A 
ATOM      2  N   UNL     1       3.836   6.495  18.702  0.00  0.00    +0.000 NA
ATOM      3  C   UNL     1       2.521   6.549  18.972  0.00  0.00    +0.000 A 
ATOM      4  N   UNL     1       1.705   5.487  18.970  0.00  0.00    +0.000 NA
ATOM      5  C   UNL     1       2.264   4.296  18.690  0.00  0.00    +0.000 A 
ATOM      6  C   UNL     1       3.623   4.143  18.425  0.00  0.00    +0.000 A 
ATOM      7  C   UNL     1       4.168   2.769  18.137  0.00  0.00    +0.000 C 
ATOM      8  C   UNL     1       3.256   1.658  18.683  0.00  0.00    +0.000 C 
ATOM      9  N   UNL     1       1.878   1.849  18.234  0.00  0.00    +0.000 NA
ATOM     10  C   UNL     1       1.340   3.100  18.785  0.00  0.00    +0.000 C 
ATOM     11  H   UNL     1       1.295   1.079  18.558  0.00  0.00    +0.000 HD
ENDROOT
BRANCH   3  12
ATOM     12  C   UNL     1       1.945   7.836  19.374  0.00  0.00    +0.000 A 
ATOM     13  C   UNL     1       1.739   8.890  18.465  0.00  0.00    +0.000 A 
ATOM     14  C   UNL     1       1.137  10.077  18.871  0.00  0.00    +0.000 A 
ATOM     15  C   UNL     1       0.753  10.198  20.191  0.00  0.00    +0.000 A 
ATOM     16  N   UNL     1       0.945   9.232  21.114  0.00  0.00    +0.000 NA
ATOM     17  C   UNL     1       1.534   8.086  20.684  0.00  0.00    +0.000 A 
ENDBRANCH   3  12
BRANCH   1  18
ATOM     18  N   UNL     1       5.746   5.256  18.023  0.00  0.00    +0.000 N 
ATOM     19  H   UNL     1       6.297   5.514  18.838  0.00  0.00    +0.000 HD
BRANCH  18  25
ATOM     20  C   UNL     1       5.810   3.781  13.231  0.00  0.00    +0.000 C 
ATOM     21  O   UNL     1       4.769   3.814  12.582  0.00  0.00    +0.000 OA
ATOM     22  N   UNL     1       5.951   4.350  14.481  0.00  0.00    +0.000 N 
ATOM     23  C   UNL     1       4.760   4.871  15.126  0.00  0.00    +0.000 C 
ATOM     24  C   UNL     1       5.083   6.202  15.769  0.00  0.00    +0.000 C 
ATOM     25  C   UNL     1       6.168   6.050  16.845  0.00  0.00    +0.000 C 
ATOM     26  C   UNL     1       7.412   5.394  16.197  0.00  0.00    +0.000 C 
ATOM     27  C   UNL     1       7.097   4.146  15.361  0.00  0.00    +0.000 C 
BRANCH  20  28
ATOM     28  O   UNL     1       6.934   3.144  12.813  0.00  0.00    +0.000 OA
BRANCH  28  30
ATOM     29  C   UNL     1       6.978   1.452  11.137  0.00  0.00    +0.000 C 
ATOM     30  C   UNL     1       7.008   2.947  11.393  0.00  0.00    +0.000 C 
ENDBRANCH  28  30
ENDBRANCH  20  28
ENDBRANCH  18  25
ENDBRANCH   1  18
TORSDOF 5
ENDMDL
MODEL 9
REMARK VINA RESULT:      -6.9      1.365      1.655
REMARK  Name = 
REMARK  6 active torsions:
REMARK  status: ('A' for Active; 'I' for Inactive)
REMARK    1  A    between atoms: C_1  and  C_2
REMARK    2  A    between atoms: C_2  and  O_3
REMARK    3  A    between atoms: O_3  and  C_4
REMARK    4  A    between atoms: C_9  and  N_10
REMARK    5  A    between atoms: N_10  and  C_11
REMARK    6  A    between atoms: C_13  and  C_14
REMARK                            x       y       z     vdW  Elec       q    Type
REMARK                         _______ _______ _______ _____ _____    ______ ____
ROOT
ATOM      1  C   UNL     1       2.986   6.597  18.643  0.00  0.00    +0.000 A 
ATOM      2  N   UNL     1       3.894   6.474  17.662  0.00  0.00    +0.000 NA
ATOM      3  C   UNL     1       4.505   5.290  17.490  0.00  0.00    +0.000 A 
ATOM      4  N   UNL     1       4.267   4.202  18.233  0.00  0.00    +0.000 NA
ATOM      5  C   UNL     1       3.341   4.322  19.202  0.00  0.00    +0.000 A 
ATOM      6  C   UNL     1       2.640   5.503  19.433  0.00  0.00    +0.000 A 
ATOM      7  C   UNL     1       1.608   5.545  20.528  0.00  0.00    +0.000 C 
ATOM      8  C   UNL     1       1.099   4.142  20.899  0.00  0.00    +0.000 C 
ATOM      9  N   UNL     1       2.215   3.241  21.178  0.00  0.00    +0.000 NA
ATOM     10  C   UNL     1       3.024   3.054  19.966  0.00  0.00    +0.000 C 
ATOM     11  H   UNL     1       1.864   2.330  21.473  0.00  0.00    +0.000 HD
ENDROOT
BRANCH   3  12
ATOM     12  C   UNL     1       5.437   5.145  16.368  0.00  0.00    +0.000 A 
ATOM     13  C   UNL     1       5.134   4.382  15.225  0.00  0.00    +0.000 A 
ATOM     14  C   UNL     1       6.020   4.314  14.155  0.00  0.00    +0.000 A 
ATOM     15  C   UNL     1       7.209   5.009  14.244  0.00  0.00    +0.000 A 
ATOM     16  N   UNL     1       7.567   5.738  15.323  0.00  0.00    +0.000 NA
ATOM     17  C   UNL     1       6.678   5.784  16.349  0.00  0.00    +0.000 A 
ENDBRANCH   3  12
BRANCH   1  18
ATOM     18  N   UNL     1       2.411   7.862  18.894  0.00  0.00    +0.000 N 
ATOM     19  H   UNL     1       1.632   7.719  19.532  0.00  0.00    +0.000 HD
BRANCH  18  25
ATOM     20  C   UNL     1       0.015  12.266  18.977  0.00  0.00    +0.000 C 
ATOM     21  O   UNL     1       0.662  13.294  19.151  0.00  0.00    +0.000 OA
ATOM     22  N   UNL     1       0.588  11.033  18.734  0.00  0.00    +0.000 N 
ATOM     23  C   UNL     1       2.031  10.922  18.851  0.00  0.00    +0.000 C 
ATOM     24  C   UNL     1       2.561  10.092  17.703  0.00  0.00    +0.000 C 
ATOM     25  C   UNL     1       1.980   8.671  17.730  0.00  0.00    +0.000 C 
ATOM     26  C   UNL     1       0.435   8.773  17.714  0.00  0.00    +0.000 C 
ATOM     27  C   UNL     1      -0.136   9.766  18.736  0.00  0.00    +0.000 C 
BRANCH  20  28
ATOM     28  O   UNL     1      -1.340  12.212  19.046  0.00  0.00    +0.000 OA
BRANCH  28  30
ATOM     29  C   UNL     1      -3.371  12.684  20.196  0.00  0.00    +0.000 C 
ATOM     30  C   UNL     1      -1.917  13.084  20.030  0.00  0.00    +0.000 C 
ENDBRANCH  28  30
ENDBRANCH  20  28
ENDBRANCH  18  25
ENDBRANCH   1  18
TORSDOF 5
ENDMDL
