MODEL 1
REMARK VINA RESULT:      -7.8      0.000      0.000
REMARK  Name = 
REMARK  4 active torsions:
REMARK  status: ('A' for Active; 'I' for Inactive)
REMARK    1  A    between atoms: C_2  and  C_17
REMARK    2  A    between atoms: N_3  and  C_4
REMARK    3  A    between atoms: C_4  and  C_5
REMARK    4  A    between atoms: C_4  and  C_11
REMARK                            x       y       z     vdW  Elec       q    Type
REMARK                         _______ _______ _______ _____ _____    ______ ____
ROOT
ATOM      1  C   UNL     1       3.423   5.796  18.044  0.00  0.00    +0.000 C 
ENDROOT
BRANCH   1   2
ATOM      2  C   UNL     1       2.685   7.064  18.455  0.00  0.00    +0.000 A 
ATOM      3  C   UNL     1       2.472   8.114  17.545  0.00  0.00    +0.000 A 
ATOM      4  C   UNL     1       1.810   9.276  17.944  0.00  0.00    +0.000 A 
ATOM      5  C   UNL     1       1.342   9.402  19.250  0.00  0.00    +0.000 A 
ATOM      6  C   UNL     1       1.533   8.365  20.160  0.00  0.00    +0.000 A 
ATOM      7  C   UNL     1       2.205   7.205  19.768  0.00  0.00    +0.000 A 
ENDBRANCH   1   2
BRANCH   1   8
ATOM      8  C   UNL     1       4.932   5.905  18.202  0.00  0.00    +0.000 A 
ATOM      9  C   UNL     1       5.758   6.640  17.342  0.00  0.00    +0.000 A 
ATOM     10  C   UNL     1       7.125   6.736  17.596  0.00  0.00    +0.000 A 
ATOM     11  C   UNL     1       7.635   6.089  18.708  0.00  0.00    +0.000 A 
ATOM     12  N   UNL     1       6.884   5.357  19.554  0.00  0.00    +0.000 NA
ATOM     13  C   UNL     1       5.559   5.285  19.286  0.00  0.00    +0.000 A 
ENDBRANCH   1   8
BRANCH   1  16
ATOM     14  O   UNL     1       1.174   4.223  17.266  0.00  0.00    +0.000 OA
ATOM     15  C   UNL     1       1.782   3.959  18.295  0.00  0.00    +0.000 C 
ATOM     16  N   UNL     1       2.859   4.662  18.764  0.00  0.00    +0.000 N 
ATOM     17  H   UNL     1       3.260   4.422  19.657  0.00  0.00    +0.000 HD
BRANCH  15  18
ATOM     18  C   UNL     1       1.375   2.816  19.161  0.00  0.00    +0.000 C 
ATOM     19  C   UNL     1       2.162   2.502  20.411  0.00  0.00    +0.000 C 
ATOM     20  C   UNL     1       0.779   3.070  20.527  0.00  0.00    +0.000 C 
ENDBRANCH  15  18
ENDBRANCH   1  16
TORSDOF 4
ENDMDL
MODEL 2
REMARK VINA RESULT:      -7.7      0.191      1.124
REMARK  Name = 
REMARK  4 active torsions:
REMARK  status: ('A' for Active; 'I' for Inactive)
REMARK    1  A    between atoms: C_2  and  C_17
REMARK    2  A    between atoms: N_3  and  C_4
REMARK    3  A    between atoms: C_4  and  C_5
REMARK    4  A    between atoms: C_4  and  C_11
REMARK                            x       y       z     vdW  Elec       q    Type
REMARK                         _______ _______ _______ _____ _____    ______ ____
ROOT
ATOM      1  C   UNL     1       3.452   5.770  18.098  0.00  0.00    +0.000 C 
ENDROOT
BRANCH   1   2
ATOM      2  C   UNL     1       2.711   7.042  18.492  0.00  0.00    +0.000 A 
ATOM      3  C   UNL     1       2.191   7.214  19.786  0.00  0.00    +0.000 A 
ATOM      4  C   UNL     1       1.498   8.378  20.124  0.00  0.00    +0.000 A 
ATOM      5  C   UNL     1       1.326   9.389  19.180  0.00  0.00    +0.000 A 
ATOM      6  C   UNL     1       1.846   9.239  17.897  0.00  0.00    +0.000 A 
ATOM      7  C   UNL     1       2.530   8.071  17.552  0.00  0.00    +0.000 A 
ENDBRANCH   1   2
BRANCH   1   8
ATOM      8  C   UNL     1       4.964   5.910  18.174  0.00  0.00    +0.000 A 
ATOM      9  C   UNL     1       5.722   6.697  17.296  0.00  0.00    +0.000 A 
ATOM     10  C   UNL     1       7.099   6.817  17.475  0.00  0.00    +0.000 A 
ATOM     11  C   UNL     1       7.687   6.144  18.531  0.00  0.00    +0.000 A 
ATOM     12  N   UNL     1       7.003   5.364  19.391  0.00  0.00    +0.000 NA
ATOM     13  C   UNL     1       5.666   5.267  19.196  0.00  0.00    +0.000 A 
ENDBRANCH   1   8
BRANCH   1  16
ATOM     14  O   UNL     1       1.407   3.923  17.356  0.00  0.00    +0.000 OA
ATOM     15  C   UNL     1       1.969   3.816  18.439  0.00  0.00    +0.000 C 
ATOM     16  N   UNL     1       2.946   4.660  18.895  0.00  0.00    +0.000 N 
ATOM     17  H   UNL     1       3.309   4.543  19.829  0.00  0.00    +0.000 HD
BRANCH  15  18
ATOM     18  C   UNL     1       1.611   2.725  19.390  0.00  0.00    +0.000 C 
ATOM     19  C   UNL     1       2.319   2.625  20.720  0.00  0.00    +0.000 C 
ATOM     20  C   UNL     1       0.880   3.045  20.674  0.00  0.00    +0.000 C 
ENDBRANCH  15  18
ENDBRANCH   1  16
TORSDOF 4
ENDMDL
MODEL 3
REMARK VINA RESULT:      -7.6      1.787      4.574
REMARK  Name = 
REMARK  4 active torsions:
REMARK  status: ('A' for Active; 'I' for Inactive)
REMARK    1  A    between atoms: C_2  and  C_17
REMARK    2  A    between atoms: N_3  and  C_4
REMARK    3  A    between atoms: C_4  and  C_5
REMARK    4  A    between atoms: C_4  and  C_11
REMARK                            x       y       z     vdW  Elec       q    Type
REMARK                         _______ _______ _______ _____ _____    ______ ____
ROOT
ATOM      1  C   UNL     1       3.276   6.061  19.334  0.00  0.00    +0.000 C 
ENDROOT
BRANCH   1   2
ATOM      2  C   UNL     1       2.485   7.353  19.171  0.00  0.00    +0.000 A 
ATOM      3  C   UNL     1       2.466   8.050  17.950  0.00  0.00    +0.000 A 
ATOM      4  C   UNL     1       1.751   9.242  17.824  0.00  0.00    +0.000 A 
ATOM      5  C   UNL     1       1.036   9.747  18.907  0.00  0.00    +0.000 A 
ATOM      6  C   UNL     1       1.035   9.062  20.120  0.00  0.00    +0.000 A 
ATOM      7  C   UNL     1       1.758   7.875  20.254  0.00  0.00    +0.000 A 
ENDBRANCH   1   2
BRANCH   1   8
ATOM      8  C   UNL     1       2.404   4.816  19.297  0.00  0.00    +0.000 A 
ATOM      9  C   UNL     1       1.885   4.189  20.438  0.00  0.00    +0.000 A 
ATOM     10  C   UNL     1       1.044   3.086  20.309  0.00  0.00    +0.000 A 
ATOM     11  C   UNL     1       0.742   2.634  19.037  0.00  0.00    +0.000 A 
ATOM     12  N   UNL     1       1.228   3.192  17.912  0.00  0.00    +0.000 NA
ATOM     13  C   UNL     1       2.041   4.265  18.066  0.00  0.00    +0.000 A 
ENDBRANCH   1   8
BRANCH   1  16
ATOM     14  O   UNL     1       5.911   5.026  19.696  0.00  0.00    +0.000 OA
ATOM     15  C   UNL     1       5.578   5.496  18.615  0.00  0.00    +0.000 C 
ATOM     16  N   UNL     1       4.347   6.032  18.346  0.00  0.00    +0.000 N 
ATOM     17  H   UNL     1       4.176   6.461  17.450  0.00  0.00    +0.000 HD
BRANCH  15  18
ATOM     18  C   UNL     1       6.525   5.533  17.465  0.00  0.00    +0.000 C 
ATOM     19  C   UNL     1       7.678   4.558  17.409  0.00  0.00    +0.000 C 
ATOM     20  C   UNL     1       6.534   4.412  16.450  0.00  0.00    +0.000 C 
ENDBRANCH  15  18
ENDBRANCH   1  16
TORSDOF 4
ENDMDL
MODEL 4
REMARK VINA RESULT:      -7.6      1.689      4.348
REMARK  Name = 
REMARK  4 active torsions:
REMARK  status: ('A' for Active; 'I' for Inactive)
REMARK    1  A    between atoms: C_2  and  C_17
REMARK    2  A    between atoms: N_3  and  C_4
REMARK    3  A    between atoms: C_4  and  C_5
REMARK    4  A    between atoms: C_4  and  C_11
REMARK                            x       y       z     vdW  Elec       q    Type
REMARK                         _______ _______ _______ _____ _____    ______ ____
ROOT
ATOM      1  C   UNL     1       3.628   5.969  18.904  0.00  0.00    +0.000 C 
ENDROOT
BRANCH   1   2
ATOM      2  C   UNL     1       2.629   4.851  19.180  0.00  0.00    +0.000 A 
ATOM      3  C   UNL     1       2.079   4.088  18.136  0.00  0.00    +0.000 A 
ATOM      4  C   UNL     1       1.151   3.081  18.405  0.00  0.00    +0.000 A 
ATOM      5  C   UNL     1       0.768   2.815  19.718  0.00  0.00    +0.000 A 
ATOM      6  C   UNL     1       1.314   3.554  20.765  0.00  0.00    +0.000 A 
ATOM      7  C   UNL     1       2.234   4.570  20.499  0.00  0.00    +0.000 A 
ENDBRANCH   1   2
BRANCH   1   8
ATOM      8  C   UNL     1       4.900   5.481  18.227  0.00  0.00    +0.000 A 
ATOM      9  C   UNL     1       5.126   5.546  16.846  0.00  0.00    +0.000 A 
ATOM     10  C   UNL     1       6.346   5.131  16.316  0.00  0.00    +0.000 A 
ATOM     11  C   UNL     1       7.314   4.658  17.185  0.00  0.00    +0.000 A 
ATOM     12  N   UNL     1       7.138   4.562  18.517  0.00  0.00    +0.000 NA
ATOM     13  C   UNL     1       5.944   4.975  19.005  0.00  0.00    +0.000 A 
ENDBRANCH   1   8
BRANCH   1  16
ATOM     14  O   UNL     1       1.914   7.989  19.964  0.00  0.00    +0.000 OA
ATOM     15  C   UNL     1       2.168   7.964  18.767  0.00  0.00    +0.000 C 
ATOM     16  N   UNL     1       2.962   7.029  18.159  0.00  0.00    +0.000 N 
ATOM     17  H   UNL     1       3.064   7.039  17.156  0.00  0.00    +0.000 HD
BRANCH  15  18
ATOM     18  C   UNL     1       1.603   8.983  17.837  0.00  0.00    +0.000 C 
ATOM     19  C   UNL     1       0.561   9.958  18.333  0.00  0.00    +0.000 C 
ATOM     20  C   UNL     1       1.943  10.446  18.013  0.00  0.00    +0.000 C 
ENDBRANCH  15  18
ENDBRANCH   1  16
TORSDOF 4
ENDMDL
MODEL 5
REMARK VINA RESULT:      -7.6      1.677      4.813
REMARK  Name = 
REMARK  4 active torsions:
REMARK  status: ('A' for Active; 'I' for Inactive)
REMARK    1  A    between atoms: C_2  and  C_17
REMARK    2  A    between atoms: N_3  and  C_4
REMARK    3  A    between atoms: C_4  and  C_5
REMARK    4  A    between atoms: C_4  and  C_11
REMARK                            x       y       z     vdW  Elec       q    Type
REMARK                         _______ _______ _______ _____ _____    ______ ____
ROOT
ATOM      1  C   UNL     1       3.302   5.956  19.408  0.00  0.00    +0.000 C 
ENDROOT
BRANCH   1   2
ATOM      2  C   UNL     1       2.534   7.261  19.234  0.00  0.00    +0.000 A 
ATOM      3  C   UNL     1       1.786   7.814  20.287  0.00  0.00    +0.000 A 
ATOM      4  C   UNL     1       1.073   9.000  20.105  0.00  0.00    +0.000 A 
ATOM      5  C   UNL     1       1.105   9.654  18.876  0.00  0.00    +0.000 A 
ATOM      6  C   UNL     1       1.852   9.125  17.826  0.00  0.00    +0.000 A 
ATOM      7  C   UNL     1       2.559   7.933  18.000  0.00  0.00    +0.000 A 
ENDBRANCH   1   2
BRANCH   1   8
ATOM      8  C   UNL     1       2.415   4.723  19.327  0.00  0.00    +0.000 A 
ATOM      9  C   UNL     1       1.840   4.098  20.441  0.00  0.00    +0.000 A 
ATOM     10  C   UNL     1       0.989   3.008  20.270  0.00  0.00    +0.000 A 
ATOM     11  C   UNL     1       0.735   2.567  18.984  0.00  0.00    +0.000 A 
ATOM     12  N   UNL     1       1.276   3.124  17.883  0.00  0.00    +0.000 NA
ATOM     13  C   UNL     1       2.096   4.185  18.078  0.00  0.00    +0.000 A 
ENDBRANCH   1   8
BRANCH   1  16
ATOM     14  O   UNL     1       5.931   4.947  19.869  0.00  0.00    +0.000 OA
ATOM     15  C   UNL     1       5.630   5.401  18.772  0.00  0.00    +0.000 C 
ATOM     16  N   UNL     1       4.405   5.923  18.457  0.00  0.00    +0.000 N 
ATOM     17  H   UNL     1       4.260   6.340  17.549  0.00  0.00    +0.000 HD
BRANCH  15  18
ATOM     18  C   UNL     1       6.615   5.431  17.653  0.00  0.00    +0.000 C 
ATOM     19  C   UNL     1       6.280   6.168  16.378  0.00  0.00    +0.000 C 
ATOM     20  C   UNL     1       7.326   6.719  17.301  0.00  0.00    +0.000 C 
ENDBRANCH  15  18
ENDBRANCH   1  16
TORSDOF 4
ENDMDL
MODEL 6
REMARK VINA RESULT:      -7.6      1.681      4.470
REMARK  Name = 
REMARK  4 active torsions:
REMARK  status: ('A' for Active; 'I' for Inactive)
REMARK    1  A    between atoms: C_2  and  C_17
REMARK    2  A    between atoms: N_3  and  C_4
REMARK    3  A    between atoms: C_4  and  C_5
REMARK    4  A    between atoms: C_4  and  C_11
REMARK                            x       y       z     vdW  Elec       q    Type
REMARK                         _______ _______ _______ _____ _____    ______ ____
ROOT
ATOM      1  C   UNL     1       3.540   6.093  18.946  0.00  0.00    +0.000 C 
ENDROOT
BRANCH   1   2
ATOM      2  C   UNL     1       2.560   4.950  19.183  0.00  0.00    +0.000 A 
ATOM      3  C   UNL     1       2.057   4.674  20.467  0.00  0.00    +0.000 A 
ATOM      4  C   UNL     1       1.175   3.611  20.669  0.00  0.00    +0.000 A 
ATOM      5  C   UNL     1       0.774   2.819  19.595  0.00  0.00    +0.000 A 
ATOM      6  C   UNL     1       1.254   3.089  18.316  0.00  0.00    +0.000 A 
ATOM      7  C   UNL     1       2.145   4.144  18.110  0.00  0.00    +0.000 A 
ENDBRANCH   1   2
BRANCH   1   8
ATOM      8  C   UNL     1       4.834   5.644  18.284  0.00  0.00    +0.000 A 
ATOM      9  C   UNL     1       5.182   5.948  16.961  0.00  0.00    +0.000 A 
ATOM     10  C   UNL     1       6.417   5.547  16.453  0.00  0.00    +0.000 A 
ATOM     11  C   UNL     1       7.275   4.848  17.283  0.00  0.00    +0.000 A 
ATOM     12  N   UNL     1       6.978   4.519  18.556  0.00  0.00    +0.000 NA
ATOM     13  C   UNL     1       5.774   4.924  19.025  0.00  0.00    +0.000 A 
ENDBRANCH   1   8
BRANCH   1  16
ATOM     14  O   UNL     1       1.847   8.120  20.027  0.00  0.00    +0.000 OA
ATOM     15  C   UNL     1       2.083   8.092  18.826  0.00  0.00    +0.000 C 
ATOM     16  N   UNL     1       2.865   7.153  18.209  0.00  0.00    +0.000 N 
ATOM     17  H   UNL     1       2.953   7.160  17.204  0.00  0.00    +0.000 HD
BRANCH  15  18
ATOM     18  C   UNL     1       1.506   9.109  17.902  0.00  0.00    +0.000 C 
ATOM     19  C   UNL     1       0.460  10.075  18.407  0.00  0.00    +0.000 C 
ATOM     20  C   UNL     1       1.837  10.574  18.082  0.00  0.00    +0.000 C 
ENDBRANCH  15  18
ENDBRANCH   1  16
TORSDOF 4
ENDMDL
MODEL 7
REMARK VINA RESULT:      -7.6      1.896      4.450
REMARK  Name = 
REMARK  4 active torsions:
REMARK  status: ('A' for Active; 'I' for Inactive)
REMARK    1  A    between atoms: C_2  and  C_17
REMARK    2  A    between atoms: N_3  and  C_4
REMARK    3  A    between atoms: C_4  and  C_5
REMARK    4  A    between atoms: C_4  and  C_11
REMARK                            x       y       z     vdW  Elec       q    Type
REMARK                         _______ _______ _______ _____ _____    ______ ____
ROOT
ATOM      1  C   UNL     1       3.336   5.909  19.481  0.00  0.00    +0.000 C 
ENDROOT
BRANCH   1   2
ATOM      2  C   UNL     1       2.540   7.188  19.250  0.00  0.00    +0.000 A 
ATOM      3  C   UNL     1       2.530   7.827  17.998  0.00  0.00    +0.000 A 
ATOM      4  C   UNL     1       1.811   9.008  17.809  0.00  0.00    +0.000 A 
ATOM      5  C   UNL     1       1.083   9.560  18.861  0.00  0.00    +0.000 A 
ATOM      6  C   UNL     1       1.073   8.932  20.105  0.00  0.00    +0.000 A 
ATOM      7  C   UNL     1       1.800   7.756  20.301  0.00  0.00    +0.000 A 
ENDBRANCH   1   2
BRANCH   1   8
ATOM      8  C   UNL     1       2.493   4.771  20.035  0.00  0.00    +0.000 A 
ATOM      9  C   UNL     1       1.510   4.095  19.300  0.00  0.00    +0.000 A 
ATOM     10  C   UNL     1       0.826   3.022  19.867  0.00  0.00    +0.000 A 
ATOM     11  C   UNL     1       1.141   2.651  21.162  0.00  0.00    +0.000 A 
ATOM     12  N   UNL     1       2.066   3.279  21.914  0.00  0.00    +0.000 NA
ATOM     13  C   UNL     1       2.718   4.316  21.337  0.00  0.00    +0.000 A 
ENDBRANCH   1   8
BRANCH   1  16
ATOM     14  O   UNL     1       5.780   4.454  19.254  0.00  0.00    +0.000 OA
ATOM     15  C   UNL     1       5.195   4.834  18.248  0.00  0.00    +0.000 C 
ATOM     16  N   UNL     1       4.030   5.552  18.251  0.00  0.00    +0.000 N 
ATOM     17  H   UNL     1       3.649   5.887  17.378  0.00  0.00    +0.000 HD
BRANCH  15  18
ATOM     18  C   UNL     1       5.732   4.544  16.888  0.00  0.00    +0.000 C 
ATOM     19  C   UNL     1       5.359   5.436  15.727  0.00  0.00    +0.000 C 
ATOM     20  C   UNL     1       6.760   5.461  16.264  0.00  0.00    +0.000 C 
ENDBRANCH  15  18
ENDBRANCH   1  16
TORSDOF 4
ENDMDL
MODEL 8
REMARK VINA RESULT:      -7.5      0.930      1.260
REMARK  Name = 
REMARK  4 active torsions:
REMARK  status: ('A' for Active; 'I' for Inactive)
REMARK    1  A    between atoms: C_2  and  C_17
REMARK    2  A    between atoms: N_3  and  C_4
REMARK    3  A    between atoms: C_4  and  C_5
REMARK    4  A    between atoms: C_4  and  C_11
REMARK                            x       y       z     vdW  Elec       q    Type
REMARK                         _______ _______ _______ _____ _____    ______ ____
ROOT
ATOM      1  C   UNL     1       3.170   5.838  18.102  0.00  0.00    +0.000 C 
ENDROOT
BRANCH   1   2
ATOM      2  C   UNL     1       2.455   7.084  18.612  0.00  0.00    +0.000 A 
ATOM      3  C   UNL     1       2.113   8.136  17.746  0.00  0.00    +0.000 A 
ATOM      4  C   UNL     1       1.475   9.278  18.234  0.00  0.00    +0.000 A 
ATOM      5  C   UNL     1       1.160   9.379  19.587  0.00  0.00    +0.000 A 
ATOM      6  C   UNL     1       1.481   8.339  20.456  0.00  0.00    +0.000 A 
ATOM      7  C   UNL     1       2.129   7.200  19.974  0.00  0.00    +0.000 A 
ENDBRANCH   1   2
BRANCH   1   8
ATOM      8  C   UNL     1       4.667   6.040  17.919  0.00  0.00    +0.000 A 
ATOM      9  C   UNL     1       5.631   5.630  18.848  0.00  0.00    +0.000 A 
ATOM     10  C   UNL     1       6.987   5.800  18.572  0.00  0.00    +0.000 A 
ATOM     11  C   UNL     1       7.345   6.381  17.369  0.00  0.00    +0.000 A 
ATOM     12  N   UNL     1       6.455   6.806  16.451  0.00  0.00    +0.000 NA
ATOM     13  C   UNL     1       5.145   6.625  16.744  0.00  0.00    +0.000 A 
ENDBRANCH   1   8
BRANCH   1  16
ATOM     14  O   UNL     1       1.178   3.842  17.670  0.00  0.00    +0.000 OA
ATOM     15  C   UNL     1       1.885   3.799  18.669  0.00  0.00    +0.000 C 
ATOM     16  N   UNL     1       2.854   4.716  18.975  0.00  0.00    +0.000 N 
ATOM     17  H   UNL     1       3.345   4.647  19.854  0.00  0.00    +0.000 HD
BRANCH  15  18
ATOM     18  C   UNL     1       1.734   2.710  19.675  0.00  0.00    +0.000 C 
ATOM     19  C   UNL     1       2.543   2.746  20.949  0.00  0.00    +0.000 C 
ATOM     20  C   UNL     1       1.063   2.987  21.001  0.00  0.00    +0.000 C 
ENDBRANCH  15  18
ENDBRANCH   1  16
TORSDOF 4
ENDMDL
MODEL 9
REMARK VINA RESULT:      -7.5      0.960      1.693
REMARK  Name = 
REMARK  4 active torsions:
REMARK  status: ('A' for Active; 'I' for Inactive)
REMARK    1  A    between atoms: C_2  and  C_17
REMARK    2  A    between atoms: N_3  and  C_4
REMARK    3  A    between atoms: C_4  and  C_5
REMARK    4  A    between atoms: C_4  and  C_11
REMARK                            x       y       z     vdW  Elec       q    Type
REMARK                         _______ _______ _______ _____ _____    ______ ____
ROOT
ATOM      1  C   UNL     1       3.178   5.807  18.127  0.00  0.00    +0.000 C 
ENDROOT
BRANCH   1   2
ATOM      2  C   UNL     1       2.479   7.055  18.652  0.00  0.00    +0.000 A 
ATOM      3  C   UNL     1       2.131   7.181  20.008  0.00  0.00    +0.000 A 
ATOM      4  C   UNL     1       1.474   8.324  20.469  0.00  0.00    +0.000 A 
ATOM      5  C   UNL     1       1.168   9.358  19.588  0.00  0.00    +0.000 A 
ATOM      6  C   UNL     1       1.518   9.254  18.243  0.00  0.00    +0.000 A 
ATOM      7  C   UNL     1       2.165   8.108  17.776  0.00  0.00    +0.000 A 
ENDBRANCH   1   2
BRANCH   1   8
ATOM      8  C   UNL     1       4.669   6.005  17.901  0.00  0.00    +0.000 A 
ATOM      9  C   UNL     1       5.659   5.592  18.802  0.00  0.00    +0.000 A 
ATOM     10  C   UNL     1       7.006   5.758  18.487  0.00  0.00    +0.000 A 
ATOM     11  C   UNL     1       7.331   6.340  17.274  0.00  0.00    +0.000 A 
ATOM     12  N   UNL     1       6.416   6.768  16.383  0.00  0.00    +0.000 NA
ATOM     13  C   UNL     1       5.114   6.590  16.713  0.00  0.00    +0.000 A 
ENDBRANCH   1   8
BRANCH   1  16
ATOM     14  O   UNL     1       1.248   3.748  17.702  0.00  0.00    +0.000 OA
ATOM     15  C   UNL     1       1.945   3.740  18.709  0.00  0.00    +0.000 C 
ATOM     16  N   UNL     1       2.884   4.689  19.013  0.00  0.00    +0.000 N 
ATOM     17  H   UNL     1       3.367   4.645  19.897  0.00  0.00    +0.000 HD
BRANCH  15  18
ATOM     18  C   UNL     1       1.814   2.661  19.729  0.00  0.00    +0.000 C 
ATOM     19  C   UNL     1       2.616   2.733  21.006  0.00  0.00    +0.000 C 
ATOM     20  C   UNL     1       1.131   2.940  21.049  0.00  0.00    +0.000 C 
ENDBRANCH  15  18
ENDBRANCH   1  16
TORSDOF 4
ENDMDL
