MODEL 1
REMARK VINA RESULT:      -7.8      0.000      0.000
REMARK  Name = 
REMARK  4 active torsions:
REMARK  status: ('A' for Active; 'I' for Inactive)
REMARK    1  A    between atoms: O_1  and  C_2
REMARK    2  A    between atoms: C_5  and  C_6
REMARK    3  A    between atoms: N_7  and  N_8
REMARK    4  A    between atoms: C_20  and  O_21
REMARK                            x       y       z     vdW  Elec       q    Type
REMARK                         _______ _______ _______ _____ _____    ______ ____
ROOT
ATOM      1  C   UNL     1       3.785   5.599  18.852  0.00  0.00    +0.000 C 
ATOM      2  N   UNL     1       3.331   6.747  19.243  0.00  0.00    +0.000 NA
ENDROOT
BRANCH   2   3
ATOM      3  N   UNL     1       2.372   6.709  20.211  0.00  0.00    +0.000 N 
ATOM      4  C   UNL     1       1.589   7.874  20.374  0.00  0.00    +0.000 A 
ATOM      5  C   UNL     1       1.302   8.708  19.296  0.00  0.00    +0.000 A 
ATOM      6  N   UNL     1       0.559   9.836  19.388  0.00  0.00    +0.000 NA
ATOM      7  C   UNL     1       0.088  10.125  20.609  0.00  0.00    +0.000 A 
ATOM      8  C   UNL     1      -0.668  11.278  20.780  0.00  0.00    +0.000 A 
ATOM      9  C   UNL     1      -1.175  11.635  22.028  0.00  0.00    +0.000 A 
ATOM     10  C   UNL     1      -0.923  10.821  23.124  0.00  0.00    +0.000 A 
ATOM     11  C   UNL     1      -0.167   9.657  22.963  0.00  0.00    +0.000 A 
ATOM     12  C   UNL     1       0.353   9.287  21.723  0.00  0.00    +0.000 A 
ATOM     13  N   UNL     1       1.094   8.157  21.602  0.00  0.00    +0.000 NA
ATOM     14  H   UNL     1       2.581   6.319  21.129  0.00  0.00    +0.000 HD
ENDBRANCH   2   3
BRANCH   1  18
ATOM     15  C   UNL     1       6.826   5.328  15.868  0.00  0.00    +0.000 A 
ATOM     16  C   UNL     1       5.645   6.017  15.593  0.00  0.00    +0.000 A 
ATOM     17  C   UNL     1       4.652   6.112  16.575  0.00  0.00    +0.000 A 
ATOM     18  C   UNL     1       4.849   5.514  17.825  0.00  0.00    +0.000 A 
ATOM     19  C   UNL     1       6.039   4.827  18.099  0.00  0.00    +0.000 A 
ATOM     20  C   UNL     1       7.023   4.738  17.116  0.00  0.00    +0.000 A 
BRANCH  15  21
ATOM     21  O   UNL     1       7.803   5.221  14.917  0.00  0.00    +0.000 OA
ATOM     22  H   UNL     1       7.396   5.084  14.048  0.00  0.00    +0.000 HD
ENDBRANCH  15  21
BRANCH  20  23
ATOM     23  O   UNL     1       8.189   4.069  17.364  0.00  0.00    +0.000 OA
ATOM     24  H   UNL     1       8.786   4.642  17.870  0.00  0.00    +0.000 HD
ENDBRANCH  20  23
ENDBRANCH   1  18
TORSDOF 4
ENDMDL
MODEL 2
REMARK VINA RESULT:      -7.6      0.927      1.063
REMARK  Name = 
REMARK  4 active torsions:
REMARK  status: ('A' for Active; 'I' for Inactive)
REMARK    1  A    between atoms: O_1  and  C_2
REMARK    2  A    between atoms: C_5  and  C_6
REMARK    3  A    between atoms: N_7  and  N_8
REMARK    4  A    between atoms: C_20  and  O_21
REMARK                            x       y       z     vdW  Elec       q    Type
REMARK                         _______ _______ _______ _____ _____    ______ ____
ROOT
ATOM      1  C   UNL     1       3.437   5.555  18.372  0.00  0.00    +0.000 C 
ATOM      2  N   UNL     1       3.431   6.455  19.302  0.00  0.00    +0.000 NA
ENDROOT
BRANCH   2   3
ATOM      3  N   UNL     1       2.350   6.447  20.132  0.00  0.00    +0.000 N 
ATOM      4  C   UNL     1       1.689   7.681  20.325  0.00  0.00    +0.000 A 
ATOM      5  C   UNL     1       1.650   8.644  19.321  0.00  0.00    +0.000 A 
ATOM      6  N   UNL     1       1.033   9.844  19.444  0.00  0.00    +0.000 NA
ATOM      7  C   UNL     1       0.435  10.072  20.622  0.00  0.00    +0.000 A 
ATOM      8  C   UNL     1      -0.202  11.289  20.825  0.00  0.00    +0.000 A 
ATOM      9  C   UNL     1      -0.833  11.587  22.032  0.00  0.00    +0.000 A 
ATOM     10  C   UNL     1      -0.828  10.646  23.052  0.00  0.00    +0.000 A 
ATOM     11  C   UNL     1      -0.193   9.416  22.857  0.00  0.00    +0.000 A 
ATOM     12  C   UNL     1       0.447   9.103  21.659  0.00  0.00    +0.000 A 
ATOM     13  N   UNL     1       1.065   7.905  21.506  0.00  0.00    +0.000 NA
ATOM     14  H   UNL     1       2.385   5.947  21.020  0.00  0.00    +0.000 HD
ENDBRANCH   2   3
BRANCH   1  18
ATOM     15  C   UNL     1       6.722   5.208  15.667  0.00  0.00    +0.000 A 
ATOM     16  C   UNL     1       5.678   4.284  15.612  0.00  0.00    +0.000 A 
ATOM     17  C   UNL     1       4.598   4.404  16.495  0.00  0.00    +0.000 A 
ATOM     18  C   UNL     1       4.573   5.447  17.427  0.00  0.00    +0.000 A 
ATOM     19  C   UNL     1       5.621   6.376  17.476  0.00  0.00    +0.000 A 
ATOM     20  C   UNL     1       6.691   6.250  16.593  0.00  0.00    +0.000 A 
BRANCH  15  21
ATOM     21  O   UNL     1       7.787   5.101  14.817  0.00  0.00    +0.000 OA
ATOM     22  H   UNL     1       7.745   4.253  14.350  0.00  0.00    +0.000 HD
ENDBRANCH  15  21
BRANCH  20  23
ATOM     23  O   UNL     1       7.725   7.144  16.629  0.00  0.00    +0.000 OA
ATOM     24  H   UNL     1       7.391   8.008  16.920  0.00  0.00    +0.000 HD
ENDBRANCH  20  23
ENDBRANCH   1  18
TORSDOF 4
ENDMDL
MODEL 3
REMARK VINA RESULT:      -7.6      2.524      3.135
REMARK  Name = 
REMARK  4 active torsions:
REMARK  status: ('A' for Active; 'I' for Inactive)
REMARK    1  A    between atoms: O_1  and  C_2
REMARK    2  A    between atoms: C_5  and  C_6
REMARK    3  A    between atoms: N_7  and  N_8
REMARK    4  A    between atoms: C_20  and  O_21
REMARK                            x       y       z     vdW  Elec       q    Type
REMARK                         _______ _______ _______ _____ _____    ______ ____
ROOT
ATOM      1  C   UNL     1       3.094   6.294  18.405  0.00  0.00    +0.000 C 
ATOM      2  N   UNL     1       2.156   6.821  19.124  0.00  0.00    +0.000 NA
ENDROOT
BRANCH   2   3
ATOM      3  N   UNL     1       2.041   8.177  19.053  0.00  0.00    +0.000 N 
ATOM      4  C   UNL     1       1.293   8.806  20.073  0.00  0.00    +0.000 A 
ATOM      5  C   UNL     1       1.245   8.281  21.362  0.00  0.00    +0.000 A 
ATOM      6  N   UNL     1       0.548   8.836  22.381  0.00  0.00    +0.000 NA
ATOM      7  C   UNL     1      -0.120   9.960  22.085  0.00  0.00    +0.000 A 
ATOM      8  C   UNL     1      -0.871  10.574  23.079  0.00  0.00    +0.000 A 
ATOM      9  C   UNL     1      -1.594  11.739  22.828  0.00  0.00    +0.000 A 
ATOM     10  C   UNL     1      -1.560  12.301  21.559  0.00  0.00    +0.000 A 
ATOM     11  C   UNL     1      -0.804  11.693  20.553  0.00  0.00    +0.000 A 
ATOM     12  C   UNL     1      -0.079  10.525  20.785  0.00  0.00    +0.000 A 
ATOM     13  N   UNL     1       0.635   9.953  19.783  0.00  0.00    +0.000 NA
ATOM     14  H   UNL     1       1.835   8.631  18.163  0.00  0.00    +0.000 HD
ENDBRANCH   2   3
BRANCH   1  18
ATOM     15  C   UNL     1       3.641   2.060  18.345  0.00  0.00    +0.000 A 
ATOM     16  C   UNL     1       2.766   2.659  17.439  0.00  0.00    +0.000 A 
ATOM     17  C   UNL     1       2.594   4.049  17.455  0.00  0.00    +0.000 A 
ATOM     18  C   UNL     1       3.298   4.827  18.380  0.00  0.00    +0.000 A 
ATOM     19  C   UNL     1       4.180   4.222  19.286  0.00  0.00    +0.000 A 
ATOM     20  C   UNL     1       4.346   2.839  19.263  0.00  0.00    +0.000 A 
BRANCH  15  21
ATOM     21  O   UNL     1       3.816   0.705  18.347  0.00  0.00    +0.000 OA
ATOM     22  H   UNL     1       3.543   0.341  17.491  0.00  0.00    +0.000 HD
ENDBRANCH  15  21
BRANCH  20  23
ATOM     23  O   UNL     1       5.199   2.231  20.141  0.00  0.00    +0.000 OA
ATOM     24  H   UNL     1       6.092   2.593  20.023  0.00  0.00    +0.000 HD
ENDBRANCH  20  23
ENDBRANCH   1  18
TORSDOF 4
ENDMDL
MODEL 4
REMARK VINA RESULT:      -7.6      6.437      8.264
REMARK  Name = 
REMARK  4 active torsions:
REMARK  status: ('A' for Active; 'I' for Inactive)
REMARK    1  A    between atoms: O_1  and  C_2
REMARK    2  A    between atoms: C_5  and  C_6
REMARK    3  A    between atoms: N_7  and  N_8
REMARK    4  A    between atoms: C_20  and  O_21
REMARK                            x       y       z     vdW  Elec       q    Type
REMARK                         _______ _______ _______ _____ _____    ______ ____
ROOT
ATOM      1  C   UNL     1       9.239   9.587  19.004  0.00  0.00    +0.000 C 
ATOM      2  N   UNL     1       8.602   8.719  18.286  0.00  0.00    +0.000 NA
ENDROOT
BRANCH   2   3
ATOM      3  N   UNL     1       8.398   7.502  18.865  0.00  0.00    +0.000 N 
ATOM      4  C   UNL     1       7.447   6.657  18.249  0.00  0.00    +0.000 A 
ATOM      5  C   UNL     1       7.231   6.696  16.874  0.00  0.00    +0.000 A 
ATOM      6  N   UNL     1       6.336   5.913  16.226  0.00  0.00    +0.000 NA
ATOM      7  C   UNL     1       5.642   5.062  16.995  0.00  0.00    +0.000 A 
ATOM      8  C   UNL     1       4.694   4.241  16.399  0.00  0.00    +0.000 A 
ATOM      9  C   UNL     1       3.935   3.344  17.149  0.00  0.00    +0.000 A 
ATOM     10  C   UNL     1       4.133   3.266  18.520  0.00  0.00    +0.000 A 
ATOM     11  C   UNL     1       5.088   4.085  19.130  0.00  0.00    +0.000 A 
ATOM     12  C   UNL     1       5.851   4.991  18.397  0.00  0.00    +0.000 A 
ATOM     13  N   UNL     1       6.761   5.782  19.020  0.00  0.00    +0.000 NA
ATOM     14  H   UNL     1       8.307   7.421  19.877  0.00  0.00    +0.000 HD
ENDBRANCH   2   3
BRANCH   1  18
ATOM     15  C   UNL     1       9.992  13.537  17.569  0.00  0.00    +0.000 A 
ATOM     16  C   UNL     1      11.051  12.752  18.026  0.00  0.00    +0.000 A 
ATOM     17  C   UNL     1      10.803  11.454  18.489  0.00  0.00    +0.000 A 
ATOM     18  C   UNL     1       9.497  10.953  18.492  0.00  0.00    +0.000 A 
ATOM     19  C   UNL     1       8.436  11.743  18.029  0.00  0.00    +0.000 A 
ATOM     20  C   UNL     1       8.691  13.033  17.569  0.00  0.00    +0.000 A 
BRANCH  15  21
ATOM     21  O   UNL     1      10.216  14.809  17.120  0.00  0.00    +0.000 OA
ATOM     22  H   UNL     1       9.368  15.251  16.962  0.00  0.00    +0.000 HD
ENDBRANCH  15  21
BRANCH  20  23
ATOM     23  O   UNL     1       7.669  13.821  17.116  0.00  0.00    +0.000 OA
ATOM     24  H   UNL     1       7.771  14.716  17.476  0.00  0.00    +0.000 HD
ENDBRANCH  20  23
ENDBRANCH   1  18
TORSDOF 4
ENDMDL
MODEL 5
REMARK VINA RESULT:      -7.6      5.133      7.201
REMARK  Name = 
REMARK  4 active torsions:
REMARK  status: ('A' for Active; 'I' for Inactive)
REMARK    1  A    between atoms: O_1  and  C_2
REMARK    2  A    between atoms: C_5  and  C_6
REMARK    3  A    between atoms: N_7  and  N_8
REMARK    4  A    between atoms: C_20  and  O_21
REMARK                            x       y       z     vdW  Elec       q    Type
REMARK                         _______ _______ _______ _____ _____    ______ ____
ROOT
ATOM      1  C   UNL     1       8.283   8.292  18.157  0.00  0.00    +0.000 C 
ATOM      2  N   UNL     1       7.765   7.916  17.031  0.00  0.00    +0.000 NA
ENDROOT
BRANCH   2   3
ATOM      3  N   UNL     1       7.459   6.592  16.930  0.00  0.00    +0.000 N 
ATOM      4  C   UNL     1       6.138   6.217  17.264  0.00  0.00    +0.000 A 
ATOM      5  C   UNL     1       5.068   7.084  17.057  0.00  0.00    +0.000 A 
ATOM      6  N   UNL     1       3.782   6.785  17.356  0.00  0.00    +0.000 NA
ATOM      7  C   UNL     1       3.574   5.568  17.877  0.00  0.00    +0.000 A 
ATOM      8  C   UNL     1       2.280   5.200  18.224  0.00  0.00    +0.000 A 
ATOM      9  C   UNL     1       2.004   3.952  18.779  0.00  0.00    +0.000 A 
ATOM     10  C   UNL     1       3.042   3.055  18.988  0.00  0.00    +0.000 A 
ATOM     11  C   UNL     1       4.347   3.413  18.638  0.00  0.00    +0.000 A 
ATOM     12  C   UNL     1       4.643   4.659  18.087  0.00  0.00    +0.000 A 
ATOM     13  N   UNL     1       5.922   4.981  17.771  0.00  0.00    +0.000 NA
ATOM     14  H   UNL     1       8.103   5.885  17.283  0.00  0.00    +0.000 HD
ENDBRANCH   2   3
BRANCH   1  18
ATOM     15  C   UNL     1       9.264  12.383  18.880  0.00  0.00    +0.000 A 
ATOM     16  C   UNL     1       9.748  11.393  19.735  0.00  0.00    +0.000 A 
ATOM     17  C   UNL     1       9.432  10.050  19.492  0.00  0.00    +0.000 A 
ATOM     18  C   UNL     1       8.632   9.711  18.395  0.00  0.00    +0.000 A 
ATOM     19  C   UNL     1       8.151  10.709  17.536  0.00  0.00    +0.000 A 
ATOM     20  C   UNL     1       8.472  12.042  17.785  0.00  0.00    +0.000 A 
BRANCH  15  21
ATOM     21  O   UNL     1       9.558  13.698  19.108  0.00  0.00    +0.000 OA
ATOM     22  H   UNL     1       9.870  13.808  20.019  0.00  0.00    +0.000 HD
ENDBRANCH  15  21
BRANCH  20  23
ATOM     23  O   UNL     1       8.009  13.030  16.960  0.00  0.00    +0.000 OA
ATOM     24  H   UNL     1       7.271  13.488  17.392  0.00  0.00    +0.000 HD
ENDBRANCH  20  23
ENDBRANCH   1  18
TORSDOF 4
ENDMDL
MODEL 6
REMARK VINA RESULT:      -7.5      5.229      7.141
REMARK  Name = 
REMARK  4 active torsions:
REMARK  status: ('A' for Active; 'I' for Inactive)
REMARK    1  A    between atoms: O_1  and  C_2
REMARK    2  A    between atoms: C_5  and  C_6
REMARK    3  A    between atoms: N_7  and  N_8
REMARK    4  A    between atoms: C_20  and  O_21
REMARK                            x       y       z     vdW  Elec       q    Type
REMARK                         _______ _______ _______ _____ _____    ______ ____
ROOT
ATOM      1  C   UNL     1       8.304   8.262  18.194  0.00  0.00    +0.000 C 
ATOM      2  N   UNL     1       7.760   7.947  17.062  0.00  0.00    +0.000 NA
ENDROOT
BRANCH   2   3
ATOM      3  N   UNL     1       7.448   6.630  16.898  0.00  0.00    +0.000 N 
ATOM      4  C   UNL     1       6.124   6.248  17.209  0.00  0.00    +0.000 A 
ATOM      5  C   UNL     1       5.059   7.130  17.038  0.00  0.00    +0.000 A 
ATOM      6  N   UNL     1       3.770   6.824  17.318  0.00  0.00    +0.000 NA
ATOM      7  C   UNL     1       3.553   5.586  17.781  0.00  0.00    +0.000 A 
ATOM      8  C   UNL     1       2.255   5.209  18.105  0.00  0.00    +0.000 A 
ATOM      9  C   UNL     1       1.971   3.938  18.601  0.00  0.00    +0.000 A 
ATOM     10  C   UNL     1       3.003   3.026  18.772  0.00  0.00    +0.000 A 
ATOM     11  C   UNL     1       4.312   3.393  18.444  0.00  0.00    +0.000 A 
ATOM     12  C   UNL     1       4.616   4.661  17.953  0.00  0.00    +0.000 A 
ATOM     13  N   UNL     1       5.898   4.991  17.657  0.00  0.00    +0.000 NA
ATOM     14  H   UNL     1       8.087   5.904  17.220  0.00  0.00    +0.000 HD
ENDBRANCH   2   3
BRANCH   1  18
ATOM     15  C   UNL     1       9.367  12.309  19.041  0.00  0.00    +0.000 A 
ATOM     16  C   UNL     1       8.705  12.000  17.852  0.00  0.00    +0.000 A 
ATOM     17  C   UNL     1       8.350  10.673  17.580  0.00  0.00    +0.000 A 
ATOM     18  C   UNL     1       8.663   9.666  18.499  0.00  0.00    +0.000 A 
ATOM     19  C   UNL     1       9.324   9.981  19.693  0.00  0.00    +0.000 A 
ATOM     20  C   UNL     1       9.672  11.304  19.958  0.00  0.00    +0.000 A 
BRANCH  15  21
ATOM     21  O   UNL     1       9.726  13.598  19.319  0.00  0.00    +0.000 OA
ATOM     22  H   UNL     1      10.430  13.877  18.713  0.00  0.00    +0.000 HD
ENDBRANCH  15  21
BRANCH  20  23
ATOM     23  O   UNL     1      10.321  11.630  21.116  0.00  0.00    +0.000 OA
ATOM     24  H   UNL     1       9.796  12.285  21.603  0.00  0.00    +0.000 HD
ENDBRANCH  20  23
ENDBRANCH   1  18
TORSDOF 4
ENDMDL
MODEL 7
REMARK VINA RESULT:      -7.5      4.534      8.187
REMARK  Name = 
REMARK  4 active torsions:
REMARK  status: ('A' for Active; 'I' for Inactive)
REMARK    1  A    between atoms: O_1  and  C_2
REMARK    2  A    between atoms: C_5  and  C_6
REMARK    3  A    between atoms: N_7  and  N_8
REMARK    4  A    between atoms: C_20  and  O_21
REMARK                            x       y       z     vdW  Elec       q    Type
REMARK                         _______ _______ _______ _____ _____    ______ ____
ROOT
ATOM      1  C   UNL     1       0.274   9.385  20.737  0.00  0.00    +0.000 C 
ATOM      2  N   UNL     1       1.450   8.851  20.643  0.00  0.00    +0.000 NA
ENDROOT
BRANCH   2   3
ATOM      3  N   UNL     1       1.579   7.598  21.161  0.00  0.00    +0.000 N 
ATOM      4  C   UNL     1       1.874   6.560  20.249  0.00  0.00    +0.000 A 
ATOM      5  C   UNL     1       2.626   6.800  19.102  0.00  0.00    +0.000 A 
ATOM      6  N   UNL     1       2.943   5.850  18.190  0.00  0.00    +0.000 NA
ATOM      7  C   UNL     1       2.486   4.618  18.452  0.00  0.00    +0.000 A 
ATOM      8  C   UNL     1       2.758   3.597  17.550  0.00  0.00    +0.000 A 
ATOM      9  C   UNL     1       2.300   2.298  17.764  0.00  0.00    +0.000 A 
ATOM     10  C   UNL     1       1.560   2.015  18.904  0.00  0.00    +0.000 A 
ATOM     11  C   UNL     1       1.284   3.035  19.820  0.00  0.00    +0.000 A 
ATOM     12  C   UNL     1       1.729   4.340  19.620  0.00  0.00    +0.000 A 
ATOM     13  N   UNL     1       1.432   5.310  20.521  0.00  0.00    +0.000 NA
ATOM     14  H   UNL     1       0.910   7.253  21.850  0.00  0.00    +0.000 HD
ENDBRANCH   2   3
BRANCH   1  18
ATOM     15  C   UNL     1      -0.529  13.277  19.178  0.00  0.00    +0.000 A 
ATOM     16  C   UNL     1       0.124  13.142  20.404  0.00  0.00    +0.000 A 
ATOM     17  C   UNL     1       0.394  11.865  20.910  0.00  0.00    +0.000 A 
ATOM     18  C   UNL     1       0.005  10.733  20.185  0.00  0.00    +0.000 A 
ATOM     19  C   UNL     1      -0.647  10.872  18.953  0.00  0.00    +0.000 A 
ATOM     20  C   UNL     1      -0.910  12.147  18.456  0.00  0.00    +0.000 A 
BRANCH  15  21
ATOM     21  O   UNL     1      -0.806  14.517  18.674  0.00  0.00    +0.000 OA
ATOM     22  H   UNL     1      -0.005  15.062  18.695  0.00  0.00    +0.000 HD
ENDBRANCH  15  21
BRANCH  20  23
ATOM     23  O   UNL     1      -1.549  12.303  17.257  0.00  0.00    +0.000 OA
ATOM     24  H   UNL     1      -2.411  12.722  17.406  0.00  0.00    +0.000 HD
ENDBRANCH  20  23
ENDBRANCH   1  18
TORSDOF 4
ENDMDL
MODEL 8
REMARK VINA RESULT:      -7.5      6.293      8.022
REMARK  Name = 
REMARK  4 active torsions:
REMARK  status: ('A' for Active; 'I' for Inactive)
REMARK    1  A    between atoms: O_1  and  C_2
REMARK    2  A    between atoms: C_5  and  C_6
REMARK    3  A    between atoms: N_7  and  N_8
REMARK    4  A    between atoms: C_20  and  O_21
REMARK                            x       y       z     vdW  Elec       q    Type
REMARK                         _______ _______ _______ _____ _____    ______ ____
ROOT
ATOM      1  C   UNL     1       9.052   9.364  19.049  0.00  0.00    +0.000 C 
ATOM      2  N   UNL     1       8.644   8.388  18.303  0.00  0.00    +0.000 NA
ENDROOT
BRANCH   2   3
ATOM      3  N   UNL     1       8.327   7.233  18.953  0.00  0.00    +0.000 N 
ATOM      4  C   UNL     1       7.355   6.408  18.344  0.00  0.00    +0.000 A 
ATOM      5  C   UNL     1       7.215   6.359  16.960  0.00  0.00    +0.000 A 
ATOM      6  N   UNL     1       6.304   5.590  16.317  0.00  0.00    +0.000 NA
ATOM      7  C   UNL     1       5.513   4.845  17.103  0.00  0.00    +0.000 A 
ATOM      8  C   UNL     1       4.544   4.045  16.511  0.00  0.00    +0.000 A 
ATOM      9  C   UNL     1       3.687   3.256  17.277  0.00  0.00    +0.000 A 
ATOM     10  C   UNL     1       3.805   3.267  18.660  0.00  0.00    +0.000 A 
ATOM     11  C   UNL     1       4.780   4.066  19.266  0.00  0.00    +0.000 A 
ATOM     12  C   UNL     1       5.642   4.864  18.516  0.00  0.00    +0.000 A 
ATOM     13  N   UNL     1       6.569   5.638  19.134  0.00  0.00    +0.000 NA
ATOM     14  H   UNL     1       8.176   7.234  19.962  0.00  0.00    +0.000 HD
ENDBRANCH   2   3
BRANCH   1  18
ATOM     15  C   UNL     1      10.034  13.138  17.312  0.00  0.00    +0.000 A 
ATOM     16  C   UNL     1       8.708  12.847  17.634  0.00  0.00    +0.000 A 
ATOM     17  C   UNL     1       8.389  11.612  18.212  0.00  0.00    +0.000 A 
ATOM     18  C   UNL     1       9.400  10.677  18.459  0.00  0.00    +0.000 A 
ATOM     19  C   UNL     1      10.731  10.975  18.137  0.00  0.00    +0.000 A 
ATOM     20  C   UNL     1      11.041  12.206  17.565  0.00  0.00    +0.000 A 
BRANCH  15  21
ATOM     21  O   UNL     1      10.361  14.337  16.742  0.00  0.00    +0.000 OA
ATOM     22  H   UNL     1       9.681  14.993  16.954  0.00  0.00    +0.000 HD
ENDBRANCH  15  21
BRANCH  20  23
ATOM     23  O   UNL     1      12.333  12.513  17.241  0.00  0.00    +0.000 OA
ATOM     24  H   UNL     1      12.352  12.937  16.368  0.00  0.00    +0.000 HD
ENDBRANCH  20  23
ENDBRANCH   1  18
TORSDOF 4
ENDMDL
MODEL 9
REMARK VINA RESULT:      -7.4      2.008      3.004
REMARK  Name = 
REMARK  4 active torsions:
REMARK  status: ('A' for Active; 'I' for Inactive)
REMARK    1  A    between atoms: O_1  and  C_2
REMARK    2  A    between atoms: C_5  and  C_6
REMARK    3  A    between atoms: N_7  and  N_8
REMARK    4  A    between atoms: C_20  and  O_21
REMARK                            x       y       z     vdW  Elec       q    Type
REMARK                         _______ _______ _______ _____ _____    ______ ____
ROOT
ATOM      1  C   UNL     1       2.642   7.247  18.183  0.00  0.00    +0.000 C 
ATOM      2  N   UNL     1       1.949   7.725  19.166  0.00  0.00    +0.000 NA
ENDROOT
BRANCH   2   3
ATOM      3  N   UNL     1       1.629   9.047  19.083  0.00  0.00    +0.000 N 
ATOM      4  C   UNL     1       0.852   9.580  20.136  0.00  0.00    +0.000 A 
ATOM      5  C   UNL     1       0.954   9.082  21.432  0.00  0.00    +0.000 A 
ATOM      6  N   UNL     1       0.237   9.549  22.482  0.00  0.00    +0.000 NA
ATOM      7  C   UNL     1      -0.606  10.555  22.210  0.00  0.00    +0.000 A 
ATOM      8  C   UNL     1      -1.386  11.072  23.236  0.00  0.00    +0.000 A 
ATOM      9  C   UNL     1      -2.287  12.111  23.011  0.00  0.00    +0.000 A 
ATOM     10  C   UNL     1      -2.407  12.643  21.735  0.00  0.00    +0.000 A 
ATOM     11  C   UNL     1      -1.624  12.133  20.695  0.00  0.00    +0.000 A 
ATOM     12  C   UNL     1      -0.721  11.091  20.901  0.00  0.00    +0.000 A 
ATOM     13  N   UNL     1       0.015  10.610  19.868  0.00  0.00    +0.000 NA
ATOM     14  H   UNL     1       1.310   9.445  18.200  0.00  0.00    +0.000 HD
ENDBRANCH   2   3
BRANCH   1  18
ATOM     15  C   UNL     1       3.725   3.118  18.118  0.00  0.00    +0.000 A 
ATOM     16  C   UNL     1       2.416   3.496  17.820  0.00  0.00    +0.000 A 
ATOM     17  C   UNL     1       2.064   4.852  17.833  0.00  0.00    +0.000 A 
ATOM     18  C   UNL     1       3.027   5.817  18.149  0.00  0.00    +0.000 A 
ATOM     19  C   UNL     1       4.341   5.434  18.444  0.00  0.00    +0.000 A 
ATOM     20  C   UNL     1       4.683   4.083  18.427  0.00  0.00    +0.000 A 
BRANCH  15  21
ATOM     21  O   UNL     1       4.082   1.799  18.116  0.00  0.00    +0.000 OA
ATOM     22  H   UNL     1       3.300   1.251  17.948  0.00  0.00    +0.000 HD
ENDBRANCH  15  21
BRANCH  20  23
ATOM     23  O   UNL     1       5.960   3.689  18.716  0.00  0.00    +0.000 OA
ATOM     24  H   UNL     1       6.008   3.414  19.645  0.00  0.00    +0.000 HD
ENDBRANCH  20  23
ENDBRANCH   1  18
TORSDOF 4
ENDMDL
