MODEL 1
REMARK VINA RESULT:      -6.9      0.000      0.000
REMARK  Name = 
REMARK  10 active torsions:
REMARK  status: ('A' for Active; 'I' for Inactive)
REMARK    1  A    between atoms: C_1  and  C_2
REMARK    2  A    between atoms: C_2  and  O_3
REMARK    3  A    between atoms: O_3  and  C_4
REMARK    4  A    between atoms: C_4  and  C_6
REMARK    5  A    between atoms: C_6  and  C_7
REMARK    6  A    between atoms: C_12  and  C_14
REMARK    7  A    between atoms: C_14  and  S_15
REMARK    8  A    between atoms: S_15  and  C_16
REMARK    9  A    between atoms: C_18  and  C_19
REMARK   10  A    between atoms: C_21  and  O_22
REMARK                            x       y       z     vdW  Elec       q    Type
REMARK                         _______ _______ _______ _____ _____    ______ ____
ROOT
ATOM      1  C   UNL     1       1.743   5.106  19.854  0.00  0.00    +0.000 A 
ATOM      2  C   UNL     1       1.712   6.437  20.263  0.00  0.00    +0.000 A 
ATOM      3  S   UNL     1       2.680   7.329  19.211  0.00  0.00    +0.000 S 
ATOM      4  C   UNL     1       3.113   5.983  18.301  0.00  0.00    +0.000 A 
ATOM      5  N   UNL     1       3.981   6.025  17.171  0.00  0.00    +0.000 N 
ATOM      6  C   UNL     1       4.444   4.908  16.536  0.00  0.00    +0.000 C 
ATOM      7  O   UNL     1       4.149   3.793  16.943  0.00  0.00    +0.000 OA
ATOM      8  N   UNL     1       2.526   4.858  18.770  0.00  0.00    +0.000 NA
ATOM      9  H   UNL     1       4.277   6.952  16.833  0.00  0.00    +0.000 HD
ENDROOT
BRANCH   1  10
ATOM     10  C   UNL     1       0.962   4.015  20.524  0.00  0.00    +0.000 C 
BRANCH  10  11
ATOM     11  C   UNL     1       1.917   2.969  21.010  0.00  0.00    +0.000 C 
ATOM     12  O   UNL     1       1.852   2.567  22.164  0.00  0.00    +0.000 OA
BRANCH  11  13
ATOM     13  O   UNL     1       2.875   2.506  20.163  0.00  0.00    +0.000 OA
BRANCH  13  15
ATOM     14  C   UNL     1       4.776   1.116  19.803  0.00  0.00    +0.000 C 
ATOM     15  C   UNL     1       4.205   2.351  20.499  0.00  0.00    +0.000 C 
ENDBRANCH  13  15
ENDBRANCH  11  13
ENDBRANCH  10  11
ENDBRANCH   1  10
BRANCH   6  16
ATOM     16  C   UNL     1       5.343   5.018  15.335  0.00  0.00    +0.000 C 
BRANCH  16  17
ATOM     17  S   UNL     1       6.937   4.215  15.723  0.00  0.00    +0.000 S 
BRANCH  17  18
ATOM     18  C   UNL     1       7.364   5.332  17.054  0.00  0.00    +0.000 A 
ATOM     19  N   UNL     1       7.477   6.663  16.806  0.00  0.00    +0.000 NA
ATOM     20  C   UNL     1       7.838   7.530  17.788  0.00  0.00    +0.000 A 
ATOM     21  C   UNL     1       7.947   8.990  17.486  0.00  0.00    +0.000 C 
ATOM     22  C   UNL     1       8.108   7.050  19.073  0.00  0.00    +0.000 A 
ATOM     23  C   UNL     1       7.991   5.676  19.310  0.00  0.00    +0.000 A 
ATOM     24  N   UNL     1       7.624   4.848  18.299  0.00  0.00    +0.000 NA
BRANCH  23  25
ATOM     25  O   UNL     1       8.248   5.163  20.531  0.00  0.00    +0.000 OA
ATOM     26  H   UNL     1       8.220   4.210  20.707  0.00  0.00    +0.000 HD
ENDBRANCH  23  25
ENDBRANCH  17  18
ENDBRANCH  16  17
ENDBRANCH   6  16
TORSDOF 8
ENDMDL
MODEL 2
REMARK VINA RESULT:      -6.7      3.137      4.503
REMARK  Name = 
REMARK  10 active torsions:
REMARK  status: ('A' for Active; 'I' for Inactive)
REMARK    1  A    between atoms: C_1  and  C_2
REMARK    2  A    between atoms: C_2  and  O_3
REMARK    3  A    between atoms: O_3  and  C_4
REMARK    4  A    between atoms: C_4  and  C_6
REMARK    5  A    between atoms: C_6  and  C_7
REMARK    6  A    between atoms: C_12  and  C_14
REMARK    7  A    between atoms: C_14  and  S_15
REMARK    8  A    between atoms: S_15  and  C_16
REMARK    9  A    between atoms: C_18  and  C_19
REMARK   10  A    between atoms: C_21  and  O_22
REMARK                            x       y       z     vdW  Elec       q    Type
REMARK                         _______ _______ _______ _____ _____    ______ ____
ROOT
ATOM      1  C   UNL     1       1.524   8.058  20.140  0.00  0.00    +0.000 A 
ATOM      2  C   UNL     1       1.505   9.084  19.198  0.00  0.00    +0.000 A 
ATOM      3  S   UNL     1       2.312   8.543  17.821  0.00  0.00    +0.000 S 
ATOM      4  C   UNL     1       2.670   7.043  18.492  0.00  0.00    +0.000 A 
ATOM      5  N   UNL     1       3.393   6.016  17.818  0.00  0.00    +0.000 N 
ATOM      6  C   UNL     1       3.807   4.865  18.426  0.00  0.00    +0.000 C 
ATOM      7  O   UNL     1       3.595   4.678  19.616  0.00  0.00    +0.000 OA
ATOM      8  N   UNL     1       2.176   6.930  19.747  0.00  0.00    +0.000 NA
ATOM      9  H   UNL     1       3.620   6.168  16.825  0.00  0.00    +0.000 HD
ENDROOT
BRANCH   1  10
ATOM     10  C   UNL     1       0.860   8.151  21.482  0.00  0.00    +0.000 C 
BRANCH  10  11
ATOM     11  C   UNL     1       1.332   9.398  22.165  0.00  0.00    +0.000 C 
ATOM     12  O   UNL     1       2.407   9.407  22.749  0.00  0.00    +0.000 OA
BRANCH  11  13
ATOM     13  O   UNL     1       0.533  10.497  22.156  0.00  0.00    +0.000 OA
BRANCH  13  15
ATOM     14  C   UNL     1      -1.412  11.596  22.986  0.00  0.00    +0.000 C 
ATOM     15  C   UNL     1      -0.847  10.460  22.133  0.00  0.00    +0.000 C 
ENDBRANCH  13  15
ENDBRANCH  11  13
ENDBRANCH  10  11
ENDBRANCH   1  10
BRANCH   6  16
ATOM     16  C   UNL     1       4.551   3.808  17.656  0.00  0.00    +0.000 C 
BRANCH  16  17
ATOM     17  S   UNL     1       5.458   4.610  16.289  0.00  0.00    +0.000 S 
BRANCH  17  18
ATOM     18  C   UNL     1       6.539   5.567  17.347  0.00  0.00    +0.000 A 
ATOM     19  N   UNL     1       6.753   6.881  17.078  0.00  0.00    +0.000 NA
ATOM     20  C   UNL     1       7.598   7.623  17.840  0.00  0.00    +0.000 A 
ATOM     21  C   UNL     1       7.808   9.069  17.523  0.00  0.00    +0.000 C 
ATOM     22  C   UNL     1       8.269   7.028  18.913  0.00  0.00    +0.000 A 
ATOM     23  C   UNL     1       8.040   5.672  19.173  0.00  0.00    +0.000 A 
ATOM     24  N   UNL     1       7.184   4.972  18.386  0.00  0.00    +0.000 NA
BRANCH  23  25
ATOM     25  O   UNL     1       8.668   5.051  20.193  0.00  0.00    +0.000 OA
ATOM     26  H   UNL     1       8.878   5.506  21.023  0.00  0.00    +0.000 HD
ENDBRANCH  23  25
ENDBRANCH  17  18
ENDBRANCH  16  17
ENDBRANCH   6  16
TORSDOF 8
ENDMDL
MODEL 3
REMARK VINA RESULT:      -6.7      4.608      6.252
REMARK  Name = 
REMARK  10 active torsions:
REMARK  status: ('A' for Active; 'I' for Inactive)
REMARK    1  A    between atoms: C_1  and  C_2
REMARK    2  A    between atoms: C_2  and  O_3
REMARK    3  A    between atoms: O_3  and  C_4
REMARK    4  A    between atoms: C_4  and  C_6
REMARK    5  A    between atoms: C_6  and  C_7
REMARK    6  A    between atoms: C_12  and  C_14
REMARK    7  A    between atoms: C_14  and  S_15
REMARK    8  A    between atoms: S_15  and  C_16
REMARK    9  A    between atoms: C_18  and  C_19
REMARK   10  A    between atoms: C_21  and  O_22
REMARK                            x       y       z     vdW  Elec       q    Type
REMARK                         _______ _______ _______ _____ _____    ______ ____
ROOT
ATOM      1  C   UNL     1       0.346  10.261  19.735  0.00  0.00    +0.000 A 
ATOM      2  C   UNL     1      -0.084  10.402  21.052  0.00  0.00    +0.000 A 
ATOM      3  S   UNL     1       0.542   9.116  21.945  0.00  0.00    +0.000 S 
ATOM      4  C   UNL     1       1.307   8.428  20.615  0.00  0.00    +0.000 A 
ATOM      5  N   UNL     1       2.074   7.228  20.665  0.00  0.00    +0.000 N 
ATOM      6  C   UNL     1       2.561   6.600  19.554  0.00  0.00    +0.000 C 
ATOM      7  O   UNL     1       2.325   7.038  18.437  0.00  0.00    +0.000 OA
ATOM      8  N   UNL     1       1.111   9.162  19.496  0.00  0.00    +0.000 NA
ATOM      9  H   UNL     1       2.253   6.815  21.592  0.00  0.00    +0.000 HD
ENDROOT
BRANCH   1  10
ATOM     10  C   UNL     1       0.027  11.245  18.649  0.00  0.00    +0.000 C 
BRANCH  10  11
ATOM     11  C   UNL     1      -1.363  11.761  18.862  0.00  0.00    +0.000 C 
ATOM     12  O   UNL     1      -1.553  12.731  19.583  0.00  0.00    +0.000 OA
BRANCH  11  13
ATOM     13  O   UNL     1      -2.404  11.114  18.275  0.00  0.00    +0.000 OA
BRANCH  13  15
ATOM     14  C   UNL     1      -2.468  10.316  16.031  0.00  0.00    +0.000 C 
ATOM     15  C   UNL     1      -2.281   9.972  17.508  0.00  0.00    +0.000 C 
ENDBRANCH  13  15
ENDBRANCH  11  13
ENDBRANCH  10  11
ENDBRANCH   1  10
BRANCH   6  16
ATOM     16  C   UNL     1       3.382   5.344  19.673  0.00  0.00    +0.000 C 
BRANCH  16  17
ATOM     17  S   UNL     1       2.995   4.257  18.258  0.00  0.00    +0.000 S 
BRANCH  17  18
ATOM     18  C   UNL     1       4.622   4.361  17.520  0.00  0.00    +0.000 A 
ATOM     19  N   UNL     1       4.766   4.177  16.182  0.00  0.00    +0.000 NA
ATOM     20  C   UNL     1       5.993   4.212  15.598  0.00  0.00    +0.000 A 
ATOM     21  C   UNL     1       6.119   4.013  14.122  0.00  0.00    +0.000 C 
ATOM     22  C   UNL     1       7.129   4.429  16.384  0.00  0.00    +0.000 A 
ATOM     23  C   UNL     1       6.962   4.612  17.761  0.00  0.00    +0.000 A 
ATOM     24  N   UNL     1       5.716   4.572  18.299  0.00  0.00    +0.000 NA
BRANCH  23  25
ATOM     25  O   UNL     1       8.028   4.818  18.563  0.00  0.00    +0.000 OA
ATOM     26  H   UNL     1       8.399   4.117  19.118  0.00  0.00    +0.000 HD
ENDBRANCH  23  25
ENDBRANCH  17  18
ENDBRANCH  16  17
ENDBRANCH   6  16
TORSDOF 8
ENDMDL
MODEL 4
REMARK VINA RESULT:      -6.7      4.509      7.058
REMARK  Name = 
REMARK  10 active torsions:
REMARK  status: ('A' for Active; 'I' for Inactive)
REMARK    1  A    between atoms: C_1  and  C_2
REMARK    2  A    between atoms: C_2  and  O_3
REMARK    3  A    between atoms: O_3  and  C_4
REMARK    4  A    between atoms: C_4  and  C_6
REMARK    5  A    between atoms: C_6  and  C_7
REMARK    6  A    between atoms: C_12  and  C_14
REMARK    7  A    between atoms: C_14  and  S_15
REMARK    8  A    between atoms: S_15  and  C_16
REMARK    9  A    between atoms: C_18  and  C_19
REMARK   10  A    between atoms: C_21  and  O_22
REMARK                            x       y       z     vdW  Elec       q    Type
REMARK                         _______ _______ _______ _____ _____    ______ ____
ROOT
ATOM      1  C   UNL     1       4.231   3.780  17.419  0.00  0.00    +0.000 A 
ATOM      2  C   UNL     1       5.398   3.923  16.671  0.00  0.00    +0.000 A 
ATOM      3  S   UNL     1       5.639   5.567  16.389  0.00  0.00    +0.000 S 
ATOM      4  C   UNL     1       4.240   6.019  17.205  0.00  0.00    +0.000 A 
ATOM      5  N   UNL     1       3.802   7.367  17.359  0.00  0.00    +0.000 N 
ATOM      6  C   UNL     1       2.590   7.708  17.890  0.00  0.00    +0.000 C 
ATOM      7  O   UNL     1       1.796   6.844  18.236  0.00  0.00    +0.000 OA
ATOM      8  N   UNL     1       3.589   4.944  17.707  0.00  0.00    +0.000 NA
ATOM      9  H   UNL     1       4.436   8.112  17.037  0.00  0.00    +0.000 HD
ENDROOT
BRANCH   1  10
ATOM     10  C   UNL     1       3.714   2.458  17.904  0.00  0.00    +0.000 C 
BRANCH  10  11
ATOM     11  C   UNL     1       3.779   2.437  19.400  0.00  0.00    +0.000 C 
ATOM     12  O   UNL     1       4.861   2.501  19.967  0.00  0.00    +0.000 OA
BRANCH  11  13
ATOM     13  O   UNL     1       2.626   2.306  20.108  0.00  0.00    +0.000 OA
BRANCH  13  15
ATOM     14  C   UNL     1       0.959   3.994  20.331  0.00  0.00    +0.000 C 
ATOM     15  C   UNL     1       1.381   2.692  19.651  0.00  0.00    +0.000 C 
ENDBRANCH  13  15
ENDBRANCH  11  13
ENDBRANCH  10  11
ENDBRANCH   1  10
BRANCH   6  16
ATOM     16  C   UNL     1       2.192   9.151  18.044  0.00  0.00    +0.000 C 
BRANCH  16  17
ATOM     17  S   UNL     1       1.210   9.326  19.572  0.00  0.00    +0.000 S 
BRANCH  17  18
ATOM     18  C   UNL     1      -0.097  10.290  18.820  0.00  0.00    +0.000 A 
ATOM     19  N   UNL     1      -0.864   9.738  17.844  0.00  0.00    +0.000 NA
ATOM     20  C   UNL     1      -1.838  10.458  17.228  0.00  0.00    +0.000 A 
ATOM     21  C   UNL     1      -2.671   9.820  16.163  0.00  0.00    +0.000 C 
ATOM     22  C   UNL     1      -2.052  11.790  17.592  0.00  0.00    +0.000 A 
ATOM     23  C   UNL     1      -1.249  12.345  18.596  0.00  0.00    +0.000 A 
ATOM     24  N   UNL     1      -0.291  11.586  19.186  0.00  0.00    +0.000 NA
BRANCH  23  25
ATOM     25  O   UNL     1      -1.412  13.628  18.978  0.00  0.00    +0.000 OA
ATOM     26  H   UNL     1      -0.838  14.339  18.656  0.00  0.00    +0.000 HD
ENDBRANCH  23  25
ENDBRANCH  17  18
ENDBRANCH  16  17
ENDBRANCH   6  16
TORSDOF 8
ENDMDL
MODEL 5
REMARK VINA RESULT:      -6.6      4.969      8.010
REMARK  Name = 
REMARK  10 active torsions:
REMARK  status: ('A' for Active; 'I' for Inactive)
REMARK    1  A    between atoms: C_1  and  C_2
REMARK    2  A    between atoms: C_2  and  O_3
REMARK    3  A    between atoms: O_3  and  C_4
REMARK    4  A    between atoms: C_4  and  C_6
REMARK    5  A    between atoms: C_6  and  C_7
REMARK    6  A    between atoms: C_12  and  C_14
REMARK    7  A    between atoms: C_14  and  S_15
REMARK    8  A    between atoms: S_15  and  C_16
REMARK    9  A    between atoms: C_18  and  C_19
REMARK   10  A    between atoms: C_21  and  O_22
REMARK                            x       y       z     vdW  Elec       q    Type
REMARK                         _______ _______ _______ _____ _____    ______ ____
ROOT
ATOM      1  C   UNL     1       5.320   5.175  18.778  0.00  0.00    +0.000 A 
ATOM      2  C   UNL     1       4.665   3.950  18.883  0.00  0.00    +0.000 A 
ATOM      3  S   UNL     1       3.030   4.205  18.562  0.00  0.00    +0.000 S 
ATOM      4  C   UNL     1       3.225   5.859  18.330  0.00  0.00    +0.000 A 
ATOM      5  N   UNL     1       2.163   6.753  18.007  0.00  0.00    +0.000 N 
ATOM      6  C   UNL     1       2.309   8.111  17.972  0.00  0.00    +0.000 C 
ATOM      7  O   UNL     1       3.379   8.631  18.254  0.00  0.00    +0.000 OA
ATOM      8  N   UNL     1       4.518   6.231  18.478  0.00  0.00    +0.000 NA
ATOM      9  H   UNL     1       1.240   6.342  17.805  0.00  0.00    +0.000 HD
ENDROOT
BRANCH   1  10
ATOM     10  C   UNL     1       6.801   5.340  18.952  0.00  0.00    +0.000 C 
BRANCH  10  11
ATOM     11  C   UNL     1       7.483   4.916  17.688  0.00  0.00    +0.000 C 
ATOM     12  O   UNL     1       8.381   4.085  17.725  0.00  0.00    +0.000 OA
BRANCH  11  13
ATOM     13  O   UNL     1       7.117   5.494  16.514  0.00  0.00    +0.000 OA
BRANCH  13  15
ATOM     14  C   UNL     1       5.879   3.857  15.305  0.00  0.00    +0.000 C 
ATOM     15  C   UNL     1       7.054   4.834  15.303  0.00  0.00    +0.000 C 
ENDBRANCH  13  15
ENDBRANCH  11  13
ENDBRANCH  10  11
ENDBRANCH   1  10
BRANCH   6  16
ATOM     16  C   UNL     1       1.154   9.003  17.605  0.00  0.00    +0.000 C 
BRANCH  16  17
ATOM     17  S   UNL     1       0.621   9.913  19.095  0.00  0.00    +0.000 S 
BRANCH  17  18
ATOM     18  C   UNL     1      -0.964  10.409  18.429  0.00  0.00    +0.000 A 
ATOM     19  N   UNL     1      -1.362   9.938  17.219  0.00  0.00    +0.000 NA
ATOM     20  C   UNL     1      -2.543  10.327  16.670  0.00  0.00    +0.000 A 
ATOM     21  C   UNL     1      -2.956   9.786  15.339  0.00  0.00    +0.000 C 
ATOM     22  C   UNL     1      -3.360  11.232  17.353  0.00  0.00    +0.000 A 
ATOM     23  C   UNL     1      -2.933  11.710  18.597  0.00  0.00    +0.000 A 
ATOM     24  N   UNL     1      -1.747  11.291  19.107  0.00  0.00    +0.000 NA
BRANCH  23  25
ATOM     25  O   UNL     1      -3.684  12.590  19.292  0.00  0.00    +0.000 OA
ATOM     26  H   UNL     1      -4.284  12.310  19.999  0.00  0.00    +0.000 HD
ENDBRANCH  23  25
ENDBRANCH  17  18
ENDBRANCH  16  17
ENDBRANCH   6  16
TORSDOF 8
ENDMDL
MODEL 6
REMARK VINA RESULT:      -6.5      3.968      5.807
REMARK  Name = 
REMARK  10 active torsions:
REMARK  status: ('A' for Active; 'I' for Inactive)
REMARK    1  A    between atoms: C_1  and  C_2
REMARK    2  A    between atoms: C_2  and  O_3
REMARK    3  A    between atoms: O_3  and  C_4
REMARK    4  A    between atoms: C_4  and  C_6
REMARK    5  A    between atoms: C_6  and  C_7
REMARK    6  A    between atoms: C_12  and  C_14
REMARK    7  A    between atoms: C_14  and  S_15
REMARK    8  A    between atoms: S_15  and  C_16
REMARK    9  A    between atoms: C_18  and  C_19
REMARK   10  A    between atoms: C_21  and  O_22
REMARK                            x       y       z     vdW  Elec       q    Type
REMARK                         _______ _______ _______ _____ _____    ______ ____
ROOT
ATOM      1  C   UNL     1       1.063   8.688  20.295  0.00  0.00    +0.000 A 
ATOM      2  C   UNL     1       0.540   9.858  19.750  0.00  0.00    +0.000 A 
ATOM      3  S   UNL     1       1.204  10.061  18.214  0.00  0.00    +0.000 S 
ATOM      4  C   UNL     1       2.143   8.670  18.322  0.00  0.00    +0.000 A 
ATOM      5  N   UNL     1       3.017   8.211  17.293  0.00  0.00    +0.000 N 
ATOM      6  C   UNL     1       3.884   7.168  17.454  0.00  0.00    +0.000 C 
ATOM      7  O   UNL     1       3.971   6.588  18.527  0.00  0.00    +0.000 OA
ATOM      8  N   UNL     1       1.956   8.036  19.503  0.00  0.00    +0.000 NA
ATOM      9  H   UNL     1       2.993   8.709  16.392  0.00  0.00    +0.000 HD
ENDROOT
BRANCH   1  10
ATOM     10  C   UNL     1       0.669   8.151  21.639  0.00  0.00    +0.000 C 
BRANCH  10  11
ATOM     11  C   UNL     1       1.031   9.161  22.684  0.00  0.00    +0.000 C 
ATOM     12  O   UNL     1       2.188   9.542  22.794  0.00  0.00    +0.000 OA
BRANCH  11  13
ATOM     13  O   UNL     1       0.064   9.613  23.526  0.00  0.00    +0.000 OA
BRANCH  13  15
ATOM     14  C   UNL     1      -0.700  11.655  22.564  0.00  0.00    +0.000 C 
ATOM     15  C   UNL     1      -1.074  10.282  23.121  0.00  0.00    +0.000 C 
ENDBRANCH  13  15
ENDBRANCH  11  13
ENDBRANCH  10  11
ENDBRANCH   1  10
BRANCH   6  16
ATOM     16  C   UNL     1       4.769   6.717  16.323  0.00  0.00    +0.000 C 
BRANCH  16  17
ATOM     17  S   UNL     1       5.184   4.957  16.571  0.00  0.00    +0.000 S 
BRANCH  17  18
ATOM     18  C   UNL     1       5.977   4.748  14.980  0.00  0.00    +0.000 A 
ATOM     19  N   UNL     1       5.444   3.892  14.071  0.00  0.00    +0.000 NA
ATOM     20  C   UNL     1       6.044   3.683  12.869  0.00  0.00    +0.000 A 
ATOM     21  C   UNL     1       5.430   2.740  11.886  0.00  0.00    +0.000 C 
ATOM     22  C   UNL     1       7.235   4.350  12.564  0.00  0.00    +0.000 A 
ATOM     23  C   UNL     1       7.772   5.225  13.515  0.00  0.00    +0.000 A 
ATOM     24  N   UNL     1       7.135   5.404  14.700  0.00  0.00    +0.000 NA
BRANCH  23  25
ATOM     25  O   UNL     1       8.922   5.886  13.270  0.00  0.00    +0.000 OA
ATOM     26  H   UNL     1       9.425   6.325  13.973  0.00  0.00    +0.000 HD
ENDBRANCH  23  25
ENDBRANCH  17  18
ENDBRANCH  16  17
ENDBRANCH   6  16
TORSDOF 8
ENDMDL
MODEL 7
REMARK VINA RESULT:      -6.5      4.823      7.434
REMARK  Name = 
REMARK  10 active torsions:
REMARK  status: ('A' for Active; 'I' for Inactive)
REMARK    1  A    between atoms: C_1  and  C_2
REMARK    2  A    between atoms: C_2  and  O_3
REMARK    3  A    between atoms: O_3  and  C_4
REMARK    4  A    between atoms: C_4  and  C_6
REMARK    5  A    between atoms: C_6  and  C_7
REMARK    6  A    between atoms: C_12  and  C_14
REMARK    7  A    between atoms: C_14  and  S_15
REMARK    8  A    between atoms: S_15  and  C_16
REMARK    9  A    between atoms: C_18  and  C_19
REMARK   10  A    between atoms: C_21  and  O_22
REMARK                            x       y       z     vdW  Elec       q    Type
REMARK                         _______ _______ _______ _____ _____    ______ ____
ROOT
ATOM      1  C   UNL     1       5.020   4.857  18.287  0.00  0.00    +0.000 A 
ATOM      2  C   UNL     1       5.717   4.858  17.081  0.00  0.00    +0.000 A 
ATOM      3  S   UNL     1       5.254   6.226  16.212  0.00  0.00    +0.000 S 
ATOM      4  C   UNL     1       4.174   6.739  17.395  0.00  0.00    +0.000 A 
ATOM      5  N   UNL     1       3.380   7.919  17.297  0.00  0.00    +0.000 N 
ATOM      6  C   UNL     1       2.399   8.242  18.191  0.00  0.00    +0.000 C 
ATOM      7  O   UNL     1       2.134   7.494  19.122  0.00  0.00    +0.000 OA
ATOM      8  N   UNL     1       4.161   5.898  18.454  0.00  0.00    +0.000 NA
ATOM      9  H   UNL     1       3.556   8.546  16.498  0.00  0.00    +0.000 HD
ENDROOT
BRANCH   1  10
ATOM     10  C   UNL     1       5.204   3.813  19.349  0.00  0.00    +0.000 C 
BRANCH  10  11
ATOM     11  C   UNL     1       3.900   3.106  19.559  0.00  0.00    +0.000 C 
ATOM     12  O   UNL     1       3.672   2.544  20.621  0.00  0.00    +0.000 OA
BRANCH  11  13
ATOM     13  O   UNL     1       2.999   3.069  18.542  0.00  0.00    +0.000 OA
BRANCH  13  15
ATOM     14  C   UNL     1       0.707   2.473  18.803  0.00  0.00    +0.000 C 
ATOM     15  C   UNL     1       2.098   2.045  18.334  0.00  0.00    +0.000 C 
ENDBRANCH  13  15
ENDBRANCH  11  13
ENDBRANCH  10  11
ENDBRANCH   1  10
BRANCH   6  16
ATOM     16  C   UNL     1       1.607   9.513  18.045  0.00  0.00    +0.000 C 
BRANCH  16  17
ATOM     17  S   UNL     1       0.769   9.865  19.628  0.00  0.00    +0.000 S 
BRANCH  17  18
ATOM     18  C   UNL     1      -0.750  10.452  18.884  0.00  0.00    +0.000 A 
ATOM     19  N   UNL     1      -1.144   9.960  17.682  0.00  0.00    +0.000 NA
ATOM     20  C   UNL     1      -2.272  10.414  17.074  0.00  0.00    +0.000 A 
ATOM     21  C   UNL     1      -2.683   9.848  15.754  0.00  0.00    +0.000 C 
ATOM     22  C   UNL     1      -3.036  11.411  17.688  0.00  0.00    +0.000 A 
ATOM     23  C   UNL     1      -2.613  11.910  18.925  0.00  0.00    +0.000 A 
ATOM     24  N   UNL     1      -1.481  11.423  19.495  0.00  0.00    +0.000 NA
BRANCH  23  25
ATOM     25  O   UNL     1      -3.313  12.877  19.554  0.00  0.00    +0.000 OA
ATOM     26  H   UNL     1      -4.227  12.743  19.848  0.00  0.00    +0.000 HD
ENDBRANCH  23  25
ENDBRANCH  17  18
ENDBRANCH  16  17
ENDBRANCH   6  16
TORSDOF 8
ENDMDL
MODEL 8
REMARK VINA RESULT:      -6.5      4.820      7.849
REMARK  Name = 
REMARK  10 active torsions:
REMARK  status: ('A' for Active; 'I' for Inactive)
REMARK    1  A    between atoms: C_1  and  C_2
REMARK    2  A    between atoms: C_2  and  O_3
REMARK    3  A    between atoms: O_3  and  C_4
REMARK    4  A    between atoms: C_4  and  C_6
REMARK    5  A    between atoms: C_6  and  C_7
REMARK    6  A    between atoms: C_12  and  C_14
REMARK    7  A    between atoms: C_14  and  S_15
REMARK    8  A    between atoms: S_15  and  C_16
REMARK    9  A    between atoms: C_18  and  C_19
REMARK   10  A    between atoms: C_21  and  O_22
REMARK                            x       y       z     vdW  Elec       q    Type
REMARK                         _______ _______ _______ _____ _____    ______ ____
ROOT
ATOM      1  C   UNL     1       5.568   4.865  18.458  0.00  0.00    +0.000 A 
ATOM      2  C   UNL     1       4.981   3.780  19.104  0.00  0.00    +0.000 A 
ATOM      3  S   UNL     1       3.344   4.121  19.314  0.00  0.00    +0.000 S 
ATOM      4  C   UNL     1       3.462   5.639  18.601  0.00  0.00    +0.000 A 
ATOM      5  N   UNL     1       2.365   6.536  18.441  0.00  0.00    +0.000 N 
ATOM      6  C   UNL     1       2.504   7.821  18.000  0.00  0.00    +0.000 C 
ATOM      7  O   UNL     1       3.610   8.277  17.746  0.00  0.00    +0.000 OA
ATOM      8  N   UNL     1       4.724   5.896  18.187  0.00  0.00    +0.000 NA
ATOM      9  H   UNL     1       1.427   6.189  18.688  0.00  0.00    +0.000 HD
ENDROOT
BRANCH   1  10
ATOM     10  C   UNL     1       7.013   4.909  18.057  0.00  0.00    +0.000 C 
BRANCH  10  11
ATOM     11  C   UNL     1       7.095   5.121  16.577  0.00  0.00    +0.000 C 
ATOM     12  O   UNL     1       7.479   6.194  16.132  0.00  0.00    +0.000 OA
BRANCH  11  13
ATOM     13  O   UNL     1       6.701   4.121  15.745  0.00  0.00    +0.000 OA
BRANCH  13  15
ATOM     14  C   UNL     1       6.120   3.823  13.454  0.00  0.00    +0.000 C 
ATOM     15  C   UNL     1       5.650   4.214  14.854  0.00  0.00    +0.000 C 
ENDBRANCH  13  15
ENDBRANCH  11  13
ENDBRANCH  10  11
ENDBRANCH   1  10
BRANCH   6  16
ATOM     16  C   UNL     1       1.305   8.715  17.834  0.00  0.00    +0.000 C 
BRANCH  16  17
ATOM     17  S   UNL     1       1.744  10.394  18.404  0.00  0.00    +0.000 S 
BRANCH  17  18
ATOM     18  C   UNL     1       0.055  10.964  18.557  0.00  0.00    +0.000 A 
ATOM     19  N   UNL     1      -0.956  10.218  18.041  0.00  0.00    +0.000 NA
ATOM     20  C   UNL     1      -2.245  10.643  18.109  0.00  0.00    +0.000 A 
ATOM     21  C   UNL     1      -3.337   9.797  17.538  0.00  0.00    +0.000 C 
ATOM     22  C   UNL     1      -2.540  11.872  18.708  0.00  0.00    +0.000 A 
ATOM     23  C   UNL     1      -1.485  12.629  19.230  0.00  0.00    +0.000 A 
ATOM     24  N   UNL     1      -0.214  12.162  19.143  0.00  0.00    +0.000 NA
BRANCH  23  25
ATOM     25  O   UNL     1      -1.718  13.824  19.813  0.00  0.00    +0.000 OA
ATOM     26  H   UNL     1      -2.443  14.402  19.532  0.00  0.00    +0.000 HD
ENDBRANCH  23  25
ENDBRANCH  17  18
ENDBRANCH  16  17
ENDBRANCH   6  16
TORSDOF 8
ENDMDL
MODEL 9
REMARK VINA RESULT:      -6.5      3.836      5.241
REMARK  Name = 
REMARK  10 active torsions:
REMARK  status: ('A' for Active; 'I' for Inactive)
REMARK    1  A    between atoms: C_1  and  C_2
REMARK    2  A    between atoms: C_2  and  O_3
REMARK    3  A    between atoms: O_3  and  C_4
REMARK    4  A    between atoms: C_4  and  C_6
REMARK    5  A    between atoms: C_6  and  C_7
REMARK    6  A    between atoms: C_12  and  C_14
REMARK    7  A    between atoms: C_14  and  S_15
REMARK    8  A    between atoms: S_15  and  C_16
REMARK    9  A    between atoms: C_18  and  C_19
REMARK   10  A    between atoms: C_21  and  O_22
REMARK                            x       y       z     vdW  Elec       q    Type
REMARK                         _______ _______ _______ _____ _____    ______ ____
ROOT
ATOM      1  C   UNL     1       1.134   8.736  20.286  0.00  0.00    +0.000 A 
ATOM      2  C   UNL     1       1.159   9.610  19.202  0.00  0.00    +0.000 A 
ATOM      3  S   UNL     1       1.974   8.850  17.937  0.00  0.00    +0.000 S 
ATOM      4  C   UNL     1       2.280   7.459  18.832  0.00  0.00    +0.000 A 
ATOM      5  N   UNL     1       2.986   6.325  18.333  0.00  0.00    +0.000 N 
ATOM      6  C   UNL     1       3.358   5.269  19.114  0.00  0.00    +0.000 C 
ATOM      7  O   UNL     1       3.122   5.266  20.314  0.00  0.00    +0.000 OA
ATOM      8  N   UNL     1       1.762   7.547  20.079  0.00  0.00    +0.000 NA
ATOM      9  H   UNL     1       3.233   6.321  17.333  0.00  0.00    +0.000 HD
ENDROOT
BRANCH   1  10
ATOM     10  C   UNL     1       0.452   9.045  21.586  0.00  0.00    +0.000 C 
BRANCH  10  11
ATOM     11  C   UNL     1       0.287  10.529  21.700  0.00  0.00    +0.000 C 
ATOM     12  O   UNL     1       1.265  11.261  21.629  0.00  0.00    +0.000 OA
BRANCH  11  13
ATOM     13  O   UNL     1      -0.953  11.040  21.922  0.00  0.00    +0.000 OA
BRANCH  13  15
ATOM     14  C   UNL     1      -2.784  12.143  22.973  0.00  0.00    +0.000 C 
ATOM     15  C   UNL     1      -1.286  11.845  22.994  0.00  0.00    +0.000 C 
ENDBRANCH  13  15
ENDBRANCH  11  13
ENDBRANCH  10  11
ENDBRANCH   1  10
BRANCH   6  16
ATOM     16  C   UNL     1       4.086   4.090  18.525  0.00  0.00    +0.000 C 
BRANCH  16  17
ATOM     17  S   UNL     1       4.935   4.630  17.002  0.00  0.00    +0.000 S 
BRANCH  17  18
ATOM     18  C   UNL     1       6.223   5.543  17.844  0.00  0.00    +0.000 A 
ATOM     19  N   UNL     1       6.627   6.743  17.354  0.00  0.00    +0.000 NA
ATOM     20  C   UNL     1       7.629   7.442  17.949  0.00  0.00    +0.000 A 
ATOM     21  C   UNL     1       8.046   8.764  17.390  0.00  0.00    +0.000 C 
ATOM     22  C   UNL     1       8.264   6.917  19.079  0.00  0.00    +0.000 A 
ATOM     23  C   UNL     1       7.838   5.677  19.568  0.00  0.00    +0.000 A 
ATOM     24  N   UNL     1       6.831   5.017  18.941  0.00  0.00    +0.000 NA
BRANCH  23  25
ATOM     25  O   UNL     1       8.424   5.126  20.651  0.00  0.00    +0.000 OA
ATOM     26  H   UNL     1       8.084   4.319  21.067  0.00  0.00    +0.000 HD
ENDBRANCH  23  25
ENDBRANCH  17  18
ENDBRANCH  16  17
ENDBRANCH   6  16
TORSDOF 8
ENDMDL
