MODEL 1
REMARK VINA RESULT:      -8.2      0.000      0.000
REMARK  Name = 
REMARK  9 active torsions:
REMARK  status: ('A' for Active; 'I' for Inactive)
REMARK    1  A    between atoms: C_1  and  C_2
REMARK    2  A    between atoms: C_2  and  C_19
REMARK    3  A    between atoms: C_3  and  C_4
REMARK    4  A    between atoms: C_4  and  O_5
REMARK    5  A    between atoms: O_5  and  C_6
REMARK    6  A    between atoms: N_8  and  C_9
REMARK    7  A    between atoms: C_12  and  C_13
REMARK    8  A    between atoms: C_23  and  C_24
REMARK    9  A    between atoms: C_23  and  C_25
REMARK                            x       y       z     vdW  Elec       q    Type
REMARK                         _______ _______ _______ _____ _____    ______ ____
ROOT
ATOM      1  C   UNL     1       2.130   4.724  20.506  0.00  0.00    +0.000 C 
ATOM      2  O   UNL     1       0.918   4.561  20.481  0.00  0.00    +0.000 OA
ATOM      3  N   UNL     1       2.807   5.860  20.138  0.00  0.00    +0.000 N 
ATOM      4  H   UNL     1       3.810   5.753  20.056  0.00  0.00    +0.000 HD
ENDROOT
BRANCH   3   5
ATOM      5  C   UNL     1       2.227   7.108  19.838  0.00  0.00    +0.000 A 
ATOM      6  C   UNL     1       1.542   7.860  20.792  0.00  0.00    +0.000 A 
ATOM      7  C   UNL     1       0.977   9.096  20.464  0.00  0.00    +0.000 A 
ATOM      8  C   UNL     1       1.096   9.604  19.174  0.00  0.00    +0.000 A 
ATOM      9  C   UNL     1       1.797   8.855  18.216  0.00  0.00    +0.000 A 
ATOM     10  C   UNL     1       2.370   7.619  18.550  0.00  0.00    +0.000 A 
BRANCH   8  11
ATOM     11  C   UNL     1       0.484  10.941  18.826  0.00  0.00    +0.000 C 
ATOM     12  F   UNL     1       1.359  11.818  18.270  0.00  0.00    +0.000 F 
ATOM     13  F   UNL     1      -0.547  10.825  17.938  0.00  0.00    +0.000 F 
ATOM     14  F   UNL     1      -0.039  11.573  19.918  0.00  0.00    +0.000 F 
ENDBRANCH   8  11
ENDBRANCH   3   5
BRANCH   1  15
ATOM     15  O   UNL     1       3.020   3.762  20.878  0.00  0.00    +0.000 OA
BRANCH  15  16
ATOM     16  C   UNL     1       3.008   2.595  20.039  0.00  0.00    +0.000 C 
BRANCH  16  19
ATOM     17  C   UNL     1       2.579   3.409  17.137  0.00  0.00    +0.000 C 
ATOM     18  C   UNL     1       3.902   3.292  17.833  0.00  0.00    +0.000 C 
ATOM     19  C   UNL     1       4.101   2.701  19.029  0.00  0.00    +0.000 C 
BRANCH  18  20
ATOM     20  C   UNL     1       4.986   4.079  17.313  0.00  0.00    +0.000 C 
ATOM     21  C   UNL     1       5.771   3.680  16.311  0.00  0.00    +0.000 C 
ATOM     22  C   UNL     1       6.537   4.883  16.050  0.00  0.00    +0.000 C 
ATOM     23  O   UNL     1       7.446   4.931  15.237  0.00  0.00    +0.000 OA
ATOM     24  C   UNL     1       5.969   6.024  16.864  0.00  0.00    +0.000 C 
ATOM     25  C   UNL     1       5.008   6.858  16.022  0.00  0.00    +0.000 C 
ATOM     26  C   UNL     1       7.043   6.831  17.564  0.00  0.00    +0.000 C 
ATOM     27  O   UNL     1       5.170   5.335  17.854  0.00  0.00    +0.000 OA
ENDBRANCH  18  20
ENDBRANCH  16  19
ENDBRANCH  15  16
ENDBRANCH   1  15
TORSDOF 6
ENDMDL
MODEL 2
REMARK VINA RESULT:      -8.1      0.938      1.597
REMARK  Name = 
REMARK  9 active torsions:
REMARK  status: ('A' for Active; 'I' for Inactive)
REMARK    1  A    between atoms: C_1  and  C_2
REMARK    2  A    between atoms: C_2  and  C_19
REMARK    3  A    between atoms: C_3  and  C_4
REMARK    4  A    between atoms: C_4  and  O_5
REMARK    5  A    between atoms: O_5  and  C_6
REMARK    6  A    between atoms: N_8  and  C_9
REMARK    7  A    between atoms: C_12  and  C_13
REMARK    8  A    between atoms: C_23  and  C_24
REMARK    9  A    between atoms: C_23  and  C_25
REMARK                            x       y       z     vdW  Elec       q    Type
REMARK                         _______ _______ _______ _____ _____    ______ ____
ROOT
ATOM      1  C   UNL     1       2.133   4.981  20.543  0.00  0.00    +0.000 C 
ATOM      2  O   UNL     1       0.947   4.715  20.402  0.00  0.00    +0.000 OA
ATOM      3  N   UNL     1       2.736   6.183  20.273  0.00  0.00    +0.000 N 
ATOM      4  H   UNL     1       3.748   6.166  20.281  0.00  0.00    +0.000 HD
ENDROOT
BRANCH   3   5
ATOM      5  C   UNL     1       2.076   7.388  19.958  0.00  0.00    +0.000 A 
ATOM      6  C   UNL     1       1.332   8.097  20.900  0.00  0.00    +0.000 A 
ATOM      7  C   UNL     1       0.688   9.290  20.557  0.00  0.00    +0.000 A 
ATOM      8  C   UNL     1       0.785   9.796  19.264  0.00  0.00    +0.000 A 
ATOM      9  C   UNL     1       1.545   9.090  18.320  0.00  0.00    +0.000 A 
ATOM     10  C   UNL     1       2.197   7.899  18.668  0.00  0.00    +0.000 A 
BRANCH   8  11
ATOM     11  C   UNL     1       0.088  11.086  18.901  0.00  0.00    +0.000 C 
ATOM     12  F   UNL     1      -0.874  10.944  17.953  0.00  0.00    +0.000 F 
ATOM     13  F   UNL     1      -0.526  11.665  19.975  0.00  0.00    +0.000 F 
ATOM     14  F   UNL     1       0.953  12.028  18.420  0.00  0.00    +0.000 F 
ENDBRANCH   8  11
ENDBRANCH   3   5
BRANCH   1  15
ATOM     15  O   UNL     1       3.069   4.085  20.967  0.00  0.00    +0.000 OA
BRANCH  15  16
ATOM     16  C   UNL     1       3.084   2.856  20.223  0.00  0.00    +0.000 C 
BRANCH  16  19
ATOM     17  C   UNL     1       2.241   3.066  17.305  0.00  0.00    +0.000 C 
ATOM     18  C   UNL     1       3.619   3.310  17.844  0.00  0.00    +0.000 C 
ATOM     19  C   UNL     1       4.039   2.981  19.083  0.00  0.00    +0.000 C 
BRANCH  18  20
ATOM     20  C   UNL     1       4.475   4.177  17.082  0.00  0.00    +0.000 C 
ATOM     21  C   UNL     1       4.373   5.507  17.093  0.00  0.00    +0.000 C 
ATOM     22  C   UNL     1       5.557   5.892  16.351  0.00  0.00    +0.000 C 
ATOM     23  O   UNL     1       5.813   7.049  16.058  0.00  0.00    +0.000 OA
ATOM     24  C   UNL     1       6.412   4.670  16.102  0.00  0.00    +0.000 C 
ATOM     25  C   UNL     1       7.515   4.563  17.151  0.00  0.00    +0.000 C 
ATOM     26  C   UNL     1       6.903   4.584  14.672  0.00  0.00    +0.000 C 
ATOM     27  O   UNL     1       5.487   3.586  16.354  0.00  0.00    +0.000 OA
ENDBRANCH  18  20
ENDBRANCH  16  19
ENDBRANCH  15  16
ENDBRANCH   1  15
TORSDOF 6
ENDMDL
MODEL 3
REMARK VINA RESULT:      -8.0      0.950      1.867
REMARK  Name = 
REMARK  9 active torsions:
REMARK  status: ('A' for Active; 'I' for Inactive)
REMARK    1  A    between atoms: C_1  and  C_2
REMARK    2  A    between atoms: C_2  and  C_19
REMARK    3  A    between atoms: C_3  and  C_4
REMARK    4  A    between atoms: C_4  and  O_5
REMARK    5  A    between atoms: O_5  and  C_6
REMARK    6  A    between atoms: N_8  and  C_9
REMARK    7  A    between atoms: C_12  and  C_13
REMARK    8  A    between atoms: C_23  and  C_24
REMARK    9  A    between atoms: C_23  and  C_25
REMARK                            x       y       z     vdW  Elec       q    Type
REMARK                         _______ _______ _______ _____ _____    ______ ____
ROOT
ATOM      1  C   UNL     1       2.138   4.984  20.573  0.00  0.00    +0.000 C 
ATOM      2  O   UNL     1       0.942   4.737  20.489  0.00  0.00    +0.000 OA
ATOM      3  N   UNL     1       2.751   6.165  20.240  0.00  0.00    +0.000 N 
ATOM      4  H   UNL     1       3.762   6.128  20.207  0.00  0.00    +0.000 HD
ENDROOT
BRANCH   3   5
ATOM      5  C   UNL     1       2.100   7.372  19.913  0.00  0.00    +0.000 A 
ATOM      6  C   UNL     1       2.156   7.925  18.634  0.00  0.00    +0.000 A 
ATOM      7  C   UNL     1       1.500   9.124  18.341  0.00  0.00    +0.000 A 
ATOM      8  C   UNL     1       0.771   9.786  19.323  0.00  0.00    +0.000 A 
ATOM      9  C   UNL     1       0.703   9.224  20.607  0.00  0.00    +0.000 A 
ATOM     10  C   UNL     1       1.354   8.016  20.897  0.00  0.00    +0.000 A 
BRANCH   8  11
ATOM     11  C   UNL     1       0.064  11.082  18.999  0.00  0.00    +0.000 C 
ATOM     12  F   UNL     1      -0.513  11.678  20.074  0.00  0.00    +0.000 F 
ATOM     13  F   UNL     1       0.906  12.012  18.461  0.00  0.00    +0.000 F 
ATOM     14  F   UNL     1      -0.934  10.914  18.082  0.00  0.00    +0.000 F 
ENDBRANCH   8  11
ENDBRANCH   3   5
BRANCH   1  15
ATOM     15  O   UNL     1       3.074   4.084  20.987  0.00  0.00    +0.000 OA
BRANCH  15  16
ATOM     16  C   UNL     1       3.067   2.850  20.251  0.00  0.00    +0.000 C 
BRANCH  16  19
ATOM     17  C   UNL     1       2.165   3.140  17.358  0.00  0.00    +0.000 C 
ATOM     18  C   UNL     1       3.563   3.326  17.868  0.00  0.00    +0.000 C 
ATOM     19  C   UNL     1       3.999   2.960  19.091  0.00  0.00    +0.000 C 
BRANCH  18  20
ATOM     20  C   UNL     1       4.432   4.176  17.101  0.00  0.00    +0.000 C 
ATOM     21  C   UNL     1       4.342   5.507  17.095  0.00  0.00    +0.000 C 
ATOM     22  C   UNL     1       5.535   5.871  16.356  0.00  0.00    +0.000 C 
ATOM     23  O   UNL     1       5.803   7.022  16.050  0.00  0.00    +0.000 OA
ATOM     24  C   UNL     1       6.379   4.638  16.128  0.00  0.00    +0.000 C 
ATOM     25  C   UNL     1       7.474   4.534  17.184  0.00  0.00    +0.000 C 
ATOM     26  C   UNL     1       6.878   4.530  14.702  0.00  0.00    +0.000 C 
ATOM     27  O   UNL     1       5.442   3.566  16.387  0.00  0.00    +0.000 OA
ENDBRANCH  18  20
ENDBRANCH  16  19
ENDBRANCH  15  16
ENDBRANCH   1  15
TORSDOF 6
ENDMDL
MODEL 4
REMARK VINA RESULT:      -7.8      1.033      1.853
REMARK  Name = 
REMARK  9 active torsions:
REMARK  status: ('A' for Active; 'I' for Inactive)
REMARK    1  A    between atoms: C_1  and  C_2
REMARK    2  A    between atoms: C_2  and  C_19
REMARK    3  A    between atoms: C_3  and  C_4
REMARK    4  A    between atoms: C_4  and  O_5
REMARK    5  A    between atoms: O_5  and  C_6
REMARK    6  A    between atoms: N_8  and  C_9
REMARK    7  A    between atoms: C_12  and  C_13
REMARK    8  A    between atoms: C_23  and  C_24
REMARK    9  A    between atoms: C_23  and  C_25
REMARK                            x       y       z     vdW  Elec       q    Type
REMARK                         _______ _______ _______ _____ _____    ______ ____
ROOT
ATOM      1  C   UNL     1       1.731   4.419  20.846  0.00  0.00    +0.000 C 
ATOM      2  O   UNL     1       0.642   4.266  20.309  0.00  0.00    +0.000 OA
ATOM      3  N   UNL     1       2.525   5.535  20.772  0.00  0.00    +0.000 N 
ATOM      4  H   UNL     1       3.465   5.416  21.130  0.00  0.00    +0.000 HD
ENDROOT
BRANCH   3   5
ATOM      5  C   UNL     1       2.158   6.777  20.219  0.00  0.00    +0.000 A 
ATOM      6  C   UNL     1       2.493   7.140  18.914  0.00  0.00    +0.000 A 
ATOM      7  C   UNL     1       2.114   8.381  18.394  0.00  0.00    +0.000 A 
ATOM      8  C   UNL     1       1.386   9.277  19.169  0.00  0.00    +0.000 A 
ATOM      9  C   UNL     1       1.035   8.908  20.477  0.00  0.00    +0.000 A 
ATOM     10  C   UNL     1       1.409   7.659  20.995  0.00  0.00    +0.000 A 
BRANCH   8  11
ATOM     11  C   UNL     1       0.978  10.616  18.600  0.00  0.00    +0.000 C 
ATOM     12  F   UNL     1      -0.205  10.593  17.933  0.00  0.00    +0.000 F 
ATOM     13  F   UNL     1       0.847  11.573  19.565  0.00  0.00    +0.000 F 
ATOM     14  F   UNL     1       1.897  11.107  17.717  0.00  0.00    +0.000 F 
ENDBRANCH   8  11
ENDBRANCH   3   5
BRANCH   1  15
ATOM     15  O   UNL     1       2.354   3.462  21.589  0.00  0.00    +0.000 OA
BRANCH  15  16
ATOM     16  C   UNL     1       2.810   2.332  20.828  0.00  0.00    +0.000 C 
BRANCH  16  19
ATOM     17  C   UNL     1       2.828   2.370  17.784  0.00  0.00    +0.000 C 
ATOM     18  C   UNL     1       3.875   2.964  18.679  0.00  0.00    +0.000 C 
ATOM     19  C   UNL     1       3.987   2.733  20.003  0.00  0.00    +0.000 C 
BRANCH  18  20
ATOM     20  C   UNL     1       4.655   4.046  18.144  0.00  0.00    +0.000 C 
ATOM     21  C   UNL     1       5.663   4.621  18.801  0.00  0.00    +0.000 C 
ATOM     22  C   UNL     1       6.222   5.479  17.775  0.00  0.00    +0.000 C 
ATOM     23  O   UNL     1       7.139   6.257  17.983  0.00  0.00    +0.000 OA
ATOM     24  C   UNL     1       5.554   5.178  16.453  0.00  0.00    +0.000 C 
ATOM     25  C   UNL     1       6.399   4.211  15.630  0.00  0.00    +0.000 C 
ATOM     26  C   UNL     1       5.144   6.432  15.708  0.00  0.00    +0.000 C 
ATOM     27  O   UNL     1       4.367   4.457  16.859  0.00  0.00    +0.000 OA
ENDBRANCH  18  20
ENDBRANCH  16  19
ENDBRANCH  15  16
ENDBRANCH   1  15
TORSDOF 6
ENDMDL
MODEL 5
REMARK VINA RESULT:      -7.7      5.658      7.844
REMARK  Name = 
REMARK  9 active torsions:
REMARK  status: ('A' for Active; 'I' for Inactive)
REMARK    1  A    between atoms: C_1  and  C_2
REMARK    2  A    between atoms: C_2  and  C_19
REMARK    3  A    between atoms: C_3  and  C_4
REMARK    4  A    between atoms: C_4  and  O_5
REMARK    5  A    between atoms: O_5  and  C_6
REMARK    6  A    between atoms: N_8  and  C_9
REMARK    7  A    between atoms: C_12  and  C_13
REMARK    8  A    between atoms: C_23  and  C_24
REMARK    9  A    between atoms: C_23  and  C_25
REMARK                            x       y       z     vdW  Elec       q    Type
REMARK                         _______ _______ _______ _____ _____    ______ ____
ROOT
ATOM      1  C   UNL     1       6.564   6.779  17.735  0.00  0.00    +0.000 C 
ATOM      2  O   UNL     1       7.139   6.023  18.506  0.00  0.00    +0.000 OA
ATOM      3  N   UNL     1       5.268   6.668  17.301  0.00  0.00    +0.000 N 
ATOM      4  H   UNL     1       5.020   7.279  16.533  0.00  0.00    +0.000 HD
ENDROOT
BRANCH   3   5
ATOM      5  C   UNL     1       4.302   5.771  17.798  0.00  0.00    +0.000 A 
ATOM      6  C   UNL     1       3.282   6.177  18.658  0.00  0.00    +0.000 A 
ATOM      7  C   UNL     1       2.338   5.262  19.135  0.00  0.00    +0.000 A 
ATOM      8  C   UNL     1       2.396   3.926  18.753  0.00  0.00    +0.000 A 
ATOM      9  C   UNL     1       3.414   3.519  17.877  0.00  0.00    +0.000 A 
ATOM     10  C   UNL     1       4.354   4.439  17.392  0.00  0.00    +0.000 A 
BRANCH   8  11
ATOM     11  C   UNL     1       1.372   2.944  19.271  0.00  0.00    +0.000 C 
ATOM     12  F   UNL     1       0.744   3.350  20.405  0.00  0.00    +0.000 F 
ATOM     13  F   UNL     1       0.382   2.697  18.362  0.00  0.00    +0.000 F 
ATOM     14  F   UNL     1       1.918   1.726  19.561  0.00  0.00    +0.000 F 
ENDBRANCH   8  11
ENDBRANCH   3   5
BRANCH   1  15
ATOM     15  O   UNL     1       7.154   7.858  17.146  0.00  0.00    +0.000 OA
BRANCH  15  16
ATOM     16  C   UNL     1       8.281   8.377  17.869  0.00  0.00    +0.000 C 
BRANCH  16  19
ATOM     17  C   UNL     1       9.269  10.230  20.073  0.00  0.00    +0.000 C 
ATOM     18  C   UNL     1       8.952  10.629  18.662  0.00  0.00    +0.000 C 
ATOM     19  C   UNL     1       8.290   9.866  17.769  0.00  0.00    +0.000 C 
BRANCH  18  20
ATOM     20  C   UNL     1       9.616  11.796  18.148  0.00  0.00    +0.000 C 
ATOM     21  C   UNL     1       9.031  12.990  18.047  0.00  0.00    +0.000 C 
ATOM     22  C   UNL     1      10.155  13.830  17.681  0.00  0.00    +0.000 C 
ATOM     23  O   UNL     1      10.042  15.015  17.411  0.00  0.00    +0.000 OA
ATOM     24  C   UNL     1      11.432  13.027  17.780  0.00  0.00    +0.000 C 
ATOM     25  C   UNL     1      12.119  13.272  19.120  0.00  0.00    +0.000 C 
ATOM     26  C   UNL     1      12.333  13.215  16.577  0.00  0.00    +0.000 C 
ATOM     27  O   UNL     1      10.945  11.665  17.802  0.00  0.00    +0.000 OA
ENDBRANCH  18  20
ENDBRANCH  16  19
ENDBRANCH  15  16
ENDBRANCH   1  15
TORSDOF 6
ENDMDL
MODEL 6
REMARK VINA RESULT:      -7.5      0.469      1.312
REMARK  Name = 
REMARK  9 active torsions:
REMARK  status: ('A' for Active; 'I' for Inactive)
REMARK    1  A    between atoms: C_1  and  C_2
REMARK    2  A    between atoms: C_2  and  C_19
REMARK    3  A    between atoms: C_3  and  C_4
REMARK    4  A    between atoms: C_4  and  O_5
REMARK    5  A    between atoms: O_5  and  C_6
REMARK    6  A    between atoms: N_8  and  C_9
REMARK    7  A    between atoms: C_12  and  C_13
REMARK    8  A    between atoms: C_23  and  C_24
REMARK    9  A    between atoms: C_23  and  C_25
REMARK                            x       y       z     vdW  Elec       q    Type
REMARK                         _______ _______ _______ _____ _____    ______ ____
ROOT
ATOM      1  C   UNL     1       2.449   4.460  20.580  0.00  0.00    +0.000 C 
ATOM      2  O   UNL     1       1.258   4.382  20.850  0.00  0.00    +0.000 OA
ATOM      3  N   UNL     1       3.077   5.514  19.966  0.00  0.00    +0.000 N 
ATOM      4  H   UNL     1       4.026   5.330  19.665  0.00  0.00    +0.000 HD
ENDROOT
BRANCH   3   5
ATOM      5  C   UNL     1       2.508   6.775  19.698  0.00  0.00    +0.000 A 
ATOM      6  C   UNL     1       2.555   7.358  18.432  0.00  0.00    +0.000 A 
ATOM      7  C   UNL     1       1.981   8.611  18.197  0.00  0.00    +0.000 A 
ATOM      8  C   UNL     1       1.344   9.298  19.226  0.00  0.00    +0.000 A 
ATOM      9  C   UNL     1       1.284   8.706  20.496  0.00  0.00    +0.000 A 
ATOM     10  C   UNL     1       1.853   7.445  20.728  0.00  0.00    +0.000 A 
BRANCH   8  11
ATOM     11  C   UNL     1       0.725  10.651  18.964  0.00  0.00    +0.000 C 
ATOM     12  F   UNL     1      -0.632  10.639  18.932  0.00  0.00    +0.000 F 
ATOM     13  F   UNL     1       1.070  11.572  19.912  0.00  0.00    +0.000 F 
ATOM     14  F   UNL     1       1.124  11.184  17.771  0.00  0.00    +0.000 F 
ENDBRANCH   8  11
ENDBRANCH   3   5
BRANCH   1  15
ATOM     15  O   UNL     1       3.350   3.467  20.821  0.00  0.00    +0.000 OA
BRANCH  15  16
ATOM     16  C   UNL     1       3.247   2.350  19.924  0.00  0.00    +0.000 C 
BRANCH  16  19
ATOM     17  C   UNL     1       2.601   3.434  17.154  0.00  0.00    +0.000 C 
ATOM     18  C   UNL     1       3.974   3.202  17.711  0.00  0.00    +0.000 C 
ATOM     19  C   UNL     1       4.250   2.500  18.829  0.00  0.00    +0.000 C 
BRANCH  18  20
ATOM     20  C   UNL     1       5.044   3.987  17.161  0.00  0.00    +0.000 C 
ATOM     21  C   UNL     1       5.762   3.614  16.100  0.00  0.00    +0.000 C 
ATOM     22  C   UNL     1       6.538   4.811  15.844  0.00  0.00    +0.000 C 
ATOM     23  O   UNL     1       7.400   4.874  14.982  0.00  0.00    +0.000 OA
ATOM     24  C   UNL     1       6.044   5.929  16.734  0.00  0.00    +0.000 C 
ATOM     25  C   UNL     1       5.056   6.817  15.984  0.00  0.00    +0.000 C 
ATOM     26  C   UNL     1       7.174   6.684  17.402  0.00  0.00    +0.000 C 
ATOM     27  O   UNL     1       5.287   5.216  17.740  0.00  0.00    +0.000 OA
ENDBRANCH  18  20
ENDBRANCH  16  19
ENDBRANCH  15  16
ENDBRANCH   1  15
TORSDOF 6
ENDMDL
MODEL 7
REMARK VINA RESULT:      -7.4      4.658      7.202
REMARK  Name = 
REMARK  9 active torsions:
REMARK  status: ('A' for Active; 'I' for Inactive)
REMARK    1  A    between atoms: C_1  and  C_2
REMARK    2  A    between atoms: C_2  and  C_19
REMARK    3  A    between atoms: C_3  and  C_4
REMARK    4  A    between atoms: C_4  and  O_5
REMARK    5  A    between atoms: O_5  and  C_6
REMARK    6  A    between atoms: N_8  and  C_9
REMARK    7  A    between atoms: C_12  and  C_13
REMARK    8  A    between atoms: C_23  and  C_24
REMARK    9  A    between atoms: C_23  and  C_25
REMARK                            x       y       z     vdW  Elec       q    Type
REMARK                         _______ _______ _______ _____ _____    ______ ____
ROOT
ATOM      1  C   UNL     1       7.563   7.309  17.662  0.00  0.00    +0.000 C 
ATOM      2  O   UNL     1       8.139   6.765  18.594  0.00  0.00    +0.000 OA
ATOM      3  N   UNL     1       7.522   8.656  17.405  0.00  0.00    +0.000 N 
ATOM      4  H   UNL     1       6.855   8.937  16.697  0.00  0.00    +0.000 HD
ENDROOT
BRANCH   3   5
ATOM      5  C   UNL     1       8.283   9.647  18.057  0.00  0.00    +0.000 A 
ATOM      6  C   UNL     1       9.009   9.384  19.218  0.00  0.00    +0.000 A 
ATOM      7  C   UNL     1       9.755  10.389  19.842  0.00  0.00    +0.000 A 
ATOM      8  C   UNL     1       9.791  11.673  19.308  0.00  0.00    +0.000 A 
ATOM      9  C   UNL     1       9.072  11.935  18.132  0.00  0.00    +0.000 A 
ATOM     10  C   UNL     1       8.332  10.924  17.503  0.00  0.00    +0.000 A 
BRANCH   8  11
ATOM     11  C   UNL     1      10.600  12.754  19.987  0.00  0.00    +0.000 C 
ATOM     12  F   UNL     1      11.933  12.496  20.034  0.00  0.00    +0.000 F 
ATOM     13  F   UNL     1      10.473  13.964  19.367  0.00  0.00    +0.000 F 
ATOM     14  F   UNL     1      10.212  12.959  21.280  0.00  0.00    +0.000 F 
ENDBRANCH   8  11
ENDBRANCH   3   5
BRANCH   1  15
ATOM     15  O   UNL     1       6.822   6.643  16.732  0.00  0.00    +0.000 OA
BRANCH  15  16
ATOM     16  C   UNL     1       5.420   6.955  16.765  0.00  0.00    +0.000 C 
BRANCH  16  19
ATOM     17  C   UNL     1       2.731   7.703  17.980  0.00  0.00    +0.000 C 
ATOM     18  C   UNL     1       3.488   6.433  18.229  0.00  0.00    +0.000 C 
ATOM     19  C   UNL     1       4.775   6.215  17.888  0.00  0.00    +0.000 C 
BRANCH  18  20
ATOM     20  C   UNL     1       2.723   5.284  18.629  0.00  0.00    +0.000 C 
ATOM     21  C   UNL     1       1.963   4.578  17.791  0.00  0.00    +0.000 C 
ATOM     22  C   UNL     1       1.591   3.449  18.622  0.00  0.00    +0.000 C 
ATOM     23  O   UNL     1       0.817   2.579  18.256  0.00  0.00    +0.000 OA
ATOM     24  C   UNL     1       2.368   3.504  19.917  0.00  0.00    +0.000 C 
ATOM     25  C   UNL     1       3.603   2.610  19.842  0.00  0.00    +0.000 C 
ATOM     26  C   UNL     1       1.496   3.258  21.131  0.00  0.00    +0.000 C 
ATOM     27  O   UNL     1       2.842   4.872  19.940  0.00  0.00    +0.000 OA
ENDBRANCH  18  20
ENDBRANCH  16  19
ENDBRANCH  15  16
ENDBRANCH   1  15
TORSDOF 6
ENDMDL
MODEL 8
REMARK VINA RESULT:      -7.3      0.744      1.420
REMARK  Name = 
REMARK  9 active torsions:
REMARK  status: ('A' for Active; 'I' for Inactive)
REMARK    1  A    between atoms: C_1  and  C_2
REMARK    2  A    between atoms: C_2  and  C_19
REMARK    3  A    between atoms: C_3  and  C_4
REMARK    4  A    between atoms: C_4  and  O_5
REMARK    5  A    between atoms: O_5  and  C_6
REMARK    6  A    between atoms: N_8  and  C_9
REMARK    7  A    between atoms: C_12  and  C_13
REMARK    8  A    between atoms: C_23  and  C_24
REMARK    9  A    between atoms: C_23  and  C_25
REMARK                            x       y       z     vdW  Elec       q    Type
REMARK                         _______ _______ _______ _____ _____    ______ ____
ROOT
ATOM      1  C   UNL     1       2.046   5.143  20.233  0.00  0.00    +0.000 C 
ATOM      2  O   UNL     1       1.279   4.852  19.325  0.00  0.00    +0.000 OA
ATOM      3  N   UNL     1       2.390   6.409  20.633  0.00  0.00    +0.000 N 
ATOM      4  H   UNL     1       3.168   6.458  21.279  0.00  0.00    +0.000 HD
ENDROOT
BRANCH   3   5
ATOM      5  C   UNL     1       1.790   7.607  20.197  0.00  0.00    +0.000 A 
ATOM      6  C   UNL     1       2.030   8.144  18.933  0.00  0.00    +0.000 A 
ATOM      7  C   UNL     1       1.419   9.335  18.530  0.00  0.00    +0.000 A 
ATOM      8  C   UNL     1       0.550  10.005  19.385  0.00  0.00    +0.000 A 
ATOM      9  C   UNL     1       0.297   9.459  20.652  0.00  0.00    +0.000 A 
ATOM     10  C   UNL     1       0.904   8.260  21.052  0.00  0.00    +0.000 A 
BRANCH   8  11
ATOM     11  C   UNL     1      -0.108  11.291  18.942  0.00  0.00    +0.000 C 
ATOM     12  F   UNL     1      -0.789  11.929  19.929  0.00  0.00    +0.000 F 
ATOM     13  F   UNL     1       0.795  12.198  18.463  0.00  0.00    +0.000 F 
ATOM     14  F   UNL     1      -1.005  11.095  17.932  0.00  0.00    +0.000 F 
ENDBRANCH   8  11
ENDBRANCH   3   5
BRANCH   1  15
ATOM     15  O   UNL     1       2.722   4.227  20.981  0.00  0.00    +0.000 OA
BRANCH  15  16
ATOM     16  C   UNL     1       3.039   3.014  20.279  0.00  0.00    +0.000 C 
BRANCH  16  19
ATOM     17  C   UNL     1       3.310   2.277  17.338  0.00  0.00    +0.000 C 
ATOM     18  C   UNL     1       4.279   3.101  18.133  0.00  0.00    +0.000 C 
ATOM     19  C   UNL     1       4.280   3.217  19.477  0.00  0.00    +0.000 C 
BRANCH  18  20
ATOM     20  C   UNL     1       5.101   4.028  17.404  0.00  0.00    +0.000 C 
ATOM     21  C   UNL     1       5.344   3.926  16.097  0.00  0.00    +0.000 C 
ATOM     22  C   UNL     1       6.026   5.178  15.833  0.00  0.00    +0.000 C 
ATOM     23  O   UNL     1       6.501   5.462  14.745  0.00  0.00    +0.000 OA
ATOM     24  C   UNL     1       5.963   6.051  17.065  0.00  0.00    +0.000 C 
ATOM     25  C   UNL     1       4.811   7.046  16.960  0.00  0.00    +0.000 C 
ATOM     26  C   UNL     1       7.299   6.681  17.402  0.00  0.00    +0.000 C 
ATOM     27  O   UNL     1       5.607   5.106  18.101  0.00  0.00    +0.000 OA
ENDBRANCH  18  20
ENDBRANCH  16  19
ENDBRANCH  15  16
ENDBRANCH   1  15
TORSDOF 6
ENDMDL
MODEL 9
REMARK VINA RESULT:      -7.3      4.876      7.282
REMARK  Name = 
REMARK  9 active torsions:
REMARK  status: ('A' for Active; 'I' for Inactive)
REMARK    1  A    between atoms: C_1  and  C_2
REMARK    2  A    between atoms: C_2  and  C_19
REMARK    3  A    between atoms: C_3  and  C_4
REMARK    4  A    between atoms: C_4  and  O_5
REMARK    5  A    between atoms: O_5  and  C_6
REMARK    6  A    between atoms: N_8  and  C_9
REMARK    7  A    between atoms: C_12  and  C_13
REMARK    8  A    between atoms: C_23  and  C_24
REMARK    9  A    between atoms: C_23  and  C_25
REMARK                            x       y       z     vdW  Elec       q    Type
REMARK                         _______ _______ _______ _____ _____    ______ ____
ROOT
ATOM      1  C   UNL     1       7.837   7.685  17.764  0.00  0.00    +0.000 C 
ATOM      2  O   UNL     1       8.366   7.186  18.748  0.00  0.00    +0.000 OA
ATOM      3  N   UNL     1       7.778   9.022  17.462  0.00  0.00    +0.000 N 
ATOM      4  H   UNL     1       7.152   9.262  16.704  0.00  0.00    +0.000 HD
ENDROOT
BRANCH   3   5
ATOM      5  C   UNL     1       8.469  10.053  18.129  0.00  0.00    +0.000 A 
ATOM      6  C   UNL     1       8.515  11.358  17.638  0.00  0.00    +0.000 A 
ATOM      7  C   UNL     1       9.209  12.360  18.323  0.00  0.00    +0.000 A 
ATOM      8  C   UNL     1       9.864  12.072  19.516  0.00  0.00    +0.000 A 
ATOM      9  C   UNL     1       9.808  10.763  20.018  0.00  0.00    +0.000 A 
ATOM     10  C   UNL     1       9.104   9.762  19.334  0.00  0.00    +0.000 A 
BRANCH   8  11
ATOM     11  C   UNL     1      10.612  13.160  20.251  0.00  0.00    +0.000 C 
ATOM     12  F   UNL     1      10.368  14.410  19.780  0.00  0.00    +0.000 F 
ATOM     13  F   UNL     1      10.304  13.194  21.581  0.00  0.00    +0.000 F 
ATOM     14  F   UNL     1      11.966  12.994  20.191  0.00  0.00    +0.000 F 
ENDBRANCH   8  11
ENDBRANCH   3   5
BRANCH   1  15
ATOM     15  O   UNL     1       7.176   6.971  16.811  0.00  0.00    +0.000 OA
BRANCH  15  16
ATOM     16  C   UNL     1       5.745   7.033  16.917  0.00  0.00    +0.000 C 
BRANCH  16  19
ATOM     17  C   UNL     1       2.951   6.945  18.123  0.00  0.00    +0.000 C 
ATOM     18  C   UNL     1       3.967   5.843  18.172  0.00  0.00    +0.000 C 
ATOM     19  C   UNL     1       5.272   5.975  17.856  0.00  0.00    +0.000 C 
BRANCH  18  20
ATOM     20  C   UNL     1       3.471   4.502  18.320  0.00  0.00    +0.000 C 
ATOM     21  C   UNL     1       4.204   3.415  18.075  0.00  0.00    +0.000 C 
ATOM     22  C   UNL     1       3.331   2.365  18.563  0.00  0.00    +0.000 C 
ATOM     23  O   UNL     1       3.593   1.178  18.456  0.00  0.00    +0.000 OA
ATOM     24  C   UNL     1       2.147   2.986  19.268  0.00  0.00    +0.000 C 
ATOM     25  C   UNL     1       2.381   3.027  20.776  0.00  0.00    +0.000 C 
ATOM     26  C   UNL     1       0.831   2.357  18.861  0.00  0.00    +0.000 C 
ATOM     27  O   UNL     1       2.186   4.355  18.800  0.00  0.00    +0.000 OA
ENDBRANCH  18  20
ENDBRANCH  16  19
ENDBRANCH  15  16
ENDBRANCH   1  15
TORSDOF 6
ENDMDL
