MODEL 1
REMARK VINA RESULT:      -6.7      0.000      0.000
REMARK  Name = 
REMARK  5 active torsions:
REMARK  status: ('A' for Active; 'I' for Inactive)
REMARK    1  A    between atoms: C_1  and  O_2
REMARK    2  A    between atoms: O_2  and  C_3
REMARK    3  A    between atoms: C_5  and  O_6
REMARK    4  A    between atoms: C_14  and  O_15
REMARK    5  A    between atoms: C_21  and  C_22
REMARK                            x       y       z     vdW  Elec       q    Type
REMARK                         _______ _______ _______ _____ _____    ______ ____
ROOT
ATOM      1  C   UNL     1      -2.969  10.758  16.344  0.00  0.00    +0.000 A 
ATOM      2  C   UNL     1      -4.359  10.894  16.423  0.00  0.00    +0.000 A 
ATOM      3  C   UNL     1      -4.960  11.444  17.562  0.00  0.00    +0.000 A 
ATOM      4  C   UNL     1      -4.176  11.860  18.644  0.00  0.00    +0.000 A 
ATOM      5  C   UNL     1      -2.766  11.667  18.587  0.00  0.00    +0.000 A 
ATOM      6  C   UNL     1      -2.185  11.125  17.433  0.00  0.00    +0.000 A 
ATOM      7  C   UNL     1      -1.913  11.930  19.755  0.00  0.00    +0.000 C 
ATOM      8  C   UNL     1      -0.587  12.085  19.883  0.00  0.00    +0.000 C 
ATOM      9  C   UNL     1       0.057  12.404  21.220  0.00  0.00    +0.000 C 
ATOM     10  C   UNL     1      -0.686  13.463  22.062  0.00  0.00    +0.000 C 
ATOM     11  C   UNL     1      -1.493  12.934  23.264  0.00  0.00    +0.000 C 
ATOM     12  C   UNL     1      -2.457  14.019  23.793  0.00  0.00    +0.000 C 
ATOM     13  O   UNL     1      -2.129  15.210  23.831  0.00  0.00    +0.000 OA
ATOM     14  C   UNL     1      -3.831  13.589  24.297  0.00  0.00    +0.000 C 
ATOM     15  C   UNL     1      -4.928  13.873  23.264  0.00  0.00    +0.000 C 
ATOM     16  C   UNL     1      -5.595  12.597  22.718  0.00  0.00    +0.000 C 
ATOM     17  C   UNL     1      -6.431  12.860  21.444  0.00  0.00    +0.000 C 
ATOM     18  C   UNL     1      -7.877  12.417  21.661  0.00  0.00    +0.000 C 
ATOM     19  O   UNL     1      -5.883  12.105  20.324  0.00  0.00    +0.000 OA
ATOM     20  C   UNL     1      -4.769  12.649  19.762  0.00  0.00    +0.000 C 
ATOM     21  O   UNL     1      -4.213  13.661  20.182  0.00  0.00    +0.000 OA
ENDROOT
BRANCH   1  23
ATOM     22  C   UNL     1      -3.421  10.150  14.093  0.00  0.00    +0.000 C 
ATOM     23  O   UNL     1      -2.485  10.259  15.165  0.00  0.00    +0.000 OA
ENDBRANCH   1  23
BRANCH   3  24
ATOM     24  O   UNL     1      -6.317  11.602  17.590  0.00  0.00    +0.000 OA
ATOM     25  H   UNL     1      -6.731  10.792  17.932  0.00  0.00    +0.000 HD
ENDBRANCH   3  24
BRANCH  11  26
ATOM     26  O   UNL     1      -2.156  11.720  22.980  0.00  0.00    +0.000 OA
ATOM     27  H   UNL     1      -2.145  11.592  22.017  0.00  0.00    +0.000 HD
ENDBRANCH  11  26
TORSDOF 3
ENDMDL
MODEL 2
REMARK VINA RESULT:      -6.3     12.465     14.593
REMARK  Name = 
REMARK  5 active torsions:
REMARK  status: ('A' for Active; 'I' for Inactive)
REMARK    1  A    between atoms: C_1  and  O_2
REMARK    2  A    between atoms: O_2  and  C_3
REMARK    3  A    between atoms: C_5  and  O_6
REMARK    4  A    between atoms: C_14  and  O_15
REMARK    5  A    between atoms: C_21  and  C_22
REMARK                            x       y       z     vdW  Elec       q    Type
REMARK                         _______ _______ _______ _____ _____    ______ ____
ROOT
ATOM      1  C   UNL     1       8.184  13.952  25.062  0.00  0.00    +0.000 A 
ATOM      2  C   UNL     1       8.150  12.585  24.770  0.00  0.00    +0.000 A 
ATOM      3  C   UNL     1       8.569  12.110  23.521  0.00  0.00    +0.000 A 
ATOM      4  C   UNL     1       9.021  13.001  22.542  0.00  0.00    +0.000 A 
ATOM      5  C   UNL     1       8.998  14.397  22.818  0.00  0.00    +0.000 A 
ATOM      6  C   UNL     1       8.586  14.850  24.078  0.00  0.00    +0.000 A 
ATOM      7  C   UNL     1       9.302  15.386  21.774  0.00  0.00    +0.000 C 
ATOM      8  C   UNL     1       9.606  16.691  21.832  0.00  0.00    +0.000 C 
ATOM      9  C   UNL     1       9.932  17.494  20.585  0.00  0.00    +0.000 C 
ATOM     10  C   UNL     1      10.853  16.779  19.575  0.00  0.00    +0.000 C 
ATOM     11  C   UNL     1      10.173  16.228  18.306  0.00  0.00    +0.000 C 
ATOM     12  C   UNL     1      11.110  15.245  17.569  0.00  0.00    +0.000 C 
ATOM     13  O   UNL     1      12.328  15.443  17.501  0.00  0.00    +0.000 OA
ATOM     14  C   UNL     1      10.496  14.020  16.898  0.00  0.00    +0.000 C 
ATOM     15  C   UNL     1      10.700  12.753  17.737  0.00  0.00    +0.000 C 
ATOM     16  C   UNL     1       9.383  12.153  18.263  0.00  0.00    +0.000 C 
ATOM     17  C   UNL     1       9.608  11.107  19.380  0.00  0.00    +0.000 C 
ATOM     18  C   UNL     1       8.988   9.769  18.982  0.00  0.00    +0.000 C 
ATOM     19  O   UNL     1       8.979  11.556  20.616  0.00  0.00    +0.000 OA
ATOM     20  C   UNL     1       9.678  12.504  21.298  0.00  0.00    +0.000 C 
ATOM     21  O   UNL     1      10.726  13.005  20.898  0.00  0.00    +0.000 OA
ENDROOT
BRANCH   1  23
ATOM     22  C   UNL     1       7.058  13.325  27.057  0.00  0.00    +0.000 C 
ATOM     23  O   UNL     1       7.804  14.301  26.330  0.00  0.00    +0.000 OA
ENDBRANCH   1  23
BRANCH   3  24
ATOM     24  O   UNL     1       8.565  10.764  23.284  0.00  0.00    +0.000 OA
ATOM     25  H   UNL     1       8.631  10.286  24.128  0.00  0.00    +0.000 HD
ENDBRANCH   3  24
BRANCH  11  26
ATOM     26  O   UNL     1       8.906  15.666  18.569  0.00  0.00    +0.000 OA
ATOM     27  H   UNL     1       9.035  14.893  19.142  0.00  0.00    +0.000 HD
ENDBRANCH  11  26
TORSDOF 3
ENDMDL
MODEL 3
REMARK VINA RESULT:      -6.3      1.592      4.169
REMARK  Name = 
REMARK  5 active torsions:
REMARK  status: ('A' for Active; 'I' for Inactive)
REMARK    1  A    between atoms: C_1  and  O_2
REMARK    2  A    between atoms: O_2  and  C_3
REMARK    3  A    between atoms: C_5  and  O_6
REMARK    4  A    between atoms: C_14  and  O_15
REMARK    5  A    between atoms: C_21  and  C_22
REMARK                            x       y       z     vdW  Elec       q    Type
REMARK                         _______ _______ _______ _____ _____    ______ ____
ROOT
ATOM      1  C   UNL     1      -3.613  11.114  16.705  0.00  0.00    +0.000 A 
ATOM      2  C   UNL     1      -2.219  11.219  16.747  0.00  0.00    +0.000 A 
ATOM      3  C   UNL     1      -1.572  11.683  17.899  0.00  0.00    +0.000 A 
ATOM      4  C   UNL     1      -2.314  12.057  19.024  0.00  0.00    +0.000 A 
ATOM      5  C   UNL     1      -3.735  12.007  18.959  0.00  0.00    +0.000 A 
ATOM      6  C   UNL     1      -4.362  11.529  17.801  0.00  0.00    +0.000 A 
ATOM      7  C   UNL     1      -4.567  12.543  20.047  0.00  0.00    +0.000 C 
ATOM      8  C   UNL     1      -5.864  12.383  20.349  0.00  0.00    +0.000 C 
ATOM      9  C   UNL     1      -6.484  13.019  21.580  0.00  0.00    +0.000 C 
ATOM     10  C   UNL     1      -5.625  12.930  22.859  0.00  0.00    +0.000 C 
ATOM     11  C   UNL     1      -4.913  14.226  23.294  0.00  0.00    +0.000 C 
ATOM     12  C   UNL     1      -3.828  13.924  24.350  0.00  0.00    +0.000 C 
ATOM     13  O   UNL     1      -4.000  13.069  25.225  0.00  0.00    +0.000 OA
ATOM     14  C   UNL     1      -2.529  14.724  24.307  0.00  0.00    +0.000 C 
ATOM     15  C   UNL     1      -1.387  13.918  23.676  0.00  0.00    +0.000 C 
ATOM     16  C   UNL     1      -0.881  14.515  22.350  0.00  0.00    +0.000 C 
ATOM     17  C   UNL     1       0.004  13.530  21.552  0.00  0.00    +0.000 C 
ATOM     18  C   UNL     1       1.376  14.147  21.290  0.00  0.00    +0.000 C 
ATOM     19  O   UNL     1      -0.619  13.231  20.268  0.00  0.00    +0.000 OA
ATOM     20  C   UNL     1      -1.642  12.337  20.327  0.00  0.00    +0.000 C 
ATOM     21  O   UNL     1      -2.071  11.851  21.372  0.00  0.00    +0.000 OA
ENDROOT
BRANCH   1  23
ATOM     22  C   UNL     1      -3.198  10.204  14.551  0.00  0.00    +0.000 C 
ATOM     23  O   UNL     1      -4.137  10.598  15.550  0.00  0.00    +0.000 OA
ENDBRANCH   1  23
BRANCH   3  24
ATOM     24  O   UNL     1      -0.206  11.731  17.923  0.00  0.00    +0.000 OA
ATOM     25  H   UNL     1       0.120  12.079  17.076  0.00  0.00    +0.000 HD
ENDBRANCH   3  24
BRANCH  11  26
ATOM     26  O   UNL     1      -4.409  14.961  22.199  0.00  0.00    +0.000 OA
ATOM     27  H   UNL     1      -3.443  14.866  22.195  0.00  0.00    +0.000 HD
ENDBRANCH  11  26
TORSDOF 3
ENDMDL
MODEL 4
REMARK VINA RESULT:      -6.2     11.016     13.967
REMARK  Name = 
REMARK  5 active torsions:
REMARK  status: ('A' for Active; 'I' for Inactive)
REMARK    1  A    between atoms: C_1  and  O_2
REMARK    2  A    between atoms: O_2  and  C_3
REMARK    3  A    between atoms: C_5  and  O_6
REMARK    4  A    between atoms: C_14  and  O_15
REMARK    5  A    between atoms: C_21  and  C_22
REMARK                            x       y       z     vdW  Elec       q    Type
REMARK                         _______ _______ _______ _____ _____    ______ ____
ROOT
ATOM      1  C   UNL     1       6.523  12.773  23.398  0.00  0.00    +0.000 A 
ATOM      2  C   UNL     1       7.434  11.769  23.054  0.00  0.00    +0.000 A 
ATOM      3  C   UNL     1       8.414  11.996  22.079  0.00  0.00    +0.000 A 
ATOM      4  C   UNL     1       8.490  13.231  21.428  0.00  0.00    +0.000 A 
ATOM      5  C   UNL     1       7.524  14.232  21.735  0.00  0.00    +0.000 A 
ATOM      6  C   UNL     1       6.560  13.988  22.721  0.00  0.00    +0.000 A 
ATOM      7  C   UNL     1       7.453  15.484  20.967  0.00  0.00    +0.000 C 
ATOM      8  C   UNL     1       6.848  16.655  21.210  0.00  0.00    +0.000 C 
ATOM      9  C   UNL     1       6.969  17.833  20.260  0.00  0.00    +0.000 C 
ATOM     10  C   UNL     1       8.387  18.074  19.703  0.00  0.00    +0.000 C 
ATOM     11  C   UNL     1       8.625  17.649  18.240  0.00  0.00    +0.000 C 
ATOM     12  C   UNL     1      10.137  17.607  17.924  0.00  0.00    +0.000 C 
ATOM     13  O   UNL     1      10.916  18.446  18.389  0.00  0.00    +0.000 OA
ATOM     14  C   UNL     1      10.657  16.511  16.999  0.00  0.00    +0.000 C 
ATOM     15  C   UNL     1      11.331  15.379  17.783  0.00  0.00    +0.000 C 
ATOM     16  C   UNL     1      10.588  14.035  17.672  0.00  0.00    +0.000 C 
ATOM     17  C   UNL     1      11.055  13.006  18.727  0.00  0.00    +0.000 C 
ATOM     18  C   UNL     1      11.556  11.737  18.040  0.00  0.00    +0.000 C 
ATOM     19  O   UNL     1       9.944  12.648  19.599  0.00  0.00    +0.000 OA
ATOM     20  C   UNL     1       9.654  13.569  20.558  0.00  0.00    +0.000 C 
ATOM     21  O   UNL     1      10.225  14.652  20.665  0.00  0.00    +0.000 OA
ENDROOT
BRANCH   1  23
ATOM     22  C   UNL     1       5.909  11.261  25.123  0.00  0.00    +0.000 C 
ATOM     23  O   UNL     1       5.644  12.463  24.400  0.00  0.00    +0.000 OA
ENDBRANCH   1  23
BRANCH   3  24
ATOM     24  O   UNL     1       9.316  11.008  21.799  0.00  0.00    +0.000 OA
ATOM     25  H   UNL     1      10.049  11.378  21.278  0.00  0.00    +0.000 HD
ENDBRANCH   3  24
BRANCH  11  26
ATOM     26  O   UNL     1       7.975  16.439  17.914  0.00  0.00    +0.000 OA
ATOM     27  H   UNL     1       7.043  16.522  18.173  0.00  0.00    +0.000 HD
ENDBRANCH  11  26
TORSDOF 3
ENDMDL
MODEL 5
REMARK VINA RESULT:      -6.2      1.207      1.393
REMARK  Name = 
REMARK  5 active torsions:
REMARK  status: ('A' for Active; 'I' for Inactive)
REMARK    1  A    between atoms: C_1  and  O_2
REMARK    2  A    between atoms: O_2  and  C_3
REMARK    3  A    between atoms: C_5  and  O_6
REMARK    4  A    between atoms: C_14  and  O_15
REMARK    5  A    between atoms: C_21  and  C_22
REMARK                            x       y       z     vdW  Elec       q    Type
REMARK                         _______ _______ _______ _____ _____    ______ ____
ROOT
ATOM      1  C   UNL     1      -4.291  11.136  17.097  0.00  0.00    +0.000 A 
ATOM      2  C   UNL     1      -5.578  11.104  17.645  0.00  0.00    +0.000 A 
ATOM      3  C   UNL     1      -5.827  11.636  18.916  0.00  0.00    +0.000 A 
ATOM      4  C   UNL     1      -4.788  12.202  19.662  0.00  0.00    +0.000 A 
ATOM      5  C   UNL     1      -3.468  12.180  19.129  0.00  0.00    +0.000 A 
ATOM      6  C   UNL     1      -3.243  11.654  17.851  0.00  0.00    +0.000 A 
ATOM      7  C   UNL     1      -2.314  12.609  19.934  0.00  0.00    +0.000 C 
ATOM      8  C   UNL     1      -1.056  12.932  19.601  0.00  0.00    +0.000 C 
ATOM      9  C   UNL     1      -0.048  13.398  20.636  0.00  0.00    +0.000 C 
ATOM     10  C   UNL     1      -0.598  14.401  21.672  0.00  0.00    +0.000 C 
ATOM     11  C   UNL     1      -0.875  13.841  23.081  0.00  0.00    +0.000 C 
ATOM     12  C   UNL     1      -1.739  14.826  23.899  0.00  0.00    +0.000 C 
ATOM     13  O   UNL     1      -1.580  16.048  23.813  0.00  0.00    +0.000 OA
ATOM     14  C   UNL     1      -2.793  14.257  24.845  0.00  0.00    +0.000 C 
ATOM     15  C   UNL     1      -4.202  14.349  24.246  0.00  0.00    +0.000 C 
ATOM     16  C   UNL     1      -4.837  12.974  23.970  0.00  0.00    +0.000 C 
ATOM     17  C   UNL     1      -6.080  13.063  23.055  0.00  0.00    +0.000 C 
ATOM     18  C   UNL     1      -7.295  12.458  23.756  0.00  0.00    +0.000 C 
ATOM     19  O   UNL     1      -5.845  12.323  21.822  0.00  0.00    +0.000 OA
ATOM     20  C   UNL     1      -5.070  12.969  20.910  0.00  0.00    +0.000 C 
ATOM     21  O   UNL     1      -4.545  14.063  21.106  0.00  0.00    +0.000 OA
ENDROOT
BRANCH   1  23
ATOM     22  C   UNL     1      -2.841  10.485  15.333  0.00  0.00    +0.000 C 
ATOM     23  O   UNL     1      -4.171  10.639  15.828  0.00  0.00    +0.000 OA
ENDBRANCH   1  23
BRANCH   3  24
ATOM     24  O   UNL     1      -7.105  11.627  19.403  0.00  0.00    +0.000 OA
ATOM     25  H   UNL     1      -7.380  10.711  19.573  0.00  0.00    +0.000 HD
ENDBRANCH   3  24
BRANCH  11  26
ATOM     26  O   UNL     1      -1.426  12.541  23.050  0.00  0.00    +0.000 OA
ATOM     27  H   UNL     1      -2.145  12.537  22.398  0.00  0.00    +0.000 HD
ENDBRANCH  11  26
TORSDOF 3
ENDMDL
MODEL 6
REMARK VINA RESULT:      -6.2      9.319     11.381
REMARK  Name = 
REMARK  5 active torsions:
REMARK  status: ('A' for Active; 'I' for Inactive)
REMARK    1  A    between atoms: C_1  and  O_2
REMARK    2  A    between atoms: O_2  and  C_3
REMARK    3  A    between atoms: C_5  and  O_6
REMARK    4  A    between atoms: C_14  and  O_15
REMARK    5  A    between atoms: C_21  and  C_22
REMARK                            x       y       z     vdW  Elec       q    Type
REMARK                         _______ _______ _______ _____ _____    ______ ____
ROOT
ATOM      1  C   UNL     1       6.254   4.138  14.395  0.00  0.00    +0.000 A 
ATOM      2  C   UNL     1       6.118   5.530  14.427  0.00  0.00    +0.000 A 
ATOM      3  C   UNL     1       5.384   6.153  15.444  0.00  0.00    +0.000 A 
ATOM      4  C   UNL     1       4.768   5.389  16.440  0.00  0.00    +0.000 A 
ATOM      5  C   UNL     1       4.856   3.970  16.373  0.00  0.00    +0.000 A 
ATOM      6  C   UNL     1       5.605   3.367  15.354  0.00  0.00    +0.000 A 
ATOM      7  C   UNL     1       4.093   3.114  17.294  0.00  0.00    +0.000 C 
ATOM      8  C   UNL     1       4.200   1.816  17.612  0.00  0.00    +0.000 C 
ATOM      9  C   UNL     1       3.302   1.169  18.651  0.00  0.00    +0.000 C 
ATOM     10  C   UNL     1       3.072   2.009  19.924  0.00  0.00    +0.000 C 
ATOM     11  C   UNL     1       1.698   2.696  20.048  0.00  0.00    +0.000 C 
ATOM     12  C   UNL     1       1.723   3.771  21.157  0.00  0.00    +0.000 C 
ATOM     13  O   UNL     1       2.350   3.598  22.207  0.00  0.00    +0.000 OA
ATOM     14  C   UNL     1       0.933   5.058  20.941  0.00  0.00    +0.000 C 
ATOM     15  C   UNL     1       1.845   6.221  20.531  0.00  0.00    +0.000 C 
ATOM     16  C   UNL     1       1.570   6.738  19.107  0.00  0.00    +0.000 C 
ATOM     17  C   UNL     1       2.700   7.648  18.574  0.00  0.00    +0.000 C 
ATOM     18  C   UNL     1       2.138   9.015  18.188  0.00  0.00    +0.000 C 
ATOM     19  O   UNL     1       3.305   7.049  17.390  0.00  0.00    +0.000 OA
ATOM     20  C   UNL     1       4.177   6.037  17.648  0.00  0.00    +0.000 C 
ATOM     21  O   UNL     1       4.410   5.600  18.772  0.00  0.00    +0.000 OA
ENDROOT
BRANCH   1  23
ATOM     22  C   UNL     1       6.359   3.250  12.195  0.00  0.00    +0.000 C 
ATOM     23  O   UNL     1       7.037   3.638  13.389  0.00  0.00    +0.000 OA
ENDBRANCH   1  23
BRANCH   3  24
ATOM     24  O   UNL     1       5.308   7.517  15.470  0.00  0.00    +0.000 OA
ATOM     25  H   UNL     1       5.979   7.867  16.080  0.00  0.00    +0.000 HD
ENDBRANCH   3  24
BRANCH  11  26
ATOM     26  O   UNL     1       1.234   3.206  18.816  0.00  0.00    +0.000 OA
ATOM     27  H   UNL     1       0.690   2.521  18.395  0.00  0.00    +0.000 HD
ENDBRANCH  11  26
TORSDOF 3
ENDMDL
MODEL 7
REMARK VINA RESULT:      -6.1     11.562     14.900
REMARK  Name = 
REMARK  5 active torsions:
REMARK  status: ('A' for Active; 'I' for Inactive)
REMARK    1  A    between atoms: C_1  and  O_2
REMARK    2  A    between atoms: O_2  and  C_3
REMARK    3  A    between atoms: C_5  and  O_6
REMARK    4  A    between atoms: C_14  and  O_15
REMARK    5  A    between atoms: C_21  and  C_22
REMARK                            x       y       z     vdW  Elec       q    Type
REMARK                         _______ _______ _______ _____ _____    ______ ____
ROOT
ATOM      1  C   UNL     1       7.760  12.368  24.620  0.00  0.00    +0.000 A 
ATOM      2  C   UNL     1       8.072  13.699  24.912  0.00  0.00    +0.000 A 
ATOM      3  C   UNL     1       8.755  14.494  23.982  0.00  0.00    +0.000 A 
ATOM      4  C   UNL     1       9.142  13.962  22.747  0.00  0.00    +0.000 A 
ATOM      5  C   UNL     1       8.876  12.590  22.475  0.00  0.00    +0.000 A 
ATOM      6  C   UNL     1       8.183  11.817  23.414  0.00  0.00    +0.000 A 
ATOM      7  C   UNL     1       9.404  11.937  21.268  0.00  0.00    +0.000 C 
ATOM      8  C   UNL     1       9.091  10.783  20.660  0.00  0.00    +0.000 C 
ATOM      9  C   UNL     1       9.765  10.348  19.372  0.00  0.00    +0.000 C 
ATOM     10  C   UNL     1       9.950  11.467  18.325  0.00  0.00    +0.000 C 
ATOM     11  C   UNL     1      11.378  12.026  18.171  0.00  0.00    +0.000 C 
ATOM     12  C   UNL     1      11.361  13.351  17.377  0.00  0.00    +0.000 C 
ATOM     13  O   UNL     1      10.596  13.521  16.422  0.00  0.00    +0.000 OA
ATOM     14  C   UNL     1      12.333  14.455  17.784  0.00  0.00    +0.000 C 
ATOM     15  C   UNL     1      11.638  15.552  18.599  0.00  0.00    +0.000 C 
ATOM     16  C   UNL     1      12.147  15.648  20.049  0.00  0.00    +0.000 C 
ATOM     17  C   UNL     1      11.219  16.491  20.953  0.00  0.00    +0.000 C 
ATOM     18  C   UNL     1      11.997  17.649  21.575  0.00  0.00    +0.000 C 
ATOM     19  O   UNL     1      10.686  15.664  22.028  0.00  0.00    +0.000 OA
ATOM     20  C   UNL     1       9.664  14.844  21.663  0.00  0.00    +0.000 C 
ATOM     21  O   UNL     1       9.243  14.742  20.513  0.00  0.00    +0.000 OA
ENDROOT
BRANCH   1  23
ATOM     22  C   UNL     1       5.812  11.118  25.152  0.00  0.00    +0.000 C 
ATOM     23  O   UNL     1       7.044  11.700  25.576  0.00  0.00    +0.000 OA
ENDBRANCH   1  23
BRANCH   3  24
ATOM     24  O   UNL     1       9.006  15.804  24.282  0.00  0.00    +0.000 OA
ATOM     25  H   UNL     1       8.726  15.986  25.194  0.00  0.00    +0.000 HD
ENDBRANCH   3  24
BRANCH  11  26
ATOM     26  O   UNL     1      12.049  12.149  19.407  0.00  0.00    +0.000 OA
ATOM     27  H   UNL     1      11.381  12.142  20.111  0.00  0.00    +0.000 HD
ENDBRANCH  11  26
TORSDOF 3
ENDMDL
MODEL 8
REMARK VINA RESULT:      -6.0      1.630      4.120
REMARK  Name = 
REMARK  5 active torsions:
REMARK  status: ('A' for Active; 'I' for Inactive)
REMARK    1  A    between atoms: C_1  and  O_2
REMARK    2  A    between atoms: O_2  and  C_3
REMARK    3  A    between atoms: C_5  and  O_6
REMARK    4  A    between atoms: C_14  and  O_15
REMARK    5  A    between atoms: C_21  and  C_22
REMARK                            x       y       z     vdW  Elec       q    Type
REMARK                         _______ _______ _______ _____ _____    ______ ____
ROOT
ATOM      1  C   UNL     1      -3.759  10.920  16.219  0.00  0.00    +0.000 A 
ATOM      2  C   UNL     1      -2.400  11.176  16.424  0.00  0.00    +0.000 A 
ATOM      3  C   UNL     1      -1.945  11.685  17.647  0.00  0.00    +0.000 A 
ATOM      4  C   UNL     1      -2.849  11.953  18.681  0.00  0.00    +0.000 A 
ATOM      5  C   UNL     1      -4.239  11.749  18.450  0.00  0.00    +0.000 A 
ATOM      6  C   UNL     1      -4.671  11.229  17.224  0.00  0.00    +0.000 A 
ATOM      7  C   UNL     1      -5.245  12.168  19.437  0.00  0.00    +0.000 C 
ATOM      8  C   UNL     1      -6.542  11.861  19.585  0.00  0.00    +0.000 C 
ATOM      9  C   UNL     1      -7.366  12.401  20.740  0.00  0.00    +0.000 C 
ATOM     10  C   UNL     1      -6.656  12.380  22.110  0.00  0.00    +0.000 C 
ATOM     11  C   UNL     1      -6.147  13.738  22.634  0.00  0.00    +0.000 C 
ATOM     12  C   UNL     1      -5.163  13.535  23.807  0.00  0.00    +0.000 C 
ATOM     13  O   UNL     1      -5.338  12.650  24.650  0.00  0.00    +0.000 OA
ATOM     14  C   UNL     1      -3.966  14.474  23.922  0.00  0.00    +0.000 C 
ATOM     15  C   UNL     1      -2.676  13.812  23.422  0.00  0.00    +0.000 C 
ATOM     16  C   UNL     1      -2.091  14.487  22.169  0.00  0.00    +0.000 C 
ATOM     17  C   UNL     1      -1.016  13.621  21.471  0.00  0.00    +0.000 C 
ATOM     18  C   UNL     1       0.301  14.390  21.375  0.00  0.00    +0.000 C 
ATOM     19  O   UNL     1      -1.449  13.281  20.122  0.00  0.00    +0.000 OA
ATOM     20  C   UNL     1      -2.367  12.279  20.055  0.00  0.00    +0.000 C 
ATOM     21  O   UNL     1      -2.856  11.728  21.039  0.00  0.00    +0.000 OA
ENDROOT
BRANCH   1  23
ATOM     22  C   UNL     1      -2.995   9.980  14.176  0.00  0.00    +0.000 C 
ATOM     23  O   UNL     1      -4.087  10.373  15.007  0.00  0.00    +0.000 OA
ENDBRANCH   1  23
BRANCH   3  24
ATOM     24  O   UNL     1      -0.605  11.883  17.830  0.00  0.00    +0.000 OA
ATOM     25  H   UNL     1      -0.292  12.566  17.215  0.00  0.00    +0.000 HD
ENDBRANCH   3  24
BRANCH  11  26
ATOM     26  O   UNL     1      -5.605  14.545  21.611  0.00  0.00    +0.000 OA
ATOM     27  H   UNL     1      -6.091  14.356  20.792  0.00  0.00    +0.000 HD
ENDBRANCH  11  26
TORSDOF 3
ENDMDL
MODEL 9
REMARK VINA RESULT:      -6.0      1.762      7.138
REMARK  Name = 
REMARK  5 active torsions:
REMARK  status: ('A' for Active; 'I' for Inactive)
REMARK    1  A    between atoms: C_1  and  O_2
REMARK    2  A    between atoms: O_2  and  C_3
REMARK    3  A    between atoms: C_5  and  O_6
REMARK    4  A    between atoms: C_14  and  O_15
REMARK    5  A    between atoms: C_21  and  C_22
REMARK                            x       y       z     vdW  Elec       q    Type
REMARK                         _______ _______ _______ _____ _____    ______ ____
ROOT
ATOM      1  C   UNL     1      -4.599  14.583  23.358  0.00  0.00    +0.000 A 
ATOM      2  C   UNL     1      -3.293  14.243  23.728  0.00  0.00    +0.000 A 
ATOM      3  C   UNL     1      -2.472  13.510  22.862  0.00  0.00    +0.000 A 
ATOM      4  C   UNL     1      -2.951  13.100  21.613  0.00  0.00    +0.000 A 
ATOM      5  C   UNL     1      -4.299  13.394  21.262  0.00  0.00    +0.000 A 
ATOM      6  C   UNL     1      -5.099  14.138  22.138  0.00  0.00    +0.000 A 
ATOM      7  C   UNL     1      -4.904  12.847  20.039  0.00  0.00    +0.000 C 
ATOM      8  C   UNL     1      -6.016  13.173  19.362  0.00  0.00    +0.000 C 
ATOM      9  C   UNL     1      -6.404  12.471  18.073  0.00  0.00    +0.000 C 
ATOM     10  C   UNL     1      -5.238  12.224  17.093  0.00  0.00    +0.000 C 
ATOM     11  C   UNL     1      -4.713  10.777  17.010  0.00  0.00    +0.000 C 
ATOM     12  C   UNL     1      -3.349  10.732  16.286  0.00  0.00    +0.000 C 
ATOM     13  O   UNL     1      -3.108  11.462  15.319  0.00  0.00    +0.000 OA
ATOM     14  C   UNL     1      -2.297   9.743  16.778  0.00  0.00    +0.000 C 
ATOM     15  C   UNL     1      -1.223  10.433  17.629  0.00  0.00    +0.000 C 
ATOM     16  C   UNL     1      -1.217   9.967  19.096  0.00  0.00    +0.000 C 
ATOM     17  C   UNL     1      -0.394  10.900  20.015  0.00  0.00    +0.000 C 
ATOM     18  C   UNL     1       0.707  10.110  20.720  0.00  0.00    +0.000 C 
ATOM     19  O   UNL     1      -1.260  11.488  21.030  0.00  0.00    +0.000 OA
ATOM     20  C   UNL     1      -2.030  12.520  20.592  0.00  0.00    +0.000 C 
ATOM     21  O   UNL     1      -2.061  12.908  19.426  0.00  0.00    +0.000 OA
ENDROOT
BRANCH   1  23
ATOM     22  C   UNL     1      -4.735  16.622  24.567  0.00  0.00    +0.000 C 
ATOM     23  O   UNL     1      -5.294  15.346  24.257  0.00  0.00    +0.000 OA
ENDBRANCH   1  23
BRANCH   3  24
ATOM     24  O   UNL     1      -1.188  13.233  23.237  0.00  0.00    +0.000 OA
ATOM     25  H   UNL     1      -0.843  13.964  23.776  0.00  0.00    +0.000 HD
ENDBRANCH   3  24
BRANCH  11  26
ATOM     26  O   UNL     1      -4.674  10.141  18.270  0.00  0.00    +0.000 OA
ATOM     27  H   UNL     1      -5.250  10.638  18.873  0.00  0.00    +0.000 HD
ENDBRANCH  11  26
TORSDOF 3
ENDMDL
