MODEL 1
REMARK VINA RESULT:      -7.0      0.000      0.000
REMARK  Name = 
REMARK  7 active torsions:
REMARK  status: ('A' for Active; 'I' for Inactive)
REMARK    1  A    between atoms: C_1  and  C_2
REMARK    2  A    between atoms: C_2  and  C_3
REMARK    3  A    between atoms: C_2  and  C_4
REMARK    4  A    between atoms: C_2  and  C_5
REMARK    5  A    between atoms: C_9  and  C_10
REMARK    6  A    between atoms: C_10  and  N_11
REMARK    7  A    between atoms: N_11  and  O_12
REMARK                            x       y       z     vdW  Elec       q    Type
REMARK                         _______ _______ _______ _____ _____    ______ ____
ROOT
ATOM      1  C   UNL     1      -3.331  13.307  22.688  0.00  0.00    +0.000 C 
ATOM      2  N   UNL     1      -4.556  12.712  22.152  0.00  0.00    +0.000 N 
ATOM      3  C   UNL     1      -4.890  12.811  20.812  0.00  0.00    +0.000 C 
ATOM      4  O   UNL     1      -4.211  13.461  20.022  0.00  0.00    +0.000 OA
ATOM      5  C   UNL     1      -6.131  12.008  20.418  0.00  0.00    +0.000 C 
ATOM      6  C   UNL     1      -6.440  12.043  18.903  0.00  0.00    +0.000 C 
ATOM      7  C   UNL     1      -5.794  10.913  18.096  0.00  0.00    +0.000 C 
ATOM      8  C   UNL     1      -4.411  11.259  17.559  0.00  0.00    +0.000 C 
ATOM      9  C   UNL     1      -3.828  10.076  16.786  0.00  0.00    +0.000 C 
ATOM     10  C   UNL     1      -2.393  10.308  16.308  0.00  0.00    +0.000 C 
ATOM     11  C   UNL     1      -1.329   9.859  17.314  0.00  0.00    +0.000 C 
ATOM     12  C   UNL     1      -0.933  10.931  18.334  0.00  0.00    +0.000 C 
ATOM     13  C   UNL     1       0.145  10.396  19.276  0.00  0.00    +0.000 C 
ATOM     14  C   UNL     1       0.596  11.413  20.329  0.00  0.00    +0.000 C 
ATOM     15  C   UNL     1      -0.211  11.363  21.625  0.00  0.00    +0.000 C 
ATOM     16  N   UNL     1      -1.377  12.221  21.634  0.00  0.00    +0.000 N 
ATOM     17  C   UNL     1      -2.277  12.172  22.683  0.00  0.00    +0.000 C 
ATOM     18  O   UNL     1      -2.308  11.235  23.482  0.00  0.00    +0.000 OA
ATOM     19  H   UNL     1      -4.937  11.937  22.682  0.00  0.00    +0.000 HD
ATOM     20  H   UNL     1      -1.436  12.990  20.975  0.00  0.00    +0.000 HD
ENDROOT
BRANCH   1  22
ATOM     21  C   UNL     1      -4.172  13.022  25.137  0.00  0.00    +0.000 C 
ATOM     22  C   UNL     1      -3.566  13.972  24.085  0.00  0.00    +0.000 C 
ATOM     23  C   UNL     1      -4.539  15.159  23.908  0.00  0.00    +0.000 C 
ATOM     24  C   UNL     1      -2.245  14.536  24.644  0.00  0.00    +0.000 C 
ENDBRANCH   1  22
BRANCH   5  25
ATOM     25  C   UNL     1      -7.364  12.437  21.241  0.00  0.00    +0.000 C 
BRANCH  25  26
ATOM     26  N   UNL     1      -7.552  11.734  22.508  0.00  0.00    +0.000 N 
ATOM     27  C   UNL     1      -7.706  12.290  23.749  0.00  0.00    +0.000 C 
ATOM     28  O   UNL     1      -7.671  13.484  24.018  0.00  0.00    +0.000 OA
BRANCH  26  29
ATOM     29  O   UNL     1      -7.916  10.380  22.392  0.00  0.00    +0.000 OA
ATOM     30  H   UNL     1      -8.407  10.359  21.549  0.00  0.00    +0.000 HD
ENDBRANCH  26  29
ENDBRANCH  25  26
ENDBRANCH   5  25
TORSDOF 4
ENDMDL
MODEL 2
REMARK VINA RESULT:      -6.5      3.497      6.286
REMARK  Name = 
REMARK  7 active torsions:
REMARK  status: ('A' for Active; 'I' for Inactive)
REMARK    1  A    between atoms: C_1  and  C_2
REMARK    2  A    between atoms: C_2  and  C_3
REMARK    3  A    between atoms: C_2  and  C_4
REMARK    4  A    between atoms: C_2  and  C_5
REMARK    5  A    between atoms: C_9  and  C_10
REMARK    6  A    between atoms: C_10  and  N_11
REMARK    7  A    between atoms: N_11  and  O_12
REMARK                            x       y       z     vdW  Elec       q    Type
REMARK                         _______ _______ _______ _____ _____    ______ ____
ROOT
ATOM      1  C   UNL     1      -1.322  12.981  20.088  0.00  0.00    +0.000 C 
ATOM      2  N   UNL     1      -2.088  12.282  19.054  0.00  0.00    +0.000 N 
ATOM      3  C   UNL     1      -3.468  12.185  19.109  0.00  0.00    +0.000 C 
ATOM      4  O   UNL     1      -4.110  12.618  20.061  0.00  0.00    +0.000 OA
ATOM      5  C   UNL     1      -4.096  11.543  17.871  0.00  0.00    +0.000 C 
ATOM      6  C   UNL     1      -5.642  11.526  17.895  0.00  0.00    +0.000 C 
ATOM      7  C   UNL     1      -6.302  12.750  17.252  0.00  0.00    +0.000 C 
ATOM      8  C   UNL     1      -6.556  13.891  18.230  0.00  0.00    +0.000 C 
ATOM      9  C   UNL     1      -7.193  15.078  17.509  0.00  0.00    +0.000 C 
ATOM     10  C   UNL     1      -7.379  16.306  18.403  0.00  0.00    +0.000 C 
ATOM     11  C   UNL     1      -6.180  17.260  18.396  0.00  0.00    +0.000 C 
ATOM     12  C   UNL     1      -5.107  16.932  19.437  0.00  0.00    +0.000 C 
ATOM     13  C   UNL     1      -3.968  17.949  19.364  0.00  0.00    +0.000 C 
ATOM     14  C   UNL     1      -2.850  17.688  20.380  0.00  0.00    +0.000 C 
ATOM     15  C   UNL     1      -1.739  16.778  19.858  0.00  0.00    +0.000 C 
ATOM     16  N   UNL     1      -1.965  15.368  20.094  0.00  0.00    +0.000 N 
ATOM     17  C   UNL     1      -1.114  14.420  19.554  0.00  0.00    +0.000 C 
ATOM     18  O   UNL     1      -0.334  14.681  18.638  0.00  0.00    +0.000 OA
ATOM     19  H   UNL     1      -1.640  12.212  18.148  0.00  0.00    +0.000 HD
ATOM     20  H   UNL     1      -2.626  15.080  20.809  0.00  0.00    +0.000 HD
ENDROOT
BRANCH   1  22
ATOM     21  C   UNL     1       0.756  11.665  19.230  0.00  0.00    +0.000 C 
ATOM     22  C   UNL     1      -0.002  12.223  20.450  0.00  0.00    +0.000 C 
ATOM     23  C   UNL     1      -0.354  11.032  21.369  0.00  0.00    +0.000 C 
ATOM     24  C   UNL     1       0.952  13.146  21.234  0.00  0.00    +0.000 C 
ENDBRANCH   1  22
BRANCH   5  25
ATOM     25  C   UNL     1      -3.535  10.126  17.625  0.00  0.00    +0.000 C 
BRANCH  25  26
ATOM     26  N   UNL     1      -2.564  10.013  16.540  0.00  0.00    +0.000 N 
ATOM     27  C   UNL     1      -2.814  10.069  15.195  0.00  0.00    +0.000 C 
ATOM     28  O   UNL     1      -3.912  10.186  14.666  0.00  0.00    +0.000 OA
BRANCH  26  29
ATOM     29  O   UNL     1      -1.219  10.171  16.921  0.00  0.00    +0.000 OA
ATOM     30  H   UNL     1      -1.250  10.953  17.505  0.00  0.00    +0.000 HD
ENDBRANCH  26  29
ENDBRANCH  25  26
ENDBRANCH   5  25
TORSDOF 4
ENDMDL
MODEL 3
REMARK VINA RESULT:      -6.4      0.969      1.526
REMARK  Name = 
REMARK  7 active torsions:
REMARK  status: ('A' for Active; 'I' for Inactive)
REMARK    1  A    between atoms: C_1  and  C_2
REMARK    2  A    between atoms: C_2  and  C_3
REMARK    3  A    between atoms: C_2  and  C_4
REMARK    4  A    between atoms: C_2  and  C_5
REMARK    5  A    between atoms: C_9  and  C_10
REMARK    6  A    between atoms: C_10  and  N_11
REMARK    7  A    between atoms: N_11  and  O_12
REMARK                            x       y       z     vdW  Elec       q    Type
REMARK                         _______ _______ _______ _____ _____    ______ ____
ROOT
ATOM      1  C   UNL     1      -3.432  13.281  22.704  0.00  0.00    +0.000 C 
ATOM      2  N   UNL     1      -4.631  12.611  22.196  0.00  0.00    +0.000 N 
ATOM      3  C   UNL     1      -4.997  12.683  20.862  0.00  0.00    +0.000 C 
ATOM      4  O   UNL     1      -4.374  13.367  20.056  0.00  0.00    +0.000 OA
ATOM      5  C   UNL     1      -6.196  11.805  20.499  0.00  0.00    +0.000 C 
ATOM      6  C   UNL     1      -6.538  11.814  18.990  0.00  0.00    +0.000 C 
ATOM      7  C   UNL     1      -5.844  10.719  18.174  0.00  0.00    +0.000 C 
ATOM      8  C   UNL     1      -4.495  11.144  17.607  0.00  0.00    +0.000 C 
ATOM      9  C   UNL     1      -3.859   9.993  16.827  0.00  0.00    +0.000 C 
ATOM     10  C   UNL     1      -2.451  10.307  16.318  0.00  0.00    +0.000 C 
ATOM     11  C   UNL     1      -1.341   9.927  17.304  0.00  0.00    +0.000 C 
ATOM     12  C   UNL     1      -0.988  11.026  18.310  0.00  0.00    +0.000 C 
ATOM     13  C   UNL     1       0.139  10.561  19.232  0.00  0.00    +0.000 C 
ATOM     14  C   UNL     1       0.551  11.609  20.271  0.00  0.00    +0.000 C 
ATOM     15  C   UNL     1      -0.225  11.518  21.584  0.00  0.00    +0.000 C 
ATOM     16  N   UNL     1      -1.440  12.305  21.613  0.00  0.00    +0.000 N 
ATOM     17  C   UNL     1      -2.313  12.209  22.681  0.00  0.00    +0.000 C 
ATOM     18  O   UNL     1      -2.272  11.277  23.484  0.00  0.00    +0.000 OA
ATOM     19  H   UNL     1      -4.954  11.818  22.737  0.00  0.00    +0.000 HD
ATOM     20  H   UNL     1      -1.558  13.066  20.952  0.00  0.00    +0.000 HD
ENDROOT
BRANCH   1  22
ATOM     21  C   UNL     1      -4.609  15.166  24.063  0.00  0.00    +0.000 C 
ATOM     22  C   UNL     1      -3.677  13.938  24.102  0.00  0.00    +0.000 C 
ATOM     23  C   UNL     1      -2.319  14.397  24.676  0.00  0.00    +0.000 C 
ATOM     24  C   UNL     1      -4.271  12.910  25.085  0.00  0.00    +0.000 C 
ENDBRANCH   1  22
BRANCH   5  25
ATOM     25  C   UNL     1      -7.435  12.166  21.345  0.00  0.00    +0.000 C 
BRANCH  25  26
ATOM     26  N   UNL     1      -7.427  13.501  21.938  0.00  0.00    +0.000 N 
ATOM     27  C   UNL     1      -7.675  14.689  21.305  0.00  0.00    +0.000 C 
ATOM     28  O   UNL     1      -7.910  14.841  20.113  0.00  0.00    +0.000 OA
BRANCH  26  29
ATOM     29  O   UNL     1      -7.473  13.532  23.343  0.00  0.00    +0.000 OA
ATOM     30  H   UNL     1      -7.829  14.422  23.529  0.00  0.00    +0.000 HD
ENDBRANCH  26  29
ENDBRANCH  25  26
ENDBRANCH   5  25
TORSDOF 4
ENDMDL
MODEL 4
REMARK VINA RESULT:      -6.2      3.484      6.517
REMARK  Name = 
REMARK  7 active torsions:
REMARK  status: ('A' for Active; 'I' for Inactive)
REMARK    1  A    between atoms: C_1  and  C_2
REMARK    2  A    between atoms: C_2  and  C_3
REMARK    3  A    between atoms: C_2  and  C_4
REMARK    4  A    between atoms: C_2  and  C_5
REMARK    5  A    between atoms: C_9  and  C_10
REMARK    6  A    between atoms: C_10  and  N_11
REMARK    7  A    between atoms: N_11  and  O_12
REMARK                            x       y       z     vdW  Elec       q    Type
REMARK                         _______ _______ _______ _____ _____    ______ ____
ROOT
ATOM      1  C   UNL     1      -1.569  12.168  19.560  0.00  0.00    +0.000 C 
ATOM      2  N   UNL     1      -2.442  11.908  18.413  0.00  0.00    +0.000 N 
ATOM      3  C   UNL     1      -3.821  11.991  18.513  0.00  0.00    +0.000 C 
ATOM      4  O   UNL     1      -4.380  12.216  19.582  0.00  0.00    +0.000 OA
ATOM      5  C   UNL     1      -4.552  11.824  17.180  0.00  0.00    +0.000 C 
ATOM      6  C   UNL     1      -6.083  12.015  17.282  0.00  0.00    +0.000 C 
ATOM      7  C   UNL     1      -6.563  13.451  17.049  0.00  0.00    +0.000 C 
ATOM      8  C   UNL     1      -6.634  14.286  18.321  0.00  0.00    +0.000 C 
ATOM      9  C   UNL     1      -7.098  15.706  18.000  0.00  0.00    +0.000 C 
ATOM     10  C   UNL     1      -7.089  16.639  19.214  0.00  0.00    +0.000 C 
ATOM     11  C   UNL     1      -5.763  17.380  19.412  0.00  0.00    +0.000 C 
ATOM     12  C   UNL     1      -4.737  16.621  20.258  0.00  0.00    +0.000 C 
ATOM     13  C   UNL     1      -3.461  17.449  20.414  0.00  0.00    +0.000 C 
ATOM     14  C   UNL     1      -2.382  16.756  21.253  0.00  0.00    +0.000 C 
ATOM     15  C   UNL     1      -1.424  15.890  20.435  0.00  0.00    +0.000 C 
ATOM     16  N   UNL     1      -1.852  14.516  20.275  0.00  0.00    +0.000 N 
ATOM     17  C   UNL     1      -1.157  13.657  19.444  0.00  0.00    +0.000 C 
ATOM     18  O   UNL     1      -0.358  14.060  18.599  0.00  0.00    +0.000 OA
ATOM     19  H   UNL     1      -2.021  12.041  17.502  0.00  0.00    +0.000 HD
ATOM     20  H   UNL     1      -2.539  14.130  20.914  0.00  0.00    +0.000 HD
ENDROOT
BRANCH   1  22
ATOM     21  C   UNL     1       1.010  11.840  19.728  0.00  0.00    +0.000 C 
ATOM     22  C   UNL     1      -0.371  11.163  19.621  0.00  0.00    +0.000 C 
ATOM     23  C   UNL     1      -0.377  10.309  18.334  0.00  0.00    +0.000 C 
ATOM     24  C   UNL     1      -0.534  10.202  20.815  0.00  0.00    +0.000 C 
ENDBRANCH   1  22
BRANCH   5  25
ATOM     25  C   UNL     1      -4.209  10.475  16.514  0.00  0.00    +0.000 C 
BRANCH  25  26
ATOM     26  N   UNL     1      -3.272  10.544  15.396  0.00  0.00    +0.000 N 
ATOM     27  C   UNL     1      -3.491  10.144  14.105  0.00  0.00    +0.000 C 
ATOM     28  O   UNL     1      -4.507   9.617  13.672  0.00  0.00    +0.000 OA
BRANCH  26  29
ATOM     29  O   UNL     1      -2.160  11.382  15.599  0.00  0.00    +0.000 OA
ATOM     30  H   UNL     1      -1.840  11.542  14.691  0.00  0.00    +0.000 HD
ENDBRANCH  26  29
ENDBRANCH  25  26
ENDBRANCH   5  25
TORSDOF 4
ENDMDL
MODEL 5
REMARK VINA RESULT:      -6.2      0.810      1.218
REMARK  Name = 
REMARK  7 active torsions:
REMARK  status: ('A' for Active; 'I' for Inactive)
REMARK    1  A    between atoms: C_1  and  C_2
REMARK    2  A    between atoms: C_2  and  C_3
REMARK    3  A    between atoms: C_2  and  C_4
REMARK    4  A    between atoms: C_2  and  C_5
REMARK    5  A    between atoms: C_9  and  C_10
REMARK    6  A    between atoms: C_10  and  N_11
REMARK    7  A    between atoms: N_11  and  O_12
REMARK                            x       y       z     vdW  Elec       q    Type
REMARK                         _______ _______ _______ _____ _____    ______ ____
ROOT
ATOM      1  C   UNL     1      -2.540  13.983  22.562  0.00  0.00    +0.000 C 
ATOM      2  N   UNL     1      -3.834  13.395  22.213  0.00  0.00    +0.000 N 
ATOM      3  C   UNL     1      -4.283  13.344  20.904  0.00  0.00    +0.000 C 
ATOM      4  O   UNL     1      -3.651  13.851  19.982  0.00  0.00    +0.000 OA
ATOM      5  C   UNL     1      -5.590  12.568  20.724  0.00  0.00    +0.000 C 
ATOM      6  C   UNL     1      -6.034  12.431  19.249  0.00  0.00    +0.000 C 
ATOM      7  C   UNL     1      -5.515  11.175  18.542  0.00  0.00    +0.000 C 
ATOM      8  C   UNL     1      -4.172  11.374  17.850  0.00  0.00    +0.000 C 
ATOM      9  C   UNL     1      -3.716  10.073  17.191  0.00  0.00    +0.000 C 
ATOM     10  C   UNL     1      -2.321  10.163  16.567  0.00  0.00    +0.000 C 
ATOM     11  C   UNL     1      -1.191   9.784  17.529  0.00  0.00    +0.000 C 
ATOM     12  C   UNL     1      -0.657  10.951  18.364  0.00  0.00    +0.000 C 
ATOM     13  C   UNL     1       0.478  10.478  19.273  0.00  0.00    +0.000 C 
ATOM     14  C   UNL     1       1.068  11.592  20.144  0.00  0.00    +0.000 C 
ATOM     15  C   UNL     1       0.380  11.749  21.500  0.00  0.00    +0.000 C 
ATOM     16  N   UNL     1      -0.741  12.665  21.495  0.00  0.00    +0.000 N 
ATOM     17  C   UNL     1      -1.542  12.798  22.615  0.00  0.00    +0.000 C 
ATOM     18  O   UNL     1      -1.542  11.972  23.527  0.00  0.00    +0.000 OA
ATOM     19  H   UNL     1      -4.199  12.715  22.869  0.00  0.00    +0.000 HD
ATOM     20  H   UNL     1      -0.825  13.349  20.750  0.00  0.00    +0.000 HD
ENDROOT
BRANCH   1  22
ATOM     21  C   UNL     1      -3.166  16.255  23.672  0.00  0.00    +0.000 C 
ATOM     22  C   UNL     1      -2.617  14.829  23.876  0.00  0.00    +0.000 C 
ATOM     23  C   UNL     1      -1.195  14.953  24.467  0.00  0.00    +0.000 C 
ATOM     24  C   UNL     1      -3.494  14.117  24.925  0.00  0.00    +0.000 C 
ENDBRANCH   1  22
BRANCH   5  25
ATOM     25  C   UNL     1      -6.722  13.166  21.586  0.00  0.00    +0.000 C 
BRANCH  25  26
ATOM     26  N   UNL     1      -7.212  12.310  22.663  0.00  0.00    +0.000 N 
ATOM     27  C   UNL     1      -7.583  12.695  23.924  0.00  0.00    +0.000 C 
ATOM     28  O   UNL     1      -7.529  13.829  24.380  0.00  0.00    +0.000 OA
BRANCH  26  29
ATOM     29  O   UNL     1      -7.630  11.027  22.266  0.00  0.00    +0.000 OA
ATOM     30  H   UNL     1      -7.252  10.944  21.369  0.00  0.00    +0.000 HD
ENDBRANCH  26  29
ENDBRANCH  25  26
ENDBRANCH   5  25
TORSDOF 4
ENDMDL
MODEL 6
REMARK VINA RESULT:      -6.1      2.881      5.881
REMARK  Name = 
REMARK  7 active torsions:
REMARK  status: ('A' for Active; 'I' for Inactive)
REMARK    1  A    between atoms: C_1  and  C_2
REMARK    2  A    between atoms: C_2  and  C_3
REMARK    3  A    between atoms: C_2  and  C_4
REMARK    4  A    between atoms: C_2  and  C_5
REMARK    5  A    between atoms: C_9  and  C_10
REMARK    6  A    between atoms: C_10  and  N_11
REMARK    7  A    between atoms: N_11  and  O_12
REMARK                            x       y       z     vdW  Elec       q    Type
REMARK                         _______ _______ _______ _____ _____    ______ ____
ROOT
ATOM      1  C   UNL     1      -0.369  13.401  19.467  0.00  0.00    +0.000 C 
ATOM      2  N   UNL     1      -0.855  13.249  20.840  0.00  0.00    +0.000 N 
ATOM      3  C   UNL     1      -2.066  13.783  21.248  0.00  0.00    +0.000 C 
ATOM      4  O   UNL     1      -2.757  14.468  20.500  0.00  0.00    +0.000 OA
ATOM      5  C   UNL     1      -2.465  13.400  22.675  0.00  0.00    +0.000 C 
ATOM      6  C   UNL     1      -3.862  13.918  23.090  0.00  0.00    +0.000 C 
ATOM      7  C   UNL     1      -5.011  12.946  22.805  0.00  0.00    +0.000 C 
ATOM      8  C   UNL     1      -5.638  13.128  21.427  0.00  0.00    +0.000 C 
ATOM      9  C   UNL     1      -6.757  12.110  21.213  0.00  0.00    +0.000 C 
ATOM     10  C   UNL     1      -7.363  12.157  19.809  0.00  0.00    +0.000 C 
ATOM     11  C   UNL     1      -6.665  11.234  18.805  0.00  0.00    +0.000 C 
ATOM     12  C   UNL     1      -5.477  11.873  18.080  0.00  0.00    +0.000 C 
ATOM     13  C   UNL     1      -4.865  10.883  17.090  0.00  0.00    +0.000 C 
ATOM     14  C   UNL     1      -3.667  11.451  16.321  0.00  0.00    +0.000 C 
ATOM     15  C   UNL     1      -2.322  11.215  17.008  0.00  0.00    +0.000 C 
ATOM     16  N   UNL     1      -1.932  12.262  17.927  0.00  0.00    +0.000 N 
ATOM     17  C   UNL     1      -0.810  12.116  18.723  0.00  0.00    +0.000 C 
ATOM     18  O   UNL     1      -0.275  11.023  18.913  0.00  0.00    +0.000 OA
ATOM     19  H   UNL     1      -0.486  12.456  21.352  0.00  0.00    +0.000 HD
ATOM     20  H   UNL     1      -2.361  13.179  17.853  0.00  0.00    +0.000 HD
ENDROOT
BRANCH   1  22
ATOM     21  C   UNL     1       1.860  13.187  18.136  0.00  0.00    +0.000 C 
ATOM     22  C   UNL     1       1.168  13.687  19.420  0.00  0.00    +0.000 C 
ATOM     23  C   UNL     1       1.839  12.982  20.620  0.00  0.00    +0.000 C 
ATOM     24  C   UNL     1       1.441  15.198  19.560  0.00  0.00    +0.000 C 
ENDBRANCH   1  22
BRANCH   5  25
ATOM     25  C   UNL     1      -1.392  13.835  23.696  0.00  0.00    +0.000 C 
BRANCH  25  26
ATOM     26  N   UNL     1      -0.839  15.172  23.498  0.00  0.00    +0.000 N 
ATOM     27  C   UNL     1      -1.286  16.343  24.049  0.00  0.00    +0.000 C 
ATOM     28  O   UNL     1      -2.260  16.476  24.778  0.00  0.00    +0.000 OA
BRANCH  26  29
ATOM     29  O   UNL     1       0.451  15.210  22.939  0.00  0.00    +0.000 OA
ATOM     30  H   UNL     1       0.429  16.020  22.396  0.00  0.00    +0.000 HD
ENDBRANCH  26  29
ENDBRANCH  25  26
ENDBRANCH   5  25
TORSDOF 4
ENDMDL
MODEL 7
REMARK VINA RESULT:      -6.1      1.564      2.118
REMARK  Name = 
REMARK  7 active torsions:
REMARK  status: ('A' for Active; 'I' for Inactive)
REMARK    1  A    between atoms: C_1  and  C_2
REMARK    2  A    between atoms: C_2  and  C_3
REMARK    3  A    between atoms: C_2  and  C_4
REMARK    4  A    between atoms: C_2  and  C_5
REMARK    5  A    between atoms: C_9  and  C_10
REMARK    6  A    between atoms: C_10  and  N_11
REMARK    7  A    between atoms: N_11  and  O_12
REMARK                            x       y       z     vdW  Elec       q    Type
REMARK                         _______ _______ _______ _____ _____    ______ ____
ROOT
ATOM      1  C   UNL     1      -2.013  14.673  22.490  0.00  0.00    +0.000 C 
ATOM      2  N   UNL     1      -3.338  14.051  22.536  0.00  0.00    +0.000 N 
ATOM      3  C   UNL     1      -4.116  13.906  21.400  0.00  0.00    +0.000 C 
ATOM      4  O   UNL     1      -3.764  14.353  20.312  0.00  0.00    +0.000 OA
ATOM      5  C   UNL     1      -5.403  13.110  21.625  0.00  0.00    +0.000 C 
ATOM      6  C   UNL     1      -6.218  12.868  20.333  0.00  0.00    +0.000 C 
ATOM      7  C   UNL     1      -5.873  11.569  19.596  0.00  0.00    +0.000 C 
ATOM      8  C   UNL     1      -4.766  11.730  18.561  0.00  0.00    +0.000 C 
ATOM      9  C   UNL     1      -4.467  10.391  17.889  0.00  0.00    +0.000 C 
ATOM     10  C   UNL     1      -3.290  10.448  16.912  0.00  0.00    +0.000 C 
ATOM     11  C   UNL     1      -1.936  10.146  17.562  0.00  0.00    +0.000 C 
ATOM     12  C   UNL     1      -1.230  11.373  18.148  0.00  0.00    +0.000 C 
ATOM     13  C   UNL     1       0.116  10.973  18.751  0.00  0.00    +0.000 C 
ATOM     14  C   UNL     1       0.887  12.149  19.359  0.00  0.00    +0.000 C 
ATOM     15  C   UNL     1       0.578  12.395  20.836  0.00  0.00    +0.000 C 
ATOM     16  N   UNL     1      -0.527  13.299  21.071  0.00  0.00    +0.000 N 
ATOM     17  C   UNL     1      -1.007  13.503  22.352  0.00  0.00    +0.000 C 
ATOM     18  O   UNL     1      -0.744  12.742  23.283  0.00  0.00    +0.000 OA
ATOM     19  H   UNL     1      -3.499  13.416  23.308  0.00  0.00    +0.000 HD
ATOM     20  H   UNL     1      -0.824  13.928  20.332  0.00  0.00    +0.000 HD
ENDROOT
BRANCH   1  22
ATOM     21  C   UNL     1      -2.549  16.932  23.671  0.00  0.00    +0.000 C 
ATOM     22  C   UNL     1      -1.762  15.607  23.719  0.00  0.00    +0.000 C 
ATOM     23  C   UNL     1      -0.258  15.955  23.775  0.00  0.00    +0.000 C 
ATOM     24  C   UNL     1      -2.117  14.880  25.031  0.00  0.00    +0.000 C 
ENDBRANCH   1  22
BRANCH   5  25
ATOM     25  C   UNL     1      -6.282  13.756  22.716  0.00  0.00    +0.000 C 
BRANCH  25  26
ATOM     26  N   UNL     1      -6.609  12.898  23.851  0.00  0.00    +0.000 N 
ATOM     27  C   UNL     1      -5.735  12.213  24.651  0.00  0.00    +0.000 C 
ATOM     28  O   UNL     1      -4.518  12.170  24.524  0.00  0.00    +0.000 OA
BRANCH  26  29
ATOM     29  O   UNL     1      -7.916  13.040  24.352  0.00  0.00    +0.000 OA
ATOM     30  H   UNL     1      -7.988  14.002  24.500  0.00  0.00    +0.000 HD
ENDBRANCH  26  29
ENDBRANCH  25  26
ENDBRANCH   5  25
TORSDOF 4
ENDMDL
MODEL 8
REMARK VINA RESULT:      -6.1      0.968      1.366
REMARK  Name = 
REMARK  7 active torsions:
REMARK  status: ('A' for Active; 'I' for Inactive)
REMARK    1  A    between atoms: C_1  and  C_2
REMARK    2  A    between atoms: C_2  and  C_3
REMARK    3  A    between atoms: C_2  and  C_4
REMARK    4  A    between atoms: C_2  and  C_5
REMARK    5  A    between atoms: C_9  and  C_10
REMARK    6  A    between atoms: C_10  and  N_11
REMARK    7  A    between atoms: N_11  and  O_12
REMARK                            x       y       z     vdW  Elec       q    Type
REMARK                         _______ _______ _______ _____ _____    ______ ____
ROOT
ATOM      1  C   UNL     1      -2.554  14.091  22.599  0.00  0.00    +0.000 C 
ATOM      2  N   UNL     1      -3.895  13.559  22.353  0.00  0.00    +0.000 N 
ATOM      3  C   UNL     1      -4.449  13.535  21.084  0.00  0.00    +0.000 C 
ATOM      4  O   UNL     1      -3.872  14.022  20.116  0.00  0.00    +0.000 OA
ATOM      5  C   UNL     1      -5.797  12.815  21.007  0.00  0.00    +0.000 C 
ATOM      6  C   UNL     1      -6.362  12.706  19.572  0.00  0.00    +0.000 C 
ATOM      7  C   UNL     1      -5.954  11.434  18.822  0.00  0.00    +0.000 C 
ATOM      8  C   UNL     1      -4.664  11.581  18.025  0.00  0.00    +0.000 C 
ATOM      9  C   UNL     1      -4.316  10.267  17.327  0.00  0.00    +0.000 C 
ATOM     10  C   UNL     1      -2.973  10.303  16.594  0.00  0.00    +0.000 C 
ATOM     11  C   UNL     1      -1.786   9.873  17.462  0.00  0.00    +0.000 C 
ATOM     12  C   UNL     1      -1.139  11.012  18.256  0.00  0.00    +0.000 C 
ATOM     13  C   UNL     1       0.044  10.486  19.069  0.00  0.00    +0.000 C 
ATOM     14  C   UNL     1       0.748  11.570  19.893  0.00  0.00    +0.000 C 
ATOM     15  C   UNL     1       0.177  11.747  21.300  0.00  0.00    +0.000 C 
ATOM     16  N   UNL     1      -0.902  12.708  21.388  0.00  0.00    +0.000 N 
ATOM     17  C   UNL     1      -1.605  12.867  22.569  0.00  0.00    +0.000 C 
ATOM     18  O   UNL     1      -1.567  12.036  23.476  0.00  0.00    +0.000 OA
ATOM     19  H   UNL     1      -4.235  12.891  23.034  0.00  0.00    +0.000 HD
ATOM     20  H   UNL     1      -1.017  13.399  20.654  0.00  0.00    +0.000 HD
ENDROOT
BRANCH   1  22
ATOM     21  C   UNL     1      -3.115  14.229  25.139  0.00  0.00    +0.000 C 
ATOM     22  C   UNL     1      -2.491  14.932  23.918  0.00  0.00    +0.000 C 
ATOM     23  C   UNL     1      -3.256  16.255  23.695  0.00  0.00    +0.000 C 
ATOM     24  C   UNL     1      -1.032  15.292  24.259  0.00  0.00    +0.000 C 
ENDBRANCH   1  22
BRANCH   5  25
ATOM     25  C   UNL     1      -6.831  13.453  21.958  0.00  0.00    +0.000 C 
BRANCH  25  26
ATOM     26  N   UNL     1      -7.024  12.765  23.232  0.00  0.00    +0.000 N 
ATOM     27  C   UNL     1      -7.512  11.500  23.424  0.00  0.00    +0.000 C 
ATOM     28  O   UNL     1      -7.914  10.738  22.555  0.00  0.00    +0.000 OA
BRANCH  26  29
ATOM     29  O   UNL     1      -6.357  13.339  24.329  0.00  0.00    +0.000 OA
ATOM     30  H   UNL     1      -7.071  13.818  24.791  0.00  0.00    +0.000 HD
ENDBRANCH  26  29
ENDBRANCH  25  26
ENDBRANCH   5  25
TORSDOF 4
ENDMDL
MODEL 9
REMARK VINA RESULT:      -6.1      1.662      2.790
REMARK  Name = 
REMARK  7 active torsions:
REMARK  status: ('A' for Active; 'I' for Inactive)
REMARK    1  A    between atoms: C_1  and  C_2
REMARK    2  A    between atoms: C_2  and  C_3
REMARK    3  A    between atoms: C_2  and  C_4
REMARK    4  A    between atoms: C_2  and  C_5
REMARK    5  A    between atoms: C_9  and  C_10
REMARK    6  A    between atoms: C_10  and  N_11
REMARK    7  A    between atoms: N_11  and  O_12
REMARK                            x       y       z     vdW  Elec       q    Type
REMARK                         _______ _______ _______ _____ _____    ______ ____
ROOT
ATOM      1  C   UNL     1      -4.887  13.632  22.033  0.00  0.00    +0.000 C 
ATOM      2  N   UNL     1      -5.427  12.515  21.256  0.00  0.00    +0.000 N 
ATOM      3  C   UNL     1      -5.092  12.321  19.926  0.00  0.00    +0.000 C 
ATOM      4  O   UNL     1      -4.382  13.115  19.315  0.00  0.00    +0.000 OA
ATOM      5  C   UNL     1      -5.642  11.026  19.328  0.00  0.00    +0.000 C 
ATOM      6  C   UNL     1      -5.183  10.768  17.873  0.00  0.00    +0.000 C 
ATOM      7  C   UNL     1      -3.893   9.950  17.749  0.00  0.00    +0.000 C 
ATOM      8  C   UNL     1      -2.630  10.802  17.723  0.00  0.00    +0.000 C 
ATOM      9  C   UNL     1      -1.391   9.914  17.619  0.00  0.00    +0.000 C 
ATOM     10  C   UNL     1      -0.076  10.692  17.698  0.00  0.00    +0.000 C 
ATOM     11  C   UNL     1       0.460  10.853  19.125  0.00  0.00    +0.000 C 
ATOM     12  C   UNL     1      -0.065  12.089  19.860  0.00  0.00    +0.000 C 
ATOM     13  C   UNL     1       0.541  12.171  21.261  0.00  0.00    +0.000 C 
ATOM     14  C   UNL     1       0.064  13.386  22.063  0.00  0.00    +0.000 C 
ATOM     15  C   UNL     1      -1.193  13.126  22.892  0.00  0.00    +0.000 C 
ATOM     16  N   UNL     1      -2.433  13.393  22.193  0.00  0.00    +0.000 N 
ATOM     17  C   UNL     1      -3.647  13.069  22.770  0.00  0.00    +0.000 C 
ATOM     18  O   UNL     1      -3.738  12.298  23.726  0.00  0.00    +0.000 OA
ATOM     19  H   UNL     1      -5.728  11.711  21.793  0.00  0.00    +0.000 HD
ATOM     20  H   UNL     1      -2.425  13.989  21.372  0.00  0.00    +0.000 HD
ENDROOT
BRANCH   1  22
ATOM     21  C   UNL     1      -5.417  15.357  23.911  0.00  0.00    +0.000 C 
ATOM     22  C   UNL     1      -5.968  14.270  22.967  0.00  0.00    +0.000 C 
ATOM     23  C   UNL     1      -6.583  13.155  23.842  0.00  0.00    +0.000 C 
ATOM     24  C   UNL     1      -7.108  14.885  22.132  0.00  0.00    +0.000 C 
ENDBRANCH   1  22
BRANCH   5  25
ATOM     25  C   UNL     1      -7.180  10.963  19.437  0.00  0.00    +0.000 C 
BRANCH  25  26
ATOM     26  N   UNL     1      -7.700  10.202  20.570  0.00  0.00    +0.000 N 
ATOM     27  C   UNL     1      -7.718   8.840  20.715  0.00  0.00    +0.000 C 
ATOM     28  O   UNL     1      -7.334   8.019  19.893  0.00  0.00    +0.000 OA
BRANCH  26  29
ATOM     29  O   UNL     1      -7.915  10.947  21.744  0.00  0.00    +0.000 OA
ATOM     30  H   UNL     1      -7.232  10.601  22.349  0.00  0.00    +0.000 HD
ENDBRANCH  26  29
ENDBRANCH  25  26
ENDBRANCH   5  25
TORSDOF 4
ENDMDL
