MODEL 1
REMARK VINA RESULT:      -4.8      0.000      0.000
REMARK  Name = 
REMARK  4 active torsions:
REMARK  status: ('A' for Active; 'I' for Inactive)
REMARK    1  A    between atoms: C_1  and  O_2
REMARK    2  A    between atoms: O_2  and  C_3
REMARK    3  A    between atoms: C_3  and  C_4
REMARK    4  A    between atoms: C_9  and  C_10
REMARK                            x       y       z     vdW  Elec       q    Type
REMARK                         _______ _______ _______ _____ _____    ______ ____
ROOT
ATOM      1  C   UNL     1       5.810   5.312  17.087  0.00  0.00    +0.000 A 
ATOM      2  N   UNL     1       5.379   4.213  17.715  0.00  0.00    +0.000 NA
ATOM      3  O   UNL     1       6.018   4.200  18.956  0.00  0.00    +0.000 OA
ATOM      4  N   UNL     1       6.863   5.360  19.023  0.00  0.00    +0.000 N 
ATOM      5  O   UNL     1       7.495   5.531  20.089  0.00  0.00    +0.000 OA
ATOM      6  C   UNL     1       6.712   6.035  17.890  0.00  0.00    +0.000 A 
ENDROOT
BRANCH   6   7
ATOM      7  C   UNL     1       7.368   7.255  17.630  0.00  0.00    +0.000 C 
ATOM      8  N   UNL     1       7.946   8.241  17.432  0.00  0.00    +0.000 NA
ENDBRANCH   6   7
BRANCH   1   9
ATOM      9  C   UNL     1       5.332   5.641  15.713  0.00  0.00    +0.000 C 
BRANCH   9  11
ATOM     10  C   UNL     1       6.357   4.226  14.130  0.00  0.00    +0.000 C 
ATOM     11  O   UNL     1       6.394   5.497  14.768  0.00  0.00    +0.000 OA
ENDBRANCH   9  11
ENDBRANCH   1   9
TORSDOF 3
ENDMDL
MODEL 2
REMARK VINA RESULT:      -4.8      1.710      2.116
REMARK  Name = 
REMARK  4 active torsions:
REMARK  status: ('A' for Active; 'I' for Inactive)
REMARK    1  A    between atoms: C_1  and  O_2
REMARK    2  A    between atoms: O_2  and  C_3
REMARK    3  A    between atoms: C_3  and  C_4
REMARK    4  A    between atoms: C_9  and  C_10
REMARK                            x       y       z     vdW  Elec       q    Type
REMARK                         _______ _______ _______ _____ _____    ______ ____
ROOT
ATOM      1  C   UNL     1       6.709   4.956  16.467  0.00  0.00    +0.000 A 
ATOM      2  N   UNL     1       7.868   4.371  16.790  0.00  0.00    +0.000 NA
ATOM      3  O   UNL     1       7.987   4.487  18.176  0.00  0.00    +0.000 OA
ATOM      4  N   UNL     1       6.826   5.184  18.656  0.00  0.00    +0.000 N 
ATOM      5  O   UNL     1       6.746   5.351  19.894  0.00  0.00    +0.000 OA
ATOM      6  C   UNL     1       6.051   5.445  17.611  0.00  0.00    +0.000 A 
ENDROOT
BRANCH   6   7
ATOM      7  C   UNL     1       4.803   6.090  17.723  0.00  0.00    +0.000 C 
ATOM      8  N   UNL     1       3.771   6.602  17.854  0.00  0.00    +0.000 NA
ENDBRANCH   6   7
BRANCH   1   9
ATOM      9  C   UNL     1       6.261   5.024  15.046  0.00  0.00    +0.000 C 
BRANCH   9  11
ATOM     10  C   UNL     1       6.267   3.715  13.084  0.00  0.00    +0.000 C 
ATOM     11  O   UNL     1       6.134   3.709  14.501  0.00  0.00    +0.000 OA
ENDBRANCH   9  11
ENDBRANCH   1   9
TORSDOF 3
ENDMDL
MODEL 3
REMARK VINA RESULT:      -4.8      1.208      2.599
REMARK  Name = 
REMARK  4 active torsions:
REMARK  status: ('A' for Active; 'I' for Inactive)
REMARK    1  A    between atoms: C_1  and  O_2
REMARK    2  A    between atoms: O_2  and  C_3
REMARK    3  A    between atoms: C_3  and  C_4
REMARK    4  A    between atoms: C_9  and  C_10
REMARK                            x       y       z     vdW  Elec       q    Type
REMARK                         _______ _______ _______ _____ _____    ______ ____
ROOT
ATOM      1  C   UNL     1       6.441   5.930  16.997  0.00  0.00    +0.000 A 
ATOM      2  N   UNL     1       7.477   6.776  17.035  0.00  0.00    +0.000 NA
ATOM      3  O   UNL     1       8.015   6.671  18.318  0.00  0.00    +0.000 OA
ATOM      4  N   UNL     1       7.230   5.712  19.044  0.00  0.00    +0.000 N 
ATOM      5  O   UNL     1       7.592   5.465  20.216  0.00  0.00    +0.000 OA
ATOM      6  C   UNL     1       6.290   5.258  18.224  0.00  0.00    +0.000 A 
ENDROOT
BRANCH   6   7
ATOM      7  C   UNL     1       5.358   4.269  18.599  0.00  0.00    +0.000 C 
ATOM      8  N   UNL     1       4.602   3.462  18.949  0.00  0.00    +0.000 NA
ENDBRANCH   6   7
BRANCH   1   9
ATOM      9  C   UNL     1       5.617   5.790  15.762  0.00  0.00    +0.000 C 
BRANCH   9  11
ATOM     10  C   UNL     1       6.338   4.056  14.336  0.00  0.00    +0.000 C 
ATOM     11  O   UNL     1       6.443   5.439  14.650  0.00  0.00    +0.000 OA
ENDBRANCH   9  11
ENDBRANCH   1   9
TORSDOF 3
ENDMDL
MODEL 4
REMARK VINA RESULT:      -4.7      2.124      3.138
REMARK  Name = 
REMARK  4 active torsions:
REMARK  status: ('A' for Active; 'I' for Inactive)
REMARK    1  A    between atoms: C_1  and  O_2
REMARK    2  A    between atoms: O_2  and  C_3
REMARK    3  A    between atoms: C_3  and  C_4
REMARK    4  A    between atoms: C_9  and  C_10
REMARK                            x       y       z     vdW  Elec       q    Type
REMARK                         _______ _______ _______ _____ _____    ______ ____
ROOT
ATOM      1  C   UNL     1       6.232   4.490  15.628  0.00  0.00    +0.000 A 
ATOM      2  N   UNL     1       7.530   4.758  15.812  0.00  0.00    +0.000 NA
ATOM      3  O   UNL     1       7.731   4.770  17.193  0.00  0.00    +0.000 OA
ATOM      4  N   UNL     1       6.468   4.498  17.820  0.00  0.00    +0.000 N 
ATOM      5  O   UNL     1       6.465   4.437  19.070  0.00  0.00    +0.000 OA
ATOM      6  C   UNL     1       5.572   4.311  16.858  0.00  0.00    +0.000 A 
ENDROOT
BRANCH   6   7
ATOM      7  C   UNL     1       4.225   3.984  17.116  0.00  0.00    +0.000 C 
ATOM      8  N   UNL     1       3.132   3.685  17.357  0.00  0.00    +0.000 NA
ENDBRANCH   6   7
BRANCH   1   9
ATOM      9  C   UNL     1       5.659   4.409  14.253  0.00  0.00    +0.000 C 
BRANCH   9  11
ATOM     10  C   UNL     1       5.789   3.286  12.184  0.00  0.00    +0.000 C 
ATOM     11  O   UNL     1       6.361   3.436  13.478  0.00  0.00    +0.000 OA
ENDBRANCH   9  11
ENDBRANCH   1   9
TORSDOF 3
ENDMDL
MODEL 5
REMARK VINA RESULT:      -4.7      4.543      6.039
REMARK  Name = 
REMARK  4 active torsions:
REMARK  status: ('A' for Active; 'I' for Inactive)
REMARK    1  A    between atoms: C_1  and  O_2
REMARK    2  A    between atoms: O_2  and  C_3
REMARK    3  A    between atoms: C_3  and  C_4
REMARK    4  A    between atoms: C_9  and  C_10
REMARK                            x       y       z     vdW  Elec       q    Type
REMARK                         _______ _______ _______ _____ _____    ______ ____
ROOT
ATOM      1  C   UNL     1       2.431   4.722  19.031  0.00  0.00    +0.000 A 
ATOM      2  N   UNL     1       2.044   4.841  17.755  0.00  0.00    +0.000 NA
ATOM      3  O   UNL     1       1.151   3.793  17.524  0.00  0.00    +0.000 OA
ATOM      4  N   UNL     1       1.036   3.041  18.742  0.00  0.00    +0.000 N 
ATOM      5  O   UNL     1       0.243   2.072  18.729  0.00  0.00    +0.000 OA
ATOM      6  C   UNL     1       1.803   3.627  19.652  0.00  0.00    +0.000 A 
ENDROOT
BRANCH   6   7
ATOM      7  C   UNL     1       1.901   3.172  20.983  0.00  0.00    +0.000 C 
ATOM      8  N   UNL     1       1.938   2.806  22.082  0.00  0.00    +0.000 NA
ENDBRANCH   6   7
BRANCH   1   9
ATOM      9  C   UNL     1       3.406   5.685  19.622  0.00  0.00    +0.000 C 
BRANCH   9  11
ATOM     10  C   UNL     1       5.459   4.656  19.088  0.00  0.00    +0.000 C 
ATOM     11  O   UNL     1       4.588   5.750  18.823  0.00  0.00    +0.000 OA
ENDBRANCH   9  11
ENDBRANCH   1   9
TORSDOF 3
ENDMDL
MODEL 6
REMARK VINA RESULT:      -4.7      1.835      3.493
REMARK  Name = 
REMARK  4 active torsions:
REMARK  status: ('A' for Active; 'I' for Inactive)
REMARK    1  A    between atoms: C_1  and  O_2
REMARK    2  A    between atoms: O_2  and  C_3
REMARK    3  A    between atoms: C_3  and  C_4
REMARK    4  A    between atoms: C_9  and  C_10
REMARK                            x       y       z     vdW  Elec       q    Type
REMARK                         _______ _______ _______ _____ _____    ______ ____
ROOT
ATOM      1  C   UNL     1       5.706   4.653  17.236  0.00  0.00    +0.000 A 
ATOM      2  N   UNL     1       5.427   3.669  16.374  0.00  0.00    +0.000 NA
ATOM      3  O   UNL     1       6.217   3.907  15.248  0.00  0.00    +0.000 OA
ATOM      4  N   UNL     1       6.980   5.098  15.494  0.00  0.00    +0.000 N 
ATOM      5  O   UNL     1       7.777   5.448  14.594  0.00  0.00    +0.000 OA
ATOM      6  C   UNL     1       6.674   5.529  16.711  0.00  0.00    +0.000 A 
ENDROOT
BRANCH   6   7
ATOM      7  C   UNL     1       7.270   6.664  17.297  0.00  0.00    +0.000 C 
ATOM      8  N   UNL     1       7.763   7.617  17.738  0.00  0.00    +0.000 NA
ENDBRANCH   6   7
BRANCH   1   9
ATOM      9  C   UNL     1       5.026   4.718  18.562  0.00  0.00    +0.000 C 
BRANCH   9  11
ATOM     10  C   UNL     1       4.335   2.790  19.730  0.00  0.00    +0.000 C 
ATOM     11  O   UNL     1       5.435   3.625  19.386  0.00  0.00    +0.000 OA
ENDBRANCH   9  11
ENDBRANCH   1   9
TORSDOF 3
ENDMDL
MODEL 7
REMARK VINA RESULT:      -4.7      4.269      5.914
REMARK  Name = 
REMARK  4 active torsions:
REMARK  status: ('A' for Active; 'I' for Inactive)
REMARK    1  A    between atoms: C_1  and  O_2
REMARK    2  A    between atoms: O_2  and  C_3
REMARK    3  A    between atoms: C_3  and  C_4
REMARK    4  A    between atoms: C_9  and  C_10
REMARK                            x       y       z     vdW  Elec       q    Type
REMARK                         _______ _______ _______ _____ _____    ______ ____
ROOT
ATOM      1  C   UNL     1       3.468   3.282  18.834  0.00  0.00    +0.000 A 
ATOM      2  N   UNL     1       3.313   3.298  17.505  0.00  0.00    +0.000 NA
ATOM      3  O   UNL     1       2.011   2.860  17.262  0.00  0.00    +0.000 OA
ATOM      4  N   UNL     1       1.402   2.576  18.531  0.00  0.00    +0.000 N 
ATOM      5  O   UNL     1       0.209   2.198  18.507  0.00  0.00    +0.000 OA
ATOM      6  C   UNL     1       2.291   2.855  19.476  0.00  0.00    +0.000 A 
ENDROOT
BRANCH   6   7
ATOM      7  C   UNL     1       2.014   2.727  20.853  0.00  0.00    +0.000 C 
ATOM      8  N   UNL     1       1.783   2.578  21.979  0.00  0.00    +0.000 NA
ENDBRANCH   6   7
BRANCH   1   9
ATOM      9  C   UNL     1       4.762   3.688  19.455  0.00  0.00    +0.000 C 
BRANCH   9  11
ATOM     10  C   UNL     1       6.348   5.376  19.018  0.00  0.00    +0.000 C 
ATOM     11  O   UNL     1       5.618   4.281  18.478  0.00  0.00    +0.000 OA
ENDBRANCH   9  11
ENDBRANCH   1   9
TORSDOF 3
ENDMDL
MODEL 8
REMARK VINA RESULT:      -4.6      1.829      2.516
REMARK  Name = 
REMARK  4 active torsions:
REMARK  status: ('A' for Active; 'I' for Inactive)
REMARK    1  A    between atoms: C_1  and  O_2
REMARK    2  A    between atoms: O_2  and  C_3
REMARK    3  A    between atoms: C_3  and  C_4
REMARK    4  A    between atoms: C_9  and  C_10
REMARK                            x       y       z     vdW  Elec       q    Type
REMARK                         _______ _______ _______ _____ _____    ______ ____
ROOT
ATOM      1  C   UNL     1       6.725   4.462  16.448  0.00  0.00    +0.000 A 
ATOM      2  N   UNL     1       7.985   4.300  16.868  0.00  0.00    +0.000 NA
ATOM      3  O   UNL     1       7.968   4.540  18.243  0.00  0.00    +0.000 OA
ATOM      4  N   UNL     1       6.618   4.859  18.614  0.00  0.00    +0.000 N 
ATOM      5  O   UNL     1       6.407   5.073  19.829  0.00  0.00    +0.000 OA
ATOM      6  C   UNL     1       5.872   4.790  17.518  0.00  0.00    +0.000 A 
ENDROOT
BRANCH   6   7
ATOM      7  C   UNL     1       4.479   5.009  17.522  0.00  0.00    +0.000 C 
ATOM      8  N   UNL     1       3.329   5.153  17.552  0.00  0.00    +0.000 NA
ENDBRANCH   6   7
BRANCH   1   9
ATOM      9  C   UNL     1       6.374   4.290  15.008  0.00  0.00    +0.000 C 
BRANCH   9  11
ATOM     10  C   UNL     1       7.668   5.006  13.172  0.00  0.00    +0.000 C 
ATOM     11  O   UNL     1       6.829   5.410  14.248  0.00  0.00    +0.000 OA
ENDBRANCH   9  11
ENDBRANCH   1   9
TORSDOF 3
ENDMDL
MODEL 9
REMARK VINA RESULT:      -4.6      2.299      2.866
REMARK  Name = 
REMARK  4 active torsions:
REMARK  status: ('A' for Active; 'I' for Inactive)
REMARK    1  A    between atoms: C_1  and  O_2
REMARK    2  A    between atoms: O_2  and  C_3
REMARK    3  A    between atoms: C_3  and  C_4
REMARK    4  A    between atoms: C_9  and  C_10
REMARK                            x       y       z     vdW  Elec       q    Type
REMARK                         _______ _______ _______ _____ _____    ______ ____
ROOT
ATOM      1  C   UNL     1       5.504   4.322  18.002  0.00  0.00    +0.000 A 
ATOM      2  N   UNL     1       5.398   4.345  19.335  0.00  0.00    +0.000 NA
ATOM      3  O   UNL     1       6.444   5.147  19.793  0.00  0.00    +0.000 OA
ATOM      4  N   UNL     1       7.184   5.596  18.647  0.00  0.00    +0.000 N 
ATOM      5  O   UNL     1       8.149   6.361  18.868  0.00  0.00    +0.000 OA
ATOM      6  C   UNL     1       6.591   5.103  17.566  0.00  0.00    +0.000 A 
ENDROOT
BRANCH   6   7
ATOM      7  C   UNL     1       7.033   5.376  16.256  0.00  0.00    +0.000 C 
ATOM      8  N   UNL     1       7.361   5.579  15.162  0.00  0.00    +0.000 NA
ENDBRANCH   6   7
BRANCH   1   9
ATOM      9  C   UNL     1       4.540   3.540  17.174  0.00  0.00    +0.000 C 
BRANCH   9  11
ATOM     10  C   UNL     1       2.875   2.062  17.951  0.00  0.00    +0.000 C 
ATOM     11  O   UNL     1       3.288   3.421  17.851  0.00  0.00    +0.000 OA
ENDBRANCH   9  11
ENDBRANCH   1   9
TORSDOF 3
ENDMDL
