MODEL 1
REMARK VINA RESULT:      -8.5      0.000      0.000
REMARK  Name = 
REMARK  8 active torsions:
REMARK  status: ('A' for Active; 'I' for Inactive)
REMARK    1  A    between atoms: C_1  and  O_2
REMARK    2  A    between atoms: O_2  and  C_3
REMARK    3  A    between atoms: C_9  and  O_10
REMARK    4  A    between atoms: O_10  and  C_11
REMARK    5  A    between atoms: C_20  and  C_21
REMARK    6  A    between atoms: N_23  and  C_24
REMARK    7  A    between atoms: C_28  and  S_29
REMARK    8  A    between atoms: S_29  and  N_30
REMARK                            x       y       z     vdW  Elec       q    Type
REMARK                         _______ _______ _______ _____ _____    ______ ____
ROOT
ATOM      1  C   UNL     1       3.938   6.023  18.527  0.00  0.00    +0.000 A 
ATOM      2  N   UNL     1       4.337   4.787  18.932  0.00  0.00    +0.000 NA
ATOM      3  C   UNL     1       3.564   4.121  19.808  0.00  0.00    +0.000 A 
ATOM      4  C   UNL     1       3.990   2.903  20.320  0.00  0.00    +0.000 A 
ATOM      5  C   UNL     1       3.218   2.174  21.231  0.00  0.00    +0.000 A 
ATOM      6  C   UNL     1       1.983   2.664  21.644  0.00  0.00    +0.000 A 
ATOM      7  C   UNL     1       1.540   3.888  21.159  0.00  0.00    +0.000 A 
ATOM      8  C   UNL     1       2.325   4.620  20.250  0.00  0.00    +0.000 A 
ATOM      9  C   UNL     1       1.907   5.857  19.756  0.00  0.00    +0.000 A 
ATOM     10  C   UNL     1       2.715   6.590  18.874  0.00  0.00    +0.000 A 
ENDROOT
BRANCH  10  11
ATOM     11  C   UNL     1       2.180   7.904  18.411  0.00  0.00    +0.000 C 
ATOM     12  O   UNL     1       2.565   8.302  17.313  0.00  0.00    +0.000 OA
ATOM     13  N   UNL     1       1.345   8.623  19.252  0.00  0.00    +0.000 N 
ATOM     14  H   UNL     1       1.218   8.280  20.197  0.00  0.00    +0.000 HD
BRANCH  13  15
ATOM     15  C   UNL     1       0.752   9.871  18.947  0.00  0.00    +0.000 A 
ATOM     16  C   UNL     1       1.420  11.093  19.096  0.00  0.00    +0.000 A 
ATOM     17  C   UNL     1       0.785  12.310  18.834  0.00  0.00    +0.000 A 
ATOM     18  C   UNL     1      -0.542  12.323  18.430  0.00  0.00    +0.000 A 
ATOM     19  C   UNL     1      -1.216  11.111  18.283  0.00  0.00    +0.000 A 
ATOM     20  C   UNL     1      -0.571   9.883  18.497  0.00  0.00    +0.000 A 
BRANCH  19  21
ATOM     21  S   UNL     1      -2.949  11.135  17.944  0.00  0.00    +0.000 S 
ATOM     22  O   UNL     1      -3.442   9.782  17.842  0.00  0.00    +0.000 OA
ATOM     23  O   UNL     1      -3.582  12.142  18.762  0.00  0.00    +0.000 OA
BRANCH  21  24
ATOM     24  N   UNL     1      -2.924  11.745  16.379  0.00  0.00    +0.000 NA
ATOM     25  H   UNL     1      -2.022  12.166  16.163  0.00  0.00    +0.000 HD
ATOM     26  H   UNL     1      -3.252  11.051  15.709  0.00  0.00    +0.000 HD
ENDBRANCH  21  24
ENDBRANCH  19  21
ENDBRANCH  13  15
ENDBRANCH  10  11
BRANCH   1  27
ATOM     27  O   UNL     1       4.770   6.735  17.674  0.00  0.00    +0.000 OA
BRANCH  27  34
ATOM     28  C   UNL     1       6.950   5.990  16.755  0.00  0.00    +0.000 A 
ATOM     29  C   UNL     1       7.596   5.347  15.691  0.00  0.00    +0.000 A 
ATOM     30  C   UNL     1       6.857   4.853  14.619  0.00  0.00    +0.000 A 
ATOM     31  F   UNL     1       7.497   4.275  13.593  0.00  0.00    +0.000 F 
ATOM     32  C   UNL     1       5.476   4.970  14.581  0.00  0.00    +0.000 A 
ATOM     33  C   UNL     1       4.817   5.574  15.649  0.00  0.00    +0.000 A 
ATOM     34  C   UNL     1       5.543   6.067  16.746  0.00  0.00    +0.000 A 
BRANCH  28  36
ATOM     35  C   UNL     1       7.802   5.831  18.983  0.00  0.00    +0.000 C 
ATOM     36  O   UNL     1       7.610   6.588  17.795  0.00  0.00    +0.000 OA
ENDBRANCH  28  36
ENDBRANCH  27  34
ENDBRANCH   1  27
TORSDOF 7
ENDMDL
MODEL 2
REMARK VINA RESULT:      -8.4      2.108      2.502
REMARK  Name = 
REMARK  8 active torsions:
REMARK  status: ('A' for Active; 'I' for Inactive)
REMARK    1  A    between atoms: C_1  and  O_2
REMARK    2  A    between atoms: O_2  and  C_3
REMARK    3  A    between atoms: C_9  and  O_10
REMARK    4  A    between atoms: O_10  and  C_11
REMARK    5  A    between atoms: C_20  and  C_21
REMARK    6  A    between atoms: N_23  and  C_24
REMARK    7  A    between atoms: C_28  and  S_29
REMARK    8  A    between atoms: S_29  and  N_30
REMARK                            x       y       z     vdW  Elec       q    Type
REMARK                         _______ _______ _______ _____ _____    ______ ____
ROOT
ATOM      1  C   UNL     1       3.856   6.133  18.513  0.00  0.00    +0.000 A 
ATOM      2  N   UNL     1       4.208   4.871  18.879  0.00  0.00    +0.000 NA
ATOM      3  C   UNL     1       3.422   4.217  19.753  0.00  0.00    +0.000 A 
ATOM      4  C   UNL     1       3.804   2.969  20.226  0.00  0.00    +0.000 A 
ATOM      5  C   UNL     1       3.017   2.251  21.134  0.00  0.00    +0.000 A 
ATOM      6  C   UNL     1       1.813   2.783  21.582  0.00  0.00    +0.000 A 
ATOM      7  C   UNL     1       1.414   4.037  21.136  0.00  0.00    +0.000 A 
ATOM      8  C   UNL     1       2.214   4.758  20.230  0.00  0.00    +0.000 A 
ATOM      9  C   UNL     1       1.842   6.024  19.776  0.00  0.00    +0.000 A 
ATOM     10  C   UNL     1       2.666   6.744  18.897  0.00  0.00    +0.000 A 
ENDROOT
BRANCH  10  11
ATOM     11  C   UNL     1       2.181   8.091  18.477  0.00  0.00    +0.000 C 
ATOM     12  O   UNL     1       2.570   8.503  17.385  0.00  0.00    +0.000 OA
ATOM     13  N   UNL     1       1.387   8.821  19.348  0.00  0.00    +0.000 N 
ATOM     14  H   UNL     1       1.257   8.457  20.285  0.00  0.00    +0.000 HD
BRANCH  13  15
ATOM     15  C   UNL     1       0.842  10.100  19.085  0.00  0.00    +0.000 A 
ATOM     16  C   UNL     1      -0.457  10.294  18.599  0.00  0.00    +0.000 A 
ATOM     17  C   UNL     1      -0.943  11.570  18.301  0.00  0.00    +0.000 A 
ATOM     18  C   UNL     1      -0.125  12.677  18.474  0.00  0.00    +0.000 A 
ATOM     19  C   UNL     1       1.171  12.492  18.954  0.00  0.00    +0.000 A 
ATOM     20  C   UNL     1       1.649  11.220  19.300  0.00  0.00    +0.000 A 
BRANCH  19  21
ATOM     21  S   UNL     1       2.266  13.877  19.003  0.00  0.00    +0.000 S 
ATOM     22  O   UNL     1       1.566  15.065  18.578  0.00  0.00    +0.000 OA
ATOM     23  O   UNL     1       3.054  13.820  20.213  0.00  0.00    +0.000 OA
BRANCH  21  24
ATOM     24  N   UNL     1       3.301  13.466  17.746  0.00  0.00    +0.000 NA
ATOM     25  H   UNL     1       3.397  12.455  17.664  0.00  0.00    +0.000 HD
ATOM     26  H   UNL     1       3.045  13.950  16.887  0.00  0.00    +0.000 HD
ENDBRANCH  21  24
ENDBRANCH  19  21
ENDBRANCH  13  15
ENDBRANCH  10  11
BRANCH   1  27
ATOM     27  O   UNL     1       4.703   6.830  17.662  0.00  0.00    +0.000 OA
BRANCH  27  34
ATOM     28  C   UNL     1       6.908   6.035  16.847  0.00  0.00    +0.000 A 
ATOM     29  C   UNL     1       7.588   5.378  15.814  0.00  0.00    +0.000 A 
ATOM     30  C   UNL     1       6.891   4.902  14.707  0.00  0.00    +0.000 A 
ATOM     31  F   UNL     1       7.565   4.311  13.712  0.00  0.00    +0.000 F 
ATOM     32  C   UNL     1       5.516   5.052  14.603  0.00  0.00    +0.000 A 
ATOM     33  C   UNL     1       4.821   5.670  15.640  0.00  0.00    +0.000 A 
ATOM     34  C   UNL     1       5.504   6.145  16.771  0.00  0.00    +0.000 A 
BRANCH  28  36
ATOM     35  C   UNL     1       7.733   5.824  19.081  0.00  0.00    +0.000 C 
ATOM     36  O   UNL     1       7.531   6.617  17.919  0.00  0.00    +0.000 OA
ENDBRANCH  28  36
ENDBRANCH  27  34
ENDBRANCH   1  27
TORSDOF 7
ENDMDL
MODEL 3
REMARK VINA RESULT:      -8.4      4.113      9.007
REMARK  Name = 
REMARK  8 active torsions:
REMARK  status: ('A' for Active; 'I' for Inactive)
REMARK    1  A    between atoms: C_1  and  O_2
REMARK    2  A    between atoms: O_2  and  C_3
REMARK    3  A    between atoms: C_9  and  O_10
REMARK    4  A    between atoms: O_10  and  C_11
REMARK    5  A    between atoms: C_20  and  C_21
REMARK    6  A    between atoms: N_23  and  C_24
REMARK    7  A    between atoms: C_28  and  S_29
REMARK    8  A    between atoms: S_29  and  N_30
REMARK                            x       y       z     vdW  Elec       q    Type
REMARK                         _______ _______ _______ _____ _____    ______ ____
ROOT
ATOM      1  C   UNL     1       0.269  11.140  19.277  0.00  0.00    +0.000 A 
ATOM      2  N   UNL     1      -0.878  11.789  19.614  0.00  0.00    +0.000 NA
ATOM      3  C   UNL     1      -2.017  11.444  18.986  0.00  0.00    +0.000 A 
ATOM      4  C   UNL     1      -3.185  12.153  19.231  0.00  0.00    +0.000 A 
ATOM      5  C   UNL     1      -4.392  11.828  18.602  0.00  0.00    +0.000 A 
ATOM      6  C   UNL     1      -4.444  10.764  17.707  0.00  0.00    +0.000 A 
ATOM      7  C   UNL     1      -3.287  10.047  17.433  0.00  0.00    +0.000 A 
ATOM      8  C   UNL     1      -2.074  10.385  18.061  0.00  0.00    +0.000 A 
ATOM      9  C   UNL     1      -0.895   9.687  17.794  0.00  0.00    +0.000 A 
ATOM     10  C   UNL     1       0.313  10.056  18.405  0.00  0.00    +0.000 A 
ENDROOT
BRANCH  10  11
ATOM     11  C   UNL     1       1.518   9.251  18.046  0.00  0.00    +0.000 C 
ATOM     12  O   UNL     1       2.318   9.770  17.269  0.00  0.00    +0.000 OA
ATOM     13  N   UNL     1       1.638   7.964  18.545  0.00  0.00    +0.000 N 
ATOM     14  H   UNL     1       0.847   7.576  19.046  0.00  0.00    +0.000 HD
BRANCH  13  15
ATOM     15  C   UNL     1       2.725   7.090  18.305  0.00  0.00    +0.000 A 
ATOM     16  C   UNL     1       3.809   7.424  17.483  0.00  0.00    +0.000 A 
ATOM     17  C   UNL     1       4.840   6.515  17.227  0.00  0.00    +0.000 A 
ATOM     18  C   UNL     1       4.793   5.245  17.783  0.00  0.00    +0.000 A 
ATOM     19  C   UNL     1       3.716   4.904  18.600  0.00  0.00    +0.000 A 
ATOM     20  C   UNL     1       2.702   5.826  18.900  0.00  0.00    +0.000 A 
BRANCH  19  21
ATOM     21  S   UNL     1       3.568   3.236  19.161  0.00  0.00    +0.000 S 
ATOM     22  O   UNL     1       2.885   3.210  20.432  0.00  0.00    +0.000 OA
ATOM     23  O   UNL     1       3.193   2.391  18.051  0.00  0.00    +0.000 OA
BRANCH  21  24
ATOM     24  N   UNL     1       5.180   2.900  19.487  0.00  0.00    +0.000 NA
ATOM     25  H   UNL     1       5.551   3.532  20.195  0.00  0.00    +0.000 HD
ATOM     26  H   UNL     1       5.318   1.908  19.673  0.00  0.00    +0.000 HD
ENDBRANCH  21  24
ENDBRANCH  19  21
ENDBRANCH  13  15
ENDBRANCH  10  11
BRANCH   1  27
ATOM     27  O   UNL     1       1.452  11.543  19.879  0.00  0.00    +0.000 OA
BRANCH  27  34
ATOM     28  C   UNL     1       1.781  13.890  20.615  0.00  0.00    +0.000 A 
ATOM     29  C   UNL     1       2.230  15.164  20.245  0.00  0.00    +0.000 A 
ATOM     30  C   UNL     1       2.742  15.383  18.968  0.00  0.00    +0.000 A 
ATOM     31  F   UNL     1       3.131  16.616  18.621  0.00  0.00    +0.000 F 
ATOM     32  C   UNL     1       2.832  14.354  18.043  0.00  0.00    +0.000 A 
ATOM     33  C   UNL     1       2.424  13.074  18.409  0.00  0.00    +0.000 A 
ATOM     34  C   UNL     1       1.918  12.829  19.696  0.00  0.00    +0.000 A 
BRANCH  28  36
ATOM     35  C   UNL     1      -0.025  14.306  22.125  0.00  0.00    +0.000 C 
ATOM     36  O   UNL     1       1.176  13.615  21.813  0.00  0.00    +0.000 OA
ENDBRANCH  28  36
ENDBRANCH  27  34
ENDBRANCH   1  27
TORSDOF 7
ENDMDL
MODEL 4
REMARK VINA RESULT:      -8.2      1.133      1.234
REMARK  Name = 
REMARK  8 active torsions:
REMARK  status: ('A' for Active; 'I' for Inactive)
REMARK    1  A    between atoms: C_1  and  O_2
REMARK    2  A    between atoms: O_2  and  C_3
REMARK    3  A    between atoms: C_9  and  O_10
REMARK    4  A    between atoms: O_10  and  C_11
REMARK    5  A    between atoms: C_20  and  C_21
REMARK    6  A    between atoms: N_23  and  C_24
REMARK    7  A    between atoms: C_28  and  S_29
REMARK    8  A    between atoms: S_29  and  N_30
REMARK                            x       y       z     vdW  Elec       q    Type
REMARK                         _______ _______ _______ _____ _____    ______ ____
ROOT
ATOM      1  C   UNL     1       3.810   6.220  18.461  0.00  0.00    +0.000 A 
ATOM      2  N   UNL     1       4.119   4.944  18.817  0.00  0.00    +0.000 NA
ATOM      3  C   UNL     1       3.303   4.305  19.675  0.00  0.00    +0.000 A 
ATOM      4  C   UNL     1       3.640   3.040  20.138  0.00  0.00    +0.000 A 
ATOM      5  C   UNL     1       2.821   2.337  21.029  0.00  0.00    +0.000 A 
ATOM      6  C   UNL     1       1.629   2.902  21.470  0.00  0.00    +0.000 A 
ATOM      7  C   UNL     1       1.275   4.173  21.033  0.00  0.00    +0.000 A 
ATOM      8  C   UNL     1       2.107   4.878  20.145  0.00  0.00    +0.000 A 
ATOM      9  C   UNL     1       1.779   6.160  19.700  0.00  0.00    +0.000 A 
ATOM     10  C   UNL     1       2.635   6.863  18.839  0.00  0.00    +0.000 A 
ENDROOT
BRANCH  10  11
ATOM     11  C   UNL     1       2.196   8.229  18.428  0.00  0.00    +0.000 C 
ATOM     12  O   UNL     1       2.439   8.563  17.269  0.00  0.00    +0.000 OA
ATOM     13  N   UNL     1       1.610   9.058  19.372  0.00  0.00    +0.000 N 
ATOM     14  H   UNL     1       1.602   8.744  20.335  0.00  0.00    +0.000 HD
BRANCH  13  15
ATOM     15  C   UNL     1       1.133  10.368  19.129  0.00  0.00    +0.000 A 
ATOM     16  C   UNL     1       1.919  11.375  18.554  0.00  0.00    +0.000 A 
ATOM     17  C   UNL     1       1.431  12.672  18.377  0.00  0.00    +0.000 A 
ATOM     18  C   UNL     1       0.143  12.987  18.788  0.00  0.00    +0.000 A 
ATOM     19  C   UNL     1      -0.645  11.991  19.364  0.00  0.00    +0.000 A 
ATOM     20  C   UNL     1      -0.178  10.674  19.501  0.00  0.00    +0.000 A 
BRANCH  19  21
ATOM     21  S   UNL     1      -2.212  12.433  20.047  0.00  0.00    +0.000 S 
ATOM     22  O   UNL     1      -3.267  12.003  19.160  0.00  0.00    +0.000 OA
ATOM     23  O   UNL     1      -2.213  12.151  21.463  0.00  0.00    +0.000 OA
BRANCH  21  24
ATOM     24  N   UNL     1      -2.126  14.104  19.898  0.00  0.00    +0.000 NA
ATOM     25  H   UNL     1      -2.423  14.406  18.971  0.00  0.00    +0.000 HD
ATOM     26  H   UNL     1      -2.592  14.566  20.677  0.00  0.00    +0.000 HD
ENDBRANCH  21  24
ENDBRANCH  19  21
ENDBRANCH  13  15
ENDBRANCH  10  11
BRANCH   1  27
ATOM     27  O   UNL     1       4.688   6.899  17.627  0.00  0.00    +0.000 OA
BRANCH  27  34
ATOM     28  C   UNL     1       6.899   6.034  16.907  0.00  0.00    +0.000 A 
ATOM     29  C   UNL     1       7.605   5.366  15.899  0.00  0.00    +0.000 A 
ATOM     30  C   UNL     1       6.945   4.931  14.752  0.00  0.00    +0.000 A 
ATOM     31  F   UNL     1       7.645   4.328  13.783  0.00  0.00    +0.000 F 
ATOM     32  C   UNL     1       5.584   5.132  14.585  0.00  0.00    +0.000 A 
ATOM     33  C   UNL     1       4.862   5.762  15.596  0.00  0.00    +0.000 A 
ATOM     34  C   UNL     1       5.506   6.197  16.766  0.00  0.00    +0.000 A 
BRANCH  28  36
ATOM     35  C   UNL     1       7.702   5.733  19.139  0.00  0.00    +0.000 C 
ATOM     36  O   UNL     1       7.490   6.578  18.017  0.00  0.00    +0.000 OA
ENDBRANCH  28  36
ENDBRANCH  27  34
ENDBRANCH   1  27
TORSDOF 7
ENDMDL
MODEL 5
REMARK VINA RESULT:      -8.2      3.837      9.537
REMARK  Name = 
REMARK  8 active torsions:
REMARK  status: ('A' for Active; 'I' for Inactive)
REMARK    1  A    between atoms: C_1  and  O_2
REMARK    2  A    between atoms: O_2  and  C_3
REMARK    3  A    between atoms: C_9  and  O_10
REMARK    4  A    between atoms: O_10  and  C_11
REMARK    5  A    between atoms: C_20  and  C_21
REMARK    6  A    between atoms: N_23  and  C_24
REMARK    7  A    between atoms: C_28  and  S_29
REMARK    8  A    between atoms: S_29  and  N_30
REMARK                            x       y       z     vdW  Elec       q    Type
REMARK                         _______ _______ _______ _____ _____    ______ ____
ROOT
ATOM      1  C   UNL     1      -0.139  11.490  18.695  0.00  0.00    +0.000 A 
ATOM      2  N   UNL     1      -0.395  12.827  18.714  0.00  0.00    +0.000 NA
ATOM      3  C   UNL     1       0.648  13.676  18.762  0.00  0.00    +0.000 A 
ATOM      4  C   UNL     1       0.423  15.040  18.884  0.00  0.00    +0.000 A 
ATOM      5  C   UNL     1       1.476  15.960  18.936  0.00  0.00    +0.000 A 
ATOM      6  C   UNL     1       2.792  15.515  18.858  0.00  0.00    +0.000 A 
ATOM      7  C   UNL     1       3.045  14.154  18.750  0.00  0.00    +0.000 A 
ATOM      8  C   UNL     1       1.982  13.233  18.708  0.00  0.00    +0.000 A 
ATOM      9  C   UNL     1       2.210  11.860  18.612  0.00  0.00    +0.000 A 
ATOM     10  C   UNL     1       1.140  10.952  18.602  0.00  0.00    +0.000 A 
ENDROOT
BRANCH  10  11
ATOM     11  C   UNL     1       1.491   9.504  18.504  0.00  0.00    +0.000 C 
ATOM     12  O   UNL     1       1.513   9.016  17.375  0.00  0.00    +0.000 OA
ATOM     13  N   UNL     1       1.707   8.784  19.669  0.00  0.00    +0.000 N 
ATOM     14  H   UNL     1       1.508   9.244  20.550  0.00  0.00    +0.000 HD
BRANCH  13  15
ATOM     15  C   UNL     1       2.060   7.415  19.733  0.00  0.00    +0.000 A 
ATOM     16  C   UNL     1       1.499   6.524  20.657  0.00  0.00    +0.000 A 
ATOM     17  C   UNL     1       1.909   5.190  20.726  0.00  0.00    +0.000 A 
ATOM     18  C   UNL     1       2.904   4.729  19.875  0.00  0.00    +0.000 A 
ATOM     19  C   UNL     1       3.469   5.611  18.955  0.00  0.00    +0.000 A 
ATOM     20  C   UNL     1       3.028   6.939  18.847  0.00  0.00    +0.000 A 
BRANCH  19  21
ATOM     21  S   UNL     1       4.852   5.073  17.998  0.00  0.00    +0.000 S 
ATOM     22  O   UNL     1       4.393   4.530  16.742  0.00  0.00    +0.000 OA
ATOM     23  O   UNL     1       5.907   6.056  18.089  0.00  0.00    +0.000 OA
BRANCH  21  24
ATOM     24  N   UNL     1       5.347   3.763  18.924  0.00  0.00    +0.000 NA
ATOM     25  H   UNL     1       5.142   2.882  18.453  0.00  0.00    +0.000 HD
ATOM     26  H   UNL     1       6.310   3.876  19.236  0.00  0.00    +0.000 HD
ENDBRANCH  21  24
ENDBRANCH  19  21
ENDBRANCH  13  15
ENDBRANCH  10  11
BRANCH   1  27
ATOM     27  O   UNL     1      -1.217  10.616  18.712  0.00  0.00    +0.000 OA
BRANCH  27  34
ATOM     28  C   UNL     1      -3.417  11.214  17.732  0.00  0.00    +0.000 A 
ATOM     29  C   UNL     1      -4.268  11.068  16.629  0.00  0.00    +0.000 A 
ATOM     30  C   UNL     1      -3.871  10.305  15.534  0.00  0.00    +0.000 A 
ATOM     31  F   UNL     1      -4.714  10.146  14.506  0.00  0.00    +0.000 F 
ATOM     32  C   UNL     1      -2.630   9.686  15.500  0.00  0.00    +0.000 A 
ATOM     33  C   UNL     1      -1.758   9.854  16.573  0.00  0.00    +0.000 A 
ATOM     34  C   UNL     1      -2.135  10.631  17.681  0.00  0.00    +0.000 A 
BRANCH  28  36
ATOM     35  C   UNL     1      -5.099  12.359  18.988  0.00  0.00    +0.000 C 
ATOM     36  O   UNL     1      -3.770  11.865  18.884  0.00  0.00    +0.000 OA
ENDBRANCH  28  36
ENDBRANCH  27  34
ENDBRANCH   1  27
TORSDOF 7
ENDMDL
MODEL 6
REMARK VINA RESULT:      -8.1      4.633      7.645
REMARK  Name = 
REMARK  8 active torsions:
REMARK  status: ('A' for Active; 'I' for Inactive)
REMARK    1  A    between atoms: C_1  and  O_2
REMARK    2  A    between atoms: O_2  and  C_3
REMARK    3  A    between atoms: C_9  and  O_10
REMARK    4  A    between atoms: O_10  and  C_11
REMARK    5  A    between atoms: C_20  and  C_21
REMARK    6  A    between atoms: N_23  and  C_24
REMARK    7  A    between atoms: C_28  and  S_29
REMARK    8  A    between atoms: S_29  and  N_30
REMARK                            x       y       z     vdW  Elec       q    Type
REMARK                         _______ _______ _______ _____ _____    ______ ____
ROOT
ATOM      1  C   UNL     1       0.627  10.701  19.292  0.00  0.00    +0.000 A 
ATOM      2  N   UNL     1       1.192   9.927  18.326  0.00  0.00    +0.000 NA
ATOM      3  C   UNL     1       1.720   8.743  18.683  0.00  0.00    +0.000 A 
ATOM      4  C   UNL     1       2.394   7.974  17.743  0.00  0.00    +0.000 A 
ATOM      5  C   UNL     1       2.956   6.735  18.069  0.00  0.00    +0.000 A 
ATOM      6  C   UNL     1       2.843   6.240  19.365  0.00  0.00    +0.000 A 
ATOM      7  C   UNL     1       2.187   6.996  20.328  0.00  0.00    +0.000 A 
ATOM      8  C   UNL     1       1.631   8.245  19.996  0.00  0.00    +0.000 A 
ATOM      9  C   UNL     1       0.978   9.028  20.948  0.00  0.00    +0.000 A 
ATOM     10  C   UNL     1       0.456  10.286  20.609  0.00  0.00    +0.000 A 
ENDROOT
BRANCH  10  11
ATOM     11  C   UNL     1      -0.218  11.048  21.701  0.00  0.00    +0.000 C 
ATOM     12  O   UNL     1       0.059  10.723  22.855  0.00  0.00    +0.000 OA
ATOM     13  N   UNL     1      -1.151  12.017  21.367  0.00  0.00    +0.000 N 
ATOM     14  H   UNL     1      -1.422  12.095  20.394  0.00  0.00    +0.000 HD
BRANCH  13  15
ATOM     15  C   UNL     1      -1.858  12.827  22.288  0.00  0.00    +0.000 A 
ATOM     16  C   UNL     1      -1.228  13.732  23.151  0.00  0.00    +0.000 A 
ATOM     17  C   UNL     1      -1.954  14.478  24.084  0.00  0.00    +0.000 A 
ATOM     18  C   UNL     1      -3.329  14.317  24.177  0.00  0.00    +0.000 A 
ATOM     19  C   UNL     1      -3.963  13.415  23.322  0.00  0.00    +0.000 A 
ATOM     20  C   UNL     1      -3.247  12.699  22.351  0.00  0.00    +0.000 A 
BRANCH  19  21
ATOM     21  S   UNL     1      -5.680  13.081  23.560  0.00  0.00    +0.000 S 
ATOM     22  O   UNL     1      -6.359  14.290  23.962  0.00  0.00    +0.000 OA
ATOM     23  O   UNL     1      -6.154  12.232  22.492  0.00  0.00    +0.000 OA
BRANCH  21  24
ATOM     24  N   UNL     1      -5.595  12.113  24.930  0.00  0.00    +0.000 NA
ATOM     25  H   UNL     1      -4.902  11.374  24.815  0.00  0.00    +0.000 HD
ATOM     26  H   UNL     1      -5.494  12.677  25.772  0.00  0.00    +0.000 HD
ENDBRANCH  21  24
ENDBRANCH  19  21
ENDBRANCH  13  15
ENDBRANCH  10  11
BRANCH   1  27
ATOM     27  O   UNL     1       0.142  11.950  18.931  0.00  0.00    +0.000 OA
BRANCH  27  34
ATOM     28  C   UNL     1       0.616  14.374  19.170  0.00  0.00    +0.000 A 
ATOM     29  C   UNL     1       1.576  15.383  19.019  0.00  0.00    +0.000 A 
ATOM     30  C   UNL     1       2.852  15.073  18.556  0.00  0.00    +0.000 A 
ATOM     31  F   UNL     1       3.743  16.058  18.382  0.00  0.00    +0.000 F 
ATOM     32  C   UNL     1       3.209  13.770  18.248  0.00  0.00    +0.000 A 
ATOM     33  C   UNL     1       2.277  12.750  18.429  0.00  0.00    +0.000 A 
ATOM     34  C   UNL     1       0.989  13.040  18.907  0.00  0.00    +0.000 A 
BRANCH  28  36
ATOM     35  C   UNL     1      -1.006  15.880  20.073  0.00  0.00    +0.000 C 
ATOM     36  O   UNL     1      -0.685  14.609  19.525  0.00  0.00    +0.000 OA
ENDBRANCH  28  36
ENDBRANCH  27  34
ENDBRANCH   1  27
TORSDOF 7
ENDMDL
MODEL 7
REMARK VINA RESULT:      -8.1      4.240      9.830
REMARK  Name = 
REMARK  8 active torsions:
REMARK  status: ('A' for Active; 'I' for Inactive)
REMARK    1  A    between atoms: C_1  and  O_2
REMARK    2  A    between atoms: O_2  and  C_3
REMARK    3  A    between atoms: C_9  and  O_10
REMARK    4  A    between atoms: O_10  and  C_11
REMARK    5  A    between atoms: C_20  and  C_21
REMARK    6  A    between atoms: N_23  and  C_24
REMARK    7  A    between atoms: C_28  and  S_29
REMARK    8  A    between atoms: S_29  and  N_30
REMARK                            x       y       z     vdW  Elec       q    Type
REMARK                         _______ _______ _______ _____ _____    ______ ____
ROOT
ATOM      1  C   UNL     1      -0.266  11.167  18.483  0.00  0.00    +0.000 A 
ATOM      2  N   UNL     1      -0.534  12.501  18.449  0.00  0.00    +0.000 NA
ATOM      3  C   UNL     1       0.488  13.362  18.604  0.00  0.00    +0.000 A 
ATOM      4  C   UNL     1       0.238  14.726  18.676  0.00  0.00    +0.000 A 
ATOM      5  C   UNL     1       1.270  15.658  18.835  0.00  0.00    +0.000 A 
ATOM      6  C   UNL     1       2.589  15.226  18.920  0.00  0.00    +0.000 A 
ATOM      7  C   UNL     1       2.866  13.866  18.866  0.00  0.00    +0.000 A 
ATOM      8  C   UNL     1       1.823  12.933  18.715  0.00  0.00    +0.000 A 
ATOM      9  C   UNL     1       2.073  11.561  18.669  0.00  0.00    +0.000 A 
ATOM     10  C   UNL     1       1.020  10.641  18.549  0.00  0.00    +0.000 A 
ENDROOT
BRANCH  10  11
ATOM     11  C   UNL     1       1.393   9.196  18.517  0.00  0.00    +0.000 C 
ATOM     12  O   UNL     1       1.305   8.627  17.430  0.00  0.00    +0.000 OA
ATOM     13  N   UNL     1       1.750   8.568  19.700  0.00  0.00    +0.000 N 
ATOM     14  H   UNL     1       1.636   9.088  20.563  0.00  0.00    +0.000 HD
BRANCH  13  15
ATOM     15  C   UNL     1       2.140   7.213  19.824  0.00  0.00    +0.000 A 
ATOM     16  C   UNL     1       1.408   6.270  20.555  0.00  0.00    +0.000 A 
ATOM     17  C   UNL     1       1.851   4.952  20.698  0.00  0.00    +0.000 A 
ATOM     18  C   UNL     1       3.049   4.561  20.120  0.00  0.00    +0.000 A 
ATOM     19  C   UNL     1       3.786   5.495  19.392  0.00  0.00    +0.000 A 
ATOM     20  C   UNL     1       3.324   6.806  19.204  0.00  0.00    +0.000 A 
BRANCH  19  21
ATOM     21  S   UNL     1       5.391   5.046  18.809  0.00  0.00    +0.000 S 
ATOM     22  O   UNL     1       5.526   5.421  17.421  0.00  0.00    +0.000 OA
ATOM     23  O   UNL     1       6.375   5.382  19.812  0.00  0.00    +0.000 OA
BRANCH  21  24
ATOM     24  N   UNL     1       5.246   3.374  18.832  0.00  0.00    +0.000 NA
ATOM     25  H   UNL     1       5.025   3.011  17.905  0.00  0.00    +0.000 HD
ATOM     26  H   UNL     1       6.047   2.941  19.288  0.00  0.00    +0.000 HD
ENDBRANCH  21  24
ENDBRANCH  19  21
ENDBRANCH  13  15
ENDBRANCH  10  11
BRANCH   1  27
ATOM     27  O   UNL     1      -1.331  10.282  18.387  0.00  0.00    +0.000 OA
BRANCH  27  34
ATOM     28  C   UNL     1      -3.143  10.729  16.752  0.00  0.00    +0.000 A 
ATOM     29  C   UNL     1      -4.398  11.317  16.552  0.00  0.00    +0.000 A 
ATOM     30  C   UNL     1      -5.047  11.960  17.603  0.00  0.00    +0.000 A 
ATOM     31  F   UNL     1      -6.228  12.549  17.381  0.00  0.00    +0.000 F 
ATOM     32  C   UNL     1      -4.481  12.023  18.867  0.00  0.00    +0.000 A 
ATOM     33  C   UNL     1      -3.250  11.409  19.091  0.00  0.00    +0.000 A 
ATOM     34  C   UNL     1      -2.586  10.745  18.047  0.00  0.00    +0.000 A 
BRANCH  28  36
ATOM     35  C   UNL     1      -3.015   9.988  14.483  0.00  0.00    +0.000 C 
ATOM     36  O   UNL     1      -2.398  10.165  15.751  0.00  0.00    +0.000 OA
ENDBRANCH  28  36
ENDBRANCH  27  34
ENDBRANCH   1  27
TORSDOF 7
ENDMDL
MODEL 8
REMARK VINA RESULT:      -8.1      3.911      8.963
REMARK  Name = 
REMARK  8 active torsions:
REMARK  status: ('A' for Active; 'I' for Inactive)
REMARK    1  A    between atoms: C_1  and  O_2
REMARK    2  A    between atoms: O_2  and  C_3
REMARK    3  A    between atoms: C_9  and  O_10
REMARK    4  A    between atoms: O_10  and  C_11
REMARK    5  A    between atoms: C_20  and  C_21
REMARK    6  A    between atoms: N_23  and  C_24
REMARK    7  A    between atoms: C_28  and  S_29
REMARK    8  A    between atoms: S_29  and  N_30
REMARK                            x       y       z     vdW  Elec       q    Type
REMARK                         _______ _______ _______ _____ _____    ______ ____
ROOT
ATOM      1  C   UNL     1       0.221  11.097  19.282  0.00  0.00    +0.000 A 
ATOM      2  N   UNL     1      -0.929  11.791  19.502  0.00  0.00    +0.000 NA
ATOM      3  C   UNL     1      -2.030  11.438  18.814  0.00  0.00    +0.000 A 
ATOM      4  C   UNL     1      -3.192  12.187  18.938  0.00  0.00    +0.000 A 
ATOM      5  C   UNL     1      -4.361  11.855  18.244  0.00  0.00    +0.000 A 
ATOM      6  C   UNL     1      -4.380  10.745  17.406  0.00  0.00    +0.000 A 
ATOM      7  C   UNL     1      -3.227   9.987  17.253  0.00  0.00    +0.000 A 
ATOM      8  C   UNL     1      -2.052  10.330  17.947  0.00  0.00    +0.000 A 
ATOM      9  C   UNL     1      -0.876   9.592  17.801  0.00  0.00    +0.000 A 
ATOM     10  C   UNL     1       0.296   9.966  18.476  0.00  0.00    +0.000 A 
ENDROOT
BRANCH  10  11
ATOM     11  C   UNL     1       1.500   9.114  18.247  0.00  0.00    +0.000 C 
ATOM     12  O   UNL     1       2.317   9.521  17.421  0.00  0.00    +0.000 OA
ATOM     13  N   UNL     1       1.603   7.904  18.914  0.00  0.00    +0.000 N 
ATOM     14  H   UNL     1       0.801   7.590  19.449  0.00  0.00    +0.000 HD
BRANCH  13  15
ATOM     15  C   UNL     1       2.688   7.000  18.810  0.00  0.00    +0.000 A 
ATOM     16  C   UNL     1       2.953   6.011  19.766  0.00  0.00    +0.000 A 
ATOM     17  C   UNL     1       4.064   5.169  19.657  0.00  0.00    +0.000 A 
ATOM     18  C   UNL     1       4.938   5.315  18.589  0.00  0.00    +0.000 A 
ATOM     19  C   UNL     1       4.682   6.300  17.635  0.00  0.00    +0.000 A 
ATOM     20  C   UNL     1       3.543   7.116  17.712  0.00  0.00    +0.000 A 
BRANCH  19  21
ATOM     21  S   UNL     1       5.885   6.602  16.379  0.00  0.00    +0.000 S 
ATOM     22  O   UNL     1       5.223   6.831  15.117  0.00  0.00    +0.000 OA
ATOM     23  O   UNL     1       6.908   7.479  16.899  0.00  0.00    +0.000 OA
BRANCH  21  24
ATOM     24  N   UNL     1       6.579   5.077  16.276  0.00  0.00    +0.000 NA
ATOM     25  H   UNL     1       5.870   4.346  16.322  0.00  0.00    +0.000 HD
ATOM     26  H   UNL     1       7.215   5.015  15.482  0.00  0.00    +0.000 HD
ENDBRANCH  21  24
ENDBRANCH  19  21
ENDBRANCH  13  15
ENDBRANCH  10  11
BRANCH   1  27
ATOM     27  O   UNL     1       1.370  11.506  19.944  0.00  0.00    +0.000 OA
BRANCH  27  34
ATOM     28  C   UNL     1       1.760  13.861  20.621  0.00  0.00    +0.000 A 
ATOM     29  C   UNL     1       2.252  15.110  20.223  0.00  0.00    +0.000 A 
ATOM     30  C   UNL     1       2.787  15.279  18.948  0.00  0.00    +0.000 A 
ATOM     31  F   UNL     1       3.217  16.491  18.573  0.00  0.00    +0.000 F 
ATOM     32  C   UNL     1       2.858  14.224  18.052  0.00  0.00    +0.000 A 
ATOM     33  C   UNL     1       2.407  12.966  18.447  0.00  0.00    +0.000 A 
ATOM     34  C   UNL     1       1.877  12.772  19.733  0.00  0.00    +0.000 A 
BRANCH  28  36
ATOM     35  C   UNL     1      -0.010  14.423  22.126  0.00  0.00    +0.000 C 
ATOM     36  O   UNL     1       1.132  13.637  21.817  0.00  0.00    +0.000 OA
ENDBRANCH  28  36
ENDBRANCH  27  34
ENDBRANCH   1  27
TORSDOF 7
ENDMDL
MODEL 9
REMARK VINA RESULT:      -8.0      3.864      9.728
REMARK  Name = 
REMARK  8 active torsions:
REMARK  status: ('A' for Active; 'I' for Inactive)
REMARK    1  A    between atoms: C_1  and  O_2
REMARK    2  A    between atoms: O_2  and  C_3
REMARK    3  A    between atoms: C_9  and  O_10
REMARK    4  A    between atoms: O_10  and  C_11
REMARK    5  A    between atoms: C_20  and  C_21
REMARK    6  A    between atoms: N_23  and  C_24
REMARK    7  A    between atoms: C_28  and  S_29
REMARK    8  A    between atoms: S_29  and  N_30
REMARK                            x       y       z     vdW  Elec       q    Type
REMARK                         _______ _______ _______ _____ _____    ______ ____
ROOT
ATOM      1  C   UNL     1      -0.388  11.751  18.825  0.00  0.00    +0.000 A 
ATOM      2  N   UNL     1      -0.714  13.066  18.706  0.00  0.00    +0.000 NA
ATOM      3  C   UNL     1       0.270  13.979  18.798  0.00  0.00    +0.000 A 
ATOM      4  C   UNL     1      -0.039  15.333  18.782  0.00  0.00    +0.000 A 
ATOM      5  C   UNL     1       0.951  16.317  18.872  0.00  0.00    +0.000 A 
ATOM      6  C   UNL     1       2.289  15.949  18.976  0.00  0.00    +0.000 A 
ATOM      7  C   UNL     1       2.624  14.602  19.010  0.00  0.00    +0.000 A 
ATOM      8  C   UNL     1       1.623  13.617  18.927  0.00  0.00    +0.000 A 
ATOM      9  C   UNL     1       1.933  12.257  18.970  0.00  0.00    +0.000 A 
ATOM     10  C   UNL     1       0.921  11.286  18.918  0.00  0.00    +0.000 A 
ENDROOT
BRANCH  10  11
ATOM     11  C   UNL     1       1.357   9.860  18.978  0.00  0.00    +0.000 C 
ATOM     12  O   UNL     1       1.075   9.238  20.001  0.00  0.00    +0.000 OA
ATOM     13  N   UNL     1       2.097   9.340  17.928  0.00  0.00    +0.000 N 
ATOM     14  H   UNL     1       2.410   9.981  17.208  0.00  0.00    +0.000 HD
BRANCH  13  15
ATOM     15  C   UNL     1       2.567   8.008  17.837  0.00  0.00    +0.000 A 
ATOM     16  C   UNL     1       1.788   6.897  18.184  0.00  0.00    +0.000 A 
ATOM     17  C   UNL     1       2.303   5.598  18.131  0.00  0.00    +0.000 A 
ATOM     18  C   UNL     1       3.618   5.393  17.739  0.00  0.00    +0.000 A 
ATOM     19  C   UNL     1       4.401   6.495  17.394  0.00  0.00    +0.000 A 
ATOM     20  C   UNL     1       3.877   7.797  17.400  0.00  0.00    +0.000 A 
BRANCH  19  21
ATOM     21  S   UNL     1       6.119   6.251  17.070  0.00  0.00    +0.000 S 
ATOM     22  O   UNL     1       6.283   5.229  16.063  0.00  0.00    +0.000 OA
ATOM     23  O   UNL     1       6.780   7.534  17.001  0.00  0.00    +0.000 OA
BRANCH  21  24
ATOM     24  N   UNL     1       6.588   5.556  18.524  0.00  0.00    +0.000 NA
ATOM     25  H   UNL     1       7.527   5.853  18.788  0.00  0.00    +0.000 HD
ATOM     26  H   UNL     1       5.875   5.684  19.240  0.00  0.00    +0.000 HD
ENDBRANCH  21  24
ENDBRANCH  19  21
ENDBRANCH  13  15
ENDBRANCH  10  11
BRANCH   1  27
ATOM     27  O   UNL     1      -1.413  10.815  18.795  0.00  0.00    +0.000 OA
BRANCH  27  34
ATOM     28  C   UNL     1      -3.542  11.278  17.608  0.00  0.00    +0.000 A 
ATOM     29  C   UNL     1      -4.296  11.036  16.453  0.00  0.00    +0.000 A 
ATOM     30  C   UNL     1      -3.790  10.220  15.444  0.00  0.00    +0.000 A 
ATOM     31  F   UNL     1      -4.543   9.970  14.365  0.00  0.00    +0.000 F 
ATOM     32  C   UNL     1      -2.534   9.643  15.547  0.00  0.00    +0.000 A 
ATOM     33  C   UNL     1      -1.757   9.905  16.673  0.00  0.00    +0.000 A 
ATOM     34  C   UNL     1      -2.244  10.736  17.696  0.00  0.00    +0.000 A 
BRANCH  28  36
ATOM     35  C   UNL     1      -5.412  12.131  18.829  0.00  0.00    +0.000 C 
ATOM     36  O   UNL     1      -4.006  11.985  18.685  0.00  0.00    +0.000 OA
ENDBRANCH  28  36
ENDBRANCH  27  34
ENDBRANCH   1  27
TORSDOF 7
ENDMDL
