MODEL 1
REMARK VINA RESULT:      -7.0      0.000      0.000
REMARK  Name = 
REMARK  13 active torsions:
REMARK  status: ('A' for Active; 'I' for Inactive)
REMARK    1  A    between atoms: C_1  and  C_2
REMARK    2  A    between atoms: C_2  and  C_3
REMARK    3  A    between atoms: C_3  and  C_4
REMARK    4  A    between atoms: C_4  and  C_5
REMARK    5  A    between atoms: C_5  and  N_6
REMARK    6  A    between atoms: C_7  and  C_9
REMARK    7  A    between atoms: C_9  and  C_10
REMARK    8  A    between atoms: C_9  and  C_17
REMARK    9  A    between atoms: C_13  and  O_14
REMARK   10  A    between atoms: C_17  and  C_18
REMARK   11  A    between atoms: C_17  and  C_20
REMARK   12  A    between atoms: C_18  and  C_19
REMARK   13  A    between atoms: C_23  and  O_24
REMARK                            x       y       z     vdW  Elec       q    Type
REMARK                         _______ _______ _______ _____ _____    ______ ____
ROOT
ATOM      1  C   UNL     1       4.597   5.275  18.508  0.00  0.00    +0.000 C 
ENDROOT
BRANCH   1   2
ATOM      2  C   UNL     1       3.473   6.292  18.736  0.00  0.00    +0.000 A 
ATOM      3  C   UNL     1       3.243   7.233  17.711  0.00  0.00    +0.000 A 
ATOM      4  C   UNL     1       2.363   8.297  17.886  0.00  0.00    +0.000 A 
ATOM      5  C   UNL     1       1.703   8.432  19.099  0.00  0.00    +0.000 A 
ATOM      6  C   UNL     1       1.882   7.501  20.116  0.00  0.00    +0.000 A 
ATOM      7  C   UNL     1       2.756   6.421  19.934  0.00  0.00    +0.000 A 
BRANCH   5   8
ATOM      8  O   UNL     1       0.874   9.489  19.332  0.00  0.00    +0.000 OA
ATOM      9  H   UNL     1       0.159   9.194  19.919  0.00  0.00    +0.000 HD
ENDBRANCH   5   8
ENDBRANCH   1   2
BRANCH   1  11
ATOM     10  N   UNL     1       2.829   3.665  17.784  0.00  0.00    +0.000 N 
ATOM     11  C   UNL     1       3.984   3.850  18.526  0.00  0.00    +0.000 C 
ATOM     12  O   UNL     1       4.499   2.948  19.163  0.00  0.00    +0.000 OA
ATOM     13  H   UNL     1       2.315   4.477  17.454  0.00  0.00    +0.000 HD
BRANCH  10  14
ATOM     14  C   UNL     1       2.151   2.376  17.761  0.00  0.00    +0.000 C 
BRANCH  14  15
ATOM     15  C   UNL     1       0.896   2.334  18.638  0.00  0.00    +0.000 C 
BRANCH  15  16
ATOM     16  C   UNL     1       0.933   3.417  19.720  0.00  0.00    +0.000 C 
BRANCH  16  18
ATOM     17  C   UNL     1       2.316   3.401  21.821  0.00  0.00    +0.000 C 
ATOM     18  C   UNL     1       1.095   2.827  21.118  0.00  0.00    +0.000 C 
ENDBRANCH  16  18
ENDBRANCH  15  16
ENDBRANCH  14  15
ENDBRANCH  10  14
ENDBRANCH   1  11
BRANCH   1  19
ATOM     19  C   UNL     1       5.609   5.523  17.324  0.00  0.00    +0.000 C 
BRANCH  19  20
ATOM     20  C   UNL     1       6.765   6.479  17.667  0.00  0.00    +0.000 A 
ATOM     21  C   UNL     1       6.849   7.736  17.046  0.00  0.00    +0.000 A 
ATOM     22  C   UNL     1       7.694   8.728  17.555  0.00  0.00    +0.000 A 
ATOM     23  C   UNL     1       8.524   8.437  18.628  0.00  0.00    +0.000 A 
ATOM     24  C   UNL     1       8.558   7.163  19.169  0.00  0.00    +0.000 A 
ATOM     25  C   UNL     1       7.688   6.180  18.682  0.00  0.00    +0.000 A 
BRANCH  23  26
ATOM     26  O   UNL     1       9.309   9.399  19.193  0.00  0.00    +0.000 OA
ATOM     27  H   UNL     1       8.759  10.179  19.365  0.00  0.00    +0.000 HD
ENDBRANCH  23  26
ENDBRANCH  19  20
BRANCH  19  28
ATOM     28  C   UNL     1       6.171   4.206  16.714  0.00  0.00    +0.000 C 
ATOM     29  C   UNL     1       5.830   3.982  15.240  0.00  0.00    +0.000 C 
ENDBRANCH  19  28
ENDBRANCH   1  19
TORSDOF 11
ENDMDL
MODEL 2
REMARK VINA RESULT:      -7.0      2.416      6.265
REMARK  Name = 
REMARK  13 active torsions:
REMARK  status: ('A' for Active; 'I' for Inactive)
REMARK    1  A    between atoms: C_1  and  C_2
REMARK    2  A    between atoms: C_2  and  C_3
REMARK    3  A    between atoms: C_3  and  C_4
REMARK    4  A    between atoms: C_4  and  C_5
REMARK    5  A    between atoms: C_5  and  N_6
REMARK    6  A    between atoms: C_7  and  C_9
REMARK    7  A    between atoms: C_9  and  C_10
REMARK    8  A    between atoms: C_9  and  C_17
REMARK    9  A    between atoms: C_13  and  O_14
REMARK   10  A    between atoms: C_17  and  C_18
REMARK   11  A    between atoms: C_17  and  C_20
REMARK   12  A    between atoms: C_18  and  C_19
REMARK   13  A    between atoms: C_23  and  O_24
REMARK                            x       y       z     vdW  Elec       q    Type
REMARK                         _______ _______ _______ _____ _____    ______ ____
ROOT
ATOM      1  C   UNL     1       4.725   5.122  16.886  0.00  0.00    +0.000 C 
ENDROOT
BRANCH   1   2
ATOM      2  C   UNL     1       5.818   5.934  17.591  0.00  0.00    +0.000 A 
ATOM      3  C   UNL     1       6.115   7.206  17.059  0.00  0.00    +0.000 A 
ATOM      4  C   UNL     1       7.196   7.951  17.520  0.00  0.00    +0.000 A 
ATOM      5  C   UNL     1       7.999   7.426  18.521  0.00  0.00    +0.000 A 
ATOM      6  C   UNL     1       7.711   6.189  19.090  0.00  0.00    +0.000 A 
ATOM      7  C   UNL     1       6.613   5.446  18.637  0.00  0.00    +0.000 A 
BRANCH   5   8
ATOM      8  O   UNL     1       9.099   8.097  18.964  0.00  0.00    +0.000 OA
ATOM      9  H   UNL     1       9.867   7.507  18.894  0.00  0.00    +0.000 HD
ENDBRANCH   5   8
ENDBRANCH   1   2
BRANCH   1  11
ATOM     10  N   UNL     1       5.432   4.680  14.530  0.00  0.00    +0.000 N 
ATOM     11  C   UNL     1       5.397   4.203  15.831  0.00  0.00    +0.000 C 
ATOM     12  O   UNL     1       5.865   3.122  16.141  0.00  0.00    +0.000 OA
ATOM     13  H   UNL     1       4.846   5.468  14.275  0.00  0.00    +0.000 HD
BRANCH  10  14
ATOM     14  C   UNL     1       6.007   3.882  13.456  0.00  0.00    +0.000 C 
BRANCH  14  15
ATOM     15  C   UNL     1       4.961   3.103  12.652  0.00  0.00    +0.000 C 
BRANCH  15  16
ATOM     16  C   UNL     1       4.677   3.774  11.305  0.00  0.00    +0.000 C 
BRANCH  16  18
ATOM     17  C   UNL     1       2.877   4.210   9.604  0.00  0.00    +0.000 C 
ATOM     18  C   UNL     1       3.401   3.245  10.657  0.00  0.00    +0.000 C 
ENDBRANCH  16  18
ENDBRANCH  15  16
ENDBRANCH  14  15
ENDBRANCH  10  14
ENDBRANCH   1  11
BRANCH   1  19
ATOM     19  C   UNL     1       3.638   4.397  17.769  0.00  0.00    +0.000 C 
BRANCH  19  20
ATOM     20  C   UNL     1       2.807   5.341  18.656  0.00  0.00    +0.000 A 
ATOM     21  C   UNL     1       2.276   4.882  19.872  0.00  0.00    +0.000 A 
ATOM     22  C   UNL     1       1.792   5.783  20.825  0.00  0.00    +0.000 A 
ATOM     23  C   UNL     1       1.752   7.139  20.529  0.00  0.00    +0.000 A 
ATOM     24  C   UNL     1       2.144   7.600  19.284  0.00  0.00    +0.000 A 
ATOM     25  C   UNL     1       2.660   6.702  18.343  0.00  0.00    +0.000 A 
BRANCH  23  26
ATOM     26  O   UNL     1       1.352   8.052  21.459  0.00  0.00    +0.000 OA
ATOM     27  H   UNL     1       1.256   7.597  22.311  0.00  0.00    +0.000 HD
ENDBRANCH  23  26
ENDBRANCH  19  20
BRANCH  19  28
ATOM     28  C   UNL     1       2.693   3.477  16.942  0.00  0.00    +0.000 C 
ATOM     29  C   UNL     1       2.454   2.091  17.544  0.00  0.00    +0.000 C 
ENDBRANCH  19  28
ENDBRANCH   1  19
TORSDOF 11
ENDMDL
MODEL 3
REMARK VINA RESULT:      -7.0      2.456      6.277
REMARK  Name = 
REMARK  13 active torsions:
REMARK  status: ('A' for Active; 'I' for Inactive)
REMARK    1  A    between atoms: C_1  and  C_2
REMARK    2  A    between atoms: C_2  and  C_3
REMARK    3  A    between atoms: C_3  and  C_4
REMARK    4  A    between atoms: C_4  and  C_5
REMARK    5  A    between atoms: C_5  and  N_6
REMARK    6  A    between atoms: C_7  and  C_9
REMARK    7  A    between atoms: C_9  and  C_10
REMARK    8  A    between atoms: C_9  and  C_17
REMARK    9  A    between atoms: C_13  and  O_14
REMARK   10  A    between atoms: C_17  and  C_18
REMARK   11  A    between atoms: C_17  and  C_20
REMARK   12  A    between atoms: C_18  and  C_19
REMARK   13  A    between atoms: C_23  and  O_24
REMARK                            x       y       z     vdW  Elec       q    Type
REMARK                         _______ _______ _______ _____ _____    ______ ____
ROOT
ATOM      1  C   UNL     1       4.929   5.180  16.627  0.00  0.00    +0.000 C 
ENDROOT
BRANCH   1   2
ATOM      2  C   UNL     1       6.111   5.997  17.162  0.00  0.00    +0.000 A 
ATOM      3  C   UNL     1       6.898   5.402  18.169  0.00  0.00    +0.000 A 
ATOM      4  C   UNL     1       7.888   6.118  18.835  0.00  0.00    +0.000 A 
ATOM      5  C   UNL     1       8.099   7.447  18.500  0.00  0.00    +0.000 A 
ATOM      6  C   UNL     1       7.363   8.052  17.487  0.00  0.00    +0.000 A 
ATOM      7  C   UNL     1       6.377   7.327  16.806  0.00  0.00    +0.000 A 
BRANCH   5   8
ATOM      8  O   UNL     1       9.020   8.200  19.165  0.00  0.00    +0.000 OA
ATOM      9  H   UNL     1       9.283   8.939  18.591  0.00  0.00    +0.000 HD
ENDBRANCH   5   8
ENDBRANCH   1   2
BRANCH   1  11
ATOM     10  N   UNL     1       5.579   4.604  14.284  0.00  0.00    +0.000 N 
ATOM     11  C   UNL     1       5.465   4.157  15.591  0.00  0.00    +0.000 C 
ATOM     12  O   UNL     1       5.766   3.024  15.919  0.00  0.00    +0.000 OA
ATOM     13  H   UNL     1       5.117   5.467  14.012  0.00  0.00    +0.000 HD
BRANCH  10  14
ATOM     14  C   UNL     1       6.037   3.714  13.226  0.00  0.00    +0.000 C 
BRANCH  14  15
ATOM     15  C   UNL     1       4.893   3.053  12.451  0.00  0.00    +0.000 C 
BRANCH  15  16
ATOM     16  C   UNL     1       4.612   3.785  11.136  0.00  0.00    +0.000 C 
BRANCH  16  18
ATOM     17  C   UNL     1       2.801   4.342   9.482  0.00  0.00    +0.000 C 
ATOM     18  C   UNL     1       3.310   3.320  10.487  0.00  0.00    +0.000 C 
ENDBRANCH  16  18
ENDBRANCH  15  16
ENDBRANCH  14  15
ENDBRANCH  10  14
ENDBRANCH   1  11
BRANCH   1  19
ATOM     19  C   UNL     1       3.907   4.570  17.661  0.00  0.00    +0.000 C 
BRANCH  19  20
ATOM     20  C   UNL     1       3.319   5.591  18.652  0.00  0.00    +0.000 A 
ATOM     21  C   UNL     1       3.028   6.899  18.228  0.00  0.00    +0.000 A 
ATOM     22  C   UNL     1       2.223   7.737  19.005  0.00  0.00    +0.000 A 
ATOM     23  C   UNL     1       1.782   7.306  20.248  0.00  0.00    +0.000 A 
ATOM     24  C   UNL     1       2.169   6.074  20.745  0.00  0.00    +0.000 A 
ATOM     25  C   UNL     1       2.947   5.220  19.954  0.00  0.00    +0.000 A 
BRANCH  23  26
ATOM     26  O   UNL     1       0.939   8.070  21.001  0.00  0.00    +0.000 OA
ATOM     27  H   UNL     1       0.155   7.539  21.212  0.00  0.00    +0.000 HD
ENDBRANCH  23  26
ENDBRANCH  19  20
BRANCH  19  28
ATOM     28  C   UNL     1       2.758   3.766  16.985  0.00  0.00    +0.000 C 
ATOM     29  C   UNL     1       2.527   2.366  17.557  0.00  0.00    +0.000 C 
ENDBRANCH  19  28
ENDBRANCH   1  19
TORSDOF 11
ENDMDL
MODEL 4
REMARK VINA RESULT:      -6.9      2.521      7.445
REMARK  Name = 
REMARK  13 active torsions:
REMARK  status: ('A' for Active; 'I' for Inactive)
REMARK    1  A    between atoms: C_1  and  C_2
REMARK    2  A    between atoms: C_2  and  C_3
REMARK    3  A    between atoms: C_3  and  C_4
REMARK    4  A    between atoms: C_4  and  C_5
REMARK    5  A    between atoms: C_5  and  N_6
REMARK    6  A    between atoms: C_7  and  C_9
REMARK    7  A    between atoms: C_9  and  C_10
REMARK    8  A    between atoms: C_9  and  C_17
REMARK    9  A    between atoms: C_13  and  O_14
REMARK   10  A    between atoms: C_17  and  C_18
REMARK   11  A    between atoms: C_17  and  C_20
REMARK   12  A    between atoms: C_18  and  C_19
REMARK   13  A    between atoms: C_23  and  O_24
REMARK                            x       y       z     vdW  Elec       q    Type
REMARK                         _______ _______ _______ _____ _____    ______ ____
ROOT
ATOM      1  C   UNL     1       5.090   5.182  17.323  0.00  0.00    +0.000 C 
ENDROOT
BRANCH   1   2
ATOM      2  C   UNL     1       5.618   4.934  15.906  0.00  0.00    +0.000 A 
ATOM      3  C   UNL     1       4.714   4.387  14.971  0.00  0.00    +0.000 A 
ATOM      4  C   UNL     1       5.134   3.972  13.711  0.00  0.00    +0.000 A 
ATOM      5  C   UNL     1       6.473   4.096  13.373  0.00  0.00    +0.000 A 
ATOM      6  C   UNL     1       7.383   4.662  14.260  0.00  0.00    +0.000 A 
ATOM      7  C   UNL     1       6.957   5.095  15.522  0.00  0.00    +0.000 A 
BRANCH   5   8
ATOM      8  O   UNL     1       6.938   3.651  12.171  0.00  0.00    +0.000 OA
ATOM      9  H   UNL     1       7.868   3.915  12.085  0.00  0.00    +0.000 HD
ENDBRANCH   5   8
ENDBRANCH   1   2
BRANCH   1  11
ATOM     10  N   UNL     1       6.907   6.878  17.586  0.00  0.00    +0.000 N 
ATOM     11  C   UNL     1       6.224   5.821  18.167  0.00  0.00    +0.000 C 
ATOM     12  O   UNL     1       6.492   5.408  19.282  0.00  0.00    +0.000 OA
ATOM     13  H   UNL     1       6.806   7.045  16.589  0.00  0.00    +0.000 HD
BRANCH  10  14
ATOM     14  C   UNL     1       8.013   7.525  18.277  0.00  0.00    +0.000 C 
BRANCH  14  15
ATOM     15  C   UNL     1       8.160   9.009  17.931  0.00  0.00    +0.000 C 
BRANCH  15  16
ATOM     16  C   UNL     1       9.012   9.744  18.970  0.00  0.00    +0.000 C 
BRANCH  16  18
ATOM     17  C   UNL     1      10.440  11.424  17.760  0.00  0.00    +0.000 C 
ATOM     18  C   UNL     1       9.202  11.218  18.619  0.00  0.00    +0.000 C 
ENDBRANCH  16  18
ENDBRANCH  15  16
ENDBRANCH  14  15
ENDBRANCH  10  14
ENDBRANCH   1  11
BRANCH   1  19
ATOM     19  C   UNL     1       3.689   5.888  17.492  0.00  0.00    +0.000 C 
BRANCH  19  20
ATOM     20  C   UNL     1       2.761   5.219  18.521  0.00  0.00    +0.000 A 
ATOM     21  C   UNL     1       1.804   4.280  18.104  0.00  0.00    +0.000 A 
ATOM     22  C   UNL     1       1.173   3.444  19.031  0.00  0.00    +0.000 A 
ATOM     23  C   UNL     1       1.427   3.608  20.386  0.00  0.00    +0.000 A 
ATOM     24  C   UNL     1       2.263   4.618  20.830  0.00  0.00    +0.000 A 
ATOM     25  C   UNL     1       2.921   5.432  19.901  0.00  0.00    +0.000 A 
BRANCH  23  26
ATOM     26  O   UNL     1       0.882   2.767  21.311  0.00  0.00    +0.000 OA
ATOM     27  H   UNL     1       1.279   2.966  22.174  0.00  0.00    +0.000 HD
ENDBRANCH  23  26
ENDBRANCH  19  20
BRANCH  19  28
ATOM     28  C   UNL     1       3.804   7.411  17.790  0.00  0.00    +0.000 C 
ATOM     29  C   UNL     1       2.489   8.187  17.700  0.00  0.00    +0.000 C 
ENDBRANCH  19  28
ENDBRANCH   1  19
TORSDOF 11
ENDMDL
MODEL 5
REMARK VINA RESULT:      -6.8      2.043      6.399
REMARK  Name = 
REMARK  13 active torsions:
REMARK  status: ('A' for Active; 'I' for Inactive)
REMARK    1  A    between atoms: C_1  and  C_2
REMARK    2  A    between atoms: C_2  and  C_3
REMARK    3  A    between atoms: C_3  and  C_4
REMARK    4  A    between atoms: C_4  and  C_5
REMARK    5  A    between atoms: C_5  and  N_6
REMARK    6  A    between atoms: C_7  and  C_9
REMARK    7  A    between atoms: C_9  and  C_10
REMARK    8  A    between atoms: C_9  and  C_17
REMARK    9  A    between atoms: C_13  and  O_14
REMARK   10  A    between atoms: C_17  and  C_18
REMARK   11  A    between atoms: C_17  and  C_20
REMARK   12  A    between atoms: C_18  and  C_19
REMARK   13  A    between atoms: C_23  and  O_24
REMARK                            x       y       z     vdW  Elec       q    Type
REMARK                         _______ _______ _______ _____ _____    ______ ____
ROOT
ATOM      1  C   UNL     1       4.891   5.889  17.268  0.00  0.00    +0.000 C 
ENDROOT
BRANCH   1   2
ATOM      2  C   UNL     1       3.736   6.634  17.949  0.00  0.00    +0.000 A 
ATOM      3  C   UNL     1       3.145   7.694  17.230  0.00  0.00    +0.000 A 
ATOM      4  C   UNL     1       2.207   8.536  17.819  0.00  0.00    +0.000 A 
ATOM      5  C   UNL     1       1.850   8.326  19.142  0.00  0.00    +0.000 A 
ATOM      6  C   UNL     1       2.389   7.268  19.867  0.00  0.00    +0.000 A 
ATOM      7  C   UNL     1       3.322   6.411  19.269  0.00  0.00    +0.000 A 
BRANCH   5   8
ATOM      8  O   UNL     1       0.976   9.159  19.775  0.00  0.00    +0.000 OA
ATOM      9  H   UNL     1       0.604   9.770  19.117  0.00  0.00    +0.000 HD
ENDBRANCH   5   8
ENDBRANCH   1   2
BRANCH   1  11
ATOM     10  N   UNL     1       6.854   7.434  17.308  0.00  0.00    +0.000 N 
ATOM     11  C   UNL     1       6.224   6.356  17.909  0.00  0.00    +0.000 C 
ATOM     12  O   UNL     1       6.685   5.797  18.888  0.00  0.00    +0.000 OA
ATOM     13  H   UNL     1       6.561   7.726  16.381  0.00  0.00    +0.000 HD
BRANCH  10  14
ATOM     14  C   UNL     1       8.129   7.929  17.808  0.00  0.00    +0.000 C 
BRANCH  14  15
ATOM     15  C   UNL     1       8.150   9.445  18.024  0.00  0.00    +0.000 C 
BRANCH  15  16
ATOM     16  C   UNL     1       9.154   9.843  19.110  0.00  0.00    +0.000 C 
BRANCH  16  18
ATOM     17  C   UNL     1      10.343  11.871  20.003  0.00  0.00    +0.000 C 
ATOM     18  C   UNL     1       9.912  11.118  18.753  0.00  0.00    +0.000 C 
ENDBRANCH  16  18
ENDBRANCH  15  16
ENDBRANCH  14  15
ENDBRANCH  10  14
ENDBRANCH   1  11
BRANCH   1  19
ATOM     19  C   UNL     1       4.777   4.326  17.090  0.00  0.00    +0.000 C 
BRANCH  19  20
ATOM     20  C   UNL     1       3.621   3.680  17.873  0.00  0.00    +0.000 A 
ATOM     21  C   UNL     1       3.854   3.111  19.136  0.00  0.00    +0.000 A 
ATOM     22  C   UNL     1       2.789   2.802  19.987  0.00  0.00    +0.000 A 
ATOM     23  C   UNL     1       1.485   2.973  19.545  0.00  0.00    +0.000 A 
ATOM     24  C   UNL     1       1.229   3.404  18.254  0.00  0.00    +0.000 A 
ATOM     25  C   UNL     1       2.295   3.746  17.413  0.00  0.00    +0.000 A 
BRANCH  23  26
ATOM     26  O   UNL     1       0.425   2.747  20.371  0.00  0.00    +0.000 OA
ATOM     27  H   UNL     1       0.367   1.793  20.539  0.00  0.00    +0.000 HD
ENDBRANCH  23  26
ENDBRANCH  19  20
BRANCH  19  28
ATOM     28  C   UNL     1       4.721   3.883  15.598  0.00  0.00    +0.000 C 
ATOM     29  C   UNL     1       6.041   4.012  14.837  0.00  0.00    +0.000 C 
ENDBRANCH  19  28
ENDBRANCH   1  19
TORSDOF 11
ENDMDL
MODEL 6
REMARK VINA RESULT:      -6.7      2.610      6.117
REMARK  Name = 
REMARK  13 active torsions:
REMARK  status: ('A' for Active; 'I' for Inactive)
REMARK    1  A    between atoms: C_1  and  C_2
REMARK    2  A    between atoms: C_2  and  C_3
REMARK    3  A    between atoms: C_3  and  C_4
REMARK    4  A    between atoms: C_4  and  C_5
REMARK    5  A    between atoms: C_5  and  N_6
REMARK    6  A    between atoms: C_7  and  C_9
REMARK    7  A    between atoms: C_9  and  C_10
REMARK    8  A    between atoms: C_9  and  C_17
REMARK    9  A    between atoms: C_13  and  O_14
REMARK   10  A    between atoms: C_17  and  C_18
REMARK   11  A    between atoms: C_17  and  C_20
REMARK   12  A    between atoms: C_18  and  C_19
REMARK   13  A    between atoms: C_23  and  O_24
REMARK                            x       y       z     vdW  Elec       q    Type
REMARK                         _______ _______ _______ _____ _____    ______ ____
ROOT
ATOM      1  C   UNL     1       5.531   4.448  16.885  0.00  0.00    +0.000 C 
ENDROOT
BRANCH   1   2
ATOM      2  C   UNL     1       4.356   3.517  17.208  0.00  0.00    +0.000 A 
ATOM      3  C   UNL     1       3.069   3.955  16.832  0.00  0.00    +0.000 A 
ATOM      4  C   UNL     1       1.924   3.268  17.223  0.00  0.00    +0.000 A 
ATOM      5  C   UNL     1       2.057   2.129  18.004  0.00  0.00    +0.000 A 
ATOM      6  C   UNL     1       3.314   1.652  18.362  0.00  0.00    +0.000 A 
ATOM      7  C   UNL     1       4.466   2.336  17.955  0.00  0.00    +0.000 A 
BRANCH   5   8
ATOM      8  O   UNL     1       0.961   1.456  18.455  0.00  0.00    +0.000 OA
ATOM      9  H   UNL     1       1.125   1.183  19.373  0.00  0.00    +0.000 HD
ENDBRANCH   5   8
ENDBRANCH   1   2
BRANCH   1  11
ATOM     10  N   UNL     1       6.205   3.605  14.631  0.00  0.00    +0.000 N 
ATOM     11  C   UNL     1       5.607   4.630  15.346  0.00  0.00    +0.000 C 
ATOM     12  O   UNL     1       5.160   5.626  14.805  0.00  0.00    +0.000 OA
ATOM     13  H   UNL     1       6.753   2.908  15.127  0.00  0.00    +0.000 HD
BRANCH  10  14
ATOM     14  C   UNL     1       6.360   3.692  13.186  0.00  0.00    +0.000 C 
BRANCH  14  15
ATOM     15  C   UNL     1       5.330   2.863  12.413  0.00  0.00    +0.000 C 
BRANCH  15  16
ATOM     16  C   UNL     1       4.245   3.751  11.797  0.00  0.00    +0.000 C 
BRANCH  16  18
ATOM     17  C   UNL     1       2.992   4.100   9.645  0.00  0.00    +0.000 C 
ATOM     18  C   UNL     1       3.547   3.074  10.621  0.00  0.00    +0.000 C 
ENDBRANCH  16  18
ENDBRANCH  15  16
ENDBRANCH  14  15
ENDBRANCH  10  14
ENDBRANCH   1  11
BRANCH   1  19
ATOM     19  C   UNL     1       5.673   5.791  17.698  0.00  0.00    +0.000 C 
BRANCH  19  20
ATOM     20  C   UNL     1       4.334   6.425  18.116  0.00  0.00    +0.000 A 
ATOM     21  C   UNL     1       3.700   6.018  19.301  0.00  0.00    +0.000 A 
ATOM     22  C   UNL     1       2.665   6.779  19.854  0.00  0.00    +0.000 A 
ATOM     23  C   UNL     1       2.199   7.898  19.178  0.00  0.00    +0.000 A 
ATOM     24  C   UNL     1       2.718   8.241  17.941  0.00  0.00    +0.000 A 
ATOM     25  C   UNL     1       3.776   7.499  17.403  0.00  0.00    +0.000 A 
BRANCH  23  26
ATOM     26  O   UNL     1       1.240   8.700  19.720  0.00  0.00    +0.000 OA
ATOM     27  H   UNL     1       0.386   8.464  19.325  0.00  0.00    +0.000 HD
ENDBRANCH  23  26
ENDBRANCH  19  20
BRANCH  19  28
ATOM     28  C   UNL     1       6.608   5.661  18.936  0.00  0.00    +0.000 C 
ATOM     29  C   UNL     1       7.913   6.453  18.844  0.00  0.00    +0.000 C 
ENDBRANCH  19  28
ENDBRANCH   1  19
TORSDOF 11
ENDMDL
MODEL 7
REMARK VINA RESULT:      -6.7      2.504      6.303
REMARK  Name = 
REMARK  13 active torsions:
REMARK  status: ('A' for Active; 'I' for Inactive)
REMARK    1  A    between atoms: C_1  and  C_2
REMARK    2  A    between atoms: C_2  and  C_3
REMARK    3  A    between atoms: C_3  and  C_4
REMARK    4  A    between atoms: C_4  and  C_5
REMARK    5  A    between atoms: C_5  and  N_6
REMARK    6  A    between atoms: C_7  and  C_9
REMARK    7  A    between atoms: C_9  and  C_10
REMARK    8  A    between atoms: C_9  and  C_17
REMARK    9  A    between atoms: C_13  and  O_14
REMARK   10  A    between atoms: C_17  and  C_18
REMARK   11  A    between atoms: C_17  and  C_20
REMARK   12  A    between atoms: C_18  and  C_19
REMARK   13  A    between atoms: C_23  and  O_24
REMARK                            x       y       z     vdW  Elec       q    Type
REMARK                         _______ _______ _______ _____ _____    ______ ____
ROOT
ATOM      1  C   UNL     1       4.980   5.035  16.464  0.00  0.00    +0.000 C 
ENDROOT
BRANCH   1   2
ATOM      2  C   UNL     1       6.126   5.865  17.056  0.00  0.00    +0.000 A 
ATOM      3  C   UNL     1       6.830   5.304  18.141  0.00  0.00    +0.000 A 
ATOM      4  C   UNL     1       7.773   6.038  18.853  0.00  0.00    +0.000 A 
ATOM      5  C   UNL     1       8.019   7.353  18.487  0.00  0.00    +0.000 A 
ATOM      6  C   UNL     1       7.366   7.925  17.400  0.00  0.00    +0.000 A 
ATOM      7  C   UNL     1       6.428   7.180  16.673  0.00  0.00    +0.000 A 
BRANCH   5   8
ATOM      8  O   UNL     1       8.894   8.126  19.190  0.00  0.00    +0.000 OA
ATOM      9  H   UNL     1       9.377   7.556  19.810  0.00  0.00    +0.000 HD
ENDBRANCH   5   8
ENDBRANCH   1   2
BRANCH   1  11
ATOM     10  N   UNL     1       5.608   4.551  14.094  0.00  0.00    +0.000 N 
ATOM     11  C   UNL     1       5.568   4.076  15.395  0.00  0.00    +0.000 C 
ATOM     12  O   UNL     1       5.970   2.966  15.696  0.00  0.00    +0.000 OA
ATOM     13  H   UNL     1       5.069   5.376  13.851  0.00  0.00    +0.000 HD
BRANCH  10  14
ATOM     14  C   UNL     1       6.106   3.717  13.009  0.00  0.00    +0.000 C 
BRANCH  14  15
ATOM     15  C   UNL     1       5.013   2.889  12.328  0.00  0.00    +0.000 C 
BRANCH  15  16
ATOM     16  C   UNL     1       3.966   3.784  11.658  0.00  0.00    +0.000 C 
BRANCH  16  18
ATOM     17  C   UNL     1       2.788   4.393   9.521  0.00  0.00    +0.000 C 
ATOM     18  C   UNL     1       3.836   3.497  10.165  0.00  0.00    +0.000 C 
ENDBRANCH  16  18
ENDBRANCH  15  16
ENDBRANCH  14  15
ENDBRANCH  10  14
ENDBRANCH   1  11
BRANCH   1  19
ATOM     19  C   UNL     1       3.960   4.349  17.451  0.00  0.00    +0.000 C 
BRANCH  19  20
ATOM     20  C   UNL     1       3.139   5.334  18.302  0.00  0.00    +0.000 A 
ATOM     21  C   UNL     1       2.673   4.953  19.571  0.00  0.00    +0.000 A 
ATOM     22  C   UNL     1       2.202   5.909  20.476  0.00  0.00    +0.000 A 
ATOM     23  C   UNL     1       2.110   7.237  20.083  0.00  0.00    +0.000 A 
ATOM     24  C   UNL     1       2.435   7.616  18.792  0.00  0.00    +0.000 A 
ATOM     25  C   UNL     1       2.938   6.664  17.897  0.00  0.00    +0.000 A 
BRANCH  23  26
ATOM     26  O   UNL     1       1.721   8.206  20.960  0.00  0.00    +0.000 OA
ATOM     27  H   UNL     1       1.761   9.062  20.506  0.00  0.00    +0.000 HD
ENDBRANCH  23  26
ENDBRANCH  19  20
BRANCH  19  28
ATOM     28  C   UNL     1       3.010   3.339  16.744  0.00  0.00    +0.000 C 
ATOM     29  C   UNL     1       2.519   2.190  17.625  0.00  0.00    +0.000 C 
ENDBRANCH  19  28
ENDBRANCH   1  19
TORSDOF 11
ENDMDL
MODEL 8
REMARK VINA RESULT:      -6.7      1.105      1.475
REMARK  Name = 
REMARK  13 active torsions:
REMARK  status: ('A' for Active; 'I' for Inactive)
REMARK    1  A    between atoms: C_1  and  C_2
REMARK    2  A    between atoms: C_2  and  C_3
REMARK    3  A    between atoms: C_3  and  C_4
REMARK    4  A    between atoms: C_4  and  C_5
REMARK    5  A    between atoms: C_5  and  N_6
REMARK    6  A    between atoms: C_7  and  C_9
REMARK    7  A    between atoms: C_9  and  C_10
REMARK    8  A    between atoms: C_9  and  C_17
REMARK    9  A    between atoms: C_13  and  O_14
REMARK   10  A    between atoms: C_17  and  C_18
REMARK   11  A    between atoms: C_17  and  C_20
REMARK   12  A    between atoms: C_18  and  C_19
REMARK   13  A    between atoms: C_23  and  O_24
REMARK                            x       y       z     vdW  Elec       q    Type
REMARK                         _______ _______ _______ _____ _____    ______ ____
ROOT
ATOM      1  C   UNL     1       3.719   5.665  18.034  0.00  0.00    +0.000 C 
ENDROOT
BRANCH   1   2
ATOM      2  C   UNL     1       2.990   6.938  18.478  0.00  0.00    +0.000 A 
ATOM      3  C   UNL     1       2.415   6.930  19.766  0.00  0.00    +0.000 A 
ATOM      4  C   UNL     1       1.594   7.967  20.201  0.00  0.00    +0.000 A 
ATOM      5  C   UNL     1       1.336   9.026  19.344  0.00  0.00    +0.000 A 
ATOM      6  C   UNL     1       1.917   9.080  18.081  0.00  0.00    +0.000 A 
ATOM      7  C   UNL     1       2.755   8.044  17.649  0.00  0.00    +0.000 A 
BRANCH   5   8
ATOM      8  O   UNL     1       0.495  10.035  19.709  0.00  0.00    +0.000 OA
ATOM      9  H   UNL     1       0.779  10.848  19.261  0.00  0.00    +0.000 HD
ENDBRANCH   5   8
ENDBRANCH   1   2
BRANCH   1  11
ATOM     10  N   UNL     1       3.039   3.264  18.169  0.00  0.00    +0.000 N 
ATOM     11  C   UNL     1       2.667   4.548  17.804  0.00  0.00    +0.000 C 
ATOM     12  O   UNL     1       1.574   4.798  17.328  0.00  0.00    +0.000 OA
ATOM     13  H   UNL     1       4.018   3.064  18.350  0.00  0.00    +0.000 HD
BRANCH  10  14
ATOM     14  C   UNL     1       2.141   2.137  17.962  0.00  0.00    +0.000 C 
BRANCH  14  15
ATOM     15  C   UNL     1       0.843   2.238  18.769  0.00  0.00    +0.000 C 
BRANCH  15  16
ATOM     16  C   UNL     1       1.115   2.187  20.275  0.00  0.00    +0.000 C 
BRANCH  16  18
ATOM     17  C   UNL     1       2.414   3.852  21.641  0.00  0.00    +0.000 C 
ATOM     18  C   UNL     1       1.110   3.576  20.908  0.00  0.00    +0.000 C 
ENDBRANCH  16  18
ENDBRANCH  15  16
ENDBRANCH  14  15
ENDBRANCH  10  14
ENDBRANCH   1  11
BRANCH   1  19
ATOM     19  C   UNL     1       4.797   5.776  16.888  0.00  0.00    +0.000 C 
BRANCH  19  20
ATOM     20  C   UNL     1       6.121   6.429  17.323  0.00  0.00    +0.000 A 
ATOM     21  C   UNL     1       6.429   7.739  16.919  0.00  0.00    +0.000 A 
ATOM     22  C   UNL     1       7.457   8.454  17.541  0.00  0.00    +0.000 A 
ATOM     23  C   UNL     1       8.241   7.833  18.503  0.00  0.00    +0.000 A 
ATOM     24  C   UNL     1       8.043   6.499  18.819  0.00  0.00    +0.000 A 
ATOM     25  C   UNL     1       6.993   5.793  18.222  0.00  0.00    +0.000 A 
BRANCH  23  26
ATOM     26  O   UNL     1       9.205   8.520  19.177  0.00  0.00    +0.000 OA
ATOM     27  H   UNL     1       9.326   8.103  20.045  0.00  0.00    +0.000 HD
ENDBRANCH  23  26
ENDBRANCH  19  20
BRANCH  19  28
ATOM     28  C   UNL     1       5.082   4.418  16.182  0.00  0.00    +0.000 C 
ATOM     29  C   UNL     1       5.715   4.533  14.794  0.00  0.00    +0.000 C 
ENDBRANCH  19  28
ENDBRANCH   1  19
TORSDOF 11
ENDMDL
MODEL 9
REMARK VINA RESULT:      -6.6      2.525      6.743
REMARK  Name = 
REMARK  13 active torsions:
REMARK  status: ('A' for Active; 'I' for Inactive)
REMARK    1  A    between atoms: C_1  and  C_2
REMARK    2  A    between atoms: C_2  and  C_3
REMARK    3  A    between atoms: C_3  and  C_4
REMARK    4  A    between atoms: C_4  and  C_5
REMARK    5  A    between atoms: C_5  and  N_6
REMARK    6  A    between atoms: C_7  and  C_9
REMARK    7  A    between atoms: C_9  and  C_10
REMARK    8  A    between atoms: C_9  and  C_17
REMARK    9  A    between atoms: C_13  and  O_14
REMARK   10  A    between atoms: C_17  and  C_18
REMARK   11  A    between atoms: C_17  and  C_20
REMARK   12  A    between atoms: C_18  and  C_19
REMARK   13  A    between atoms: C_23  and  O_24
REMARK                            x       y       z     vdW  Elec       q    Type
REMARK                         _______ _______ _______ _____ _____    ______ ____
ROOT
ATOM      1  C   UNL     1       4.884   6.885  17.028  0.00  0.00    +0.000 C 
ENDROOT
BRANCH   1   2
ATOM      2  C   UNL     1       5.917   6.462  18.078  0.00  0.00    +0.000 A 
ATOM      3  C   UNL     1       7.192   7.060  18.001  0.00  0.00    +0.000 A 
ATOM      4  C   UNL     1       8.247   6.628  18.798  0.00  0.00    +0.000 A 
ATOM      5  C   UNL     1       8.037   5.583  19.685  0.00  0.00    +0.000 A 
ATOM      6  C   UNL     1       6.782   4.995  19.810  0.00  0.00    +0.000 A 
ATOM      7  C   UNL     1       5.716   5.441  19.018  0.00  0.00    +0.000 A 
BRANCH   5   8
ATOM      8  O   UNL     1       9.056   5.091  20.445  0.00  0.00    +0.000 OA
ATOM      9  H   UNL     1       9.300   5.764  21.102  0.00  0.00    +0.000 HD
ENDBRANCH   5   8
ENDBRANCH   1   2
BRANCH   1  11
ATOM     10  N   UNL     1       6.136   5.215  15.654  0.00  0.00    +0.000 N 
ATOM     11  C   UNL     1       5.337   6.347  15.645  0.00  0.00    +0.000 C 
ATOM     12  O   UNL     1       5.003   6.899  14.612  0.00  0.00    +0.000 OA
ATOM     13  H   UNL     1       6.569   4.920  16.524  0.00  0.00    +0.000 HD
BRANCH  10  14
ATOM     14  C   UNL     1       6.647   4.650  14.413  0.00  0.00    +0.000 C 
BRANCH  14  15
ATOM     15  C   UNL     1       5.574   3.944  13.580  0.00  0.00    +0.000 C 
BRANCH  15  16
ATOM     16  C   UNL     1       6.134   3.462  12.238  0.00  0.00    +0.000 C 
BRANCH  16  18
ATOM     17  C   UNL     1       3.925   3.138  11.081  0.00  0.00    +0.000 C 
ATOM     18  C   UNL     1       5.204   2.464  11.553  0.00  0.00    +0.000 C 
ENDBRANCH  16  18
ENDBRANCH  15  16
ENDBRANCH  14  15
ENDBRANCH  10  14
ENDBRANCH   1  11
BRANCH   1  19
ATOM     19  C   UNL     1       3.356   6.649  17.338  0.00  0.00    +0.000 C 
BRANCH  19  20
ATOM     20  C   UNL     1       3.015   5.224  17.808  0.00  0.00    +0.000 A 
ATOM     21  C   UNL     1       2.312   5.025  19.008  0.00  0.00    +0.000 A 
ATOM     22  C   UNL     1       1.730   3.787  19.297  0.00  0.00    +0.000 A 
ATOM     23  C   UNL     1       1.926   2.718  18.433  0.00  0.00    +0.000 A 
ATOM     24  C   UNL     1       2.730   2.854  17.314  0.00  0.00    +0.000 A 
ATOM     25  C   UNL     1       3.285   4.102  17.007  0.00  0.00    +0.000 A 
BRANCH  23  26
ATOM     26  O   UNL     1       1.318   1.517  18.648  0.00  0.00    +0.000 OA
ATOM     27  H   UNL     1       0.460   1.682  19.071  0.00  0.00    +0.000 HD
ENDBRANCH  23  26
ENDBRANCH  19  20
BRANCH  19  28
ATOM     28  C   UNL     1       2.765   7.691  18.332  0.00  0.00    +0.000 C 
ATOM     29  C   UNL     1       1.789   8.693  17.713  0.00  0.00    +0.000 C 
ENDBRANCH  19  28
ENDBRANCH   1  19
TORSDOF 11
ENDMDL
