MODEL 1
REMARK VINA RESULT:      -7.1      0.000      0.000
REMARK  Name = 
REMARK  6 active torsions:
REMARK  status: ('A' for Active; 'I' for Inactive)
REMARK    1  A    between atoms: C_2  and  C_3
REMARK    2  A    between atoms: C_3  and  S_4
REMARK    3  A    between atoms: S_4  and  C_5
REMARK    4  A    between atoms: N_11  and  C_12
REMARK    5  A    between atoms: C_12  and  C_13
REMARK    6  A    between atoms: C_13  and  C_14
REMARK                            x       y       z     vdW  Elec       q    Type
REMARK                         _______ _______ _______ _____ _____    ______ ____
ROOT
ATOM      1  O   UNL     1       7.772   5.416  20.124  0.00  0.00    +0.000 OA
ATOM      2  C   UNL     1       7.064   5.588  19.136  0.00  0.00    +0.000 C 
ATOM      3  N   UNL     1       7.222   6.672  18.289  0.00  0.00    +0.000 N 
ATOM      4  H   UNL     1       6.674   6.665  17.435  0.00  0.00    +0.000 HD
ENDROOT
BRANCH   2   5
ATOM      5  C   UNL     1       5.880   4.662  18.826  0.00  0.00    +0.000 C 
BRANCH   5   6
ATOM      6  S   UNL     1       4.386   5.621  18.372  0.00  0.00    +0.000 S 
BRANCH   6   7
ATOM      7  C   UNL     1       3.015   4.624  18.940  0.00  0.00    +0.000 A 
ATOM      8  C   UNL     1       2.241   3.772  18.147  0.00  0.00    +0.000 A 
ATOM      9  C   UNL     1       1.145   3.092  18.697  0.00  0.00    +0.000 A 
ATOM     10  C   UNL     1       0.820   3.247  20.043  0.00  0.00    +0.000 A 
ATOM     11  C   UNL     1       1.602   4.067  20.850  0.00  0.00    +0.000 A 
ATOM     12  C   UNL     1       2.693   4.745  20.301  0.00  0.00    +0.000 A 
ENDBRANCH   6   7
ENDBRANCH   5   6
ENDBRANCH   2   5
BRANCH   3  13
ATOM     13  C   UNL     1       8.316   7.618  18.440  0.00  0.00    +0.000 C 
BRANCH  13  14
ATOM     14  C   UNL     1       8.015   8.980  17.800  0.00  0.00    +0.000 C 
BRANCH  14  15
ATOM     15  C   UNL     1       8.772  10.118  18.452  0.00  0.00    +0.000 A 
ATOM     16  C   UNL     1       9.222   9.996  19.777  0.00  0.00    +0.000 A 
ATOM     17  C   UNL     1       9.897  11.048  20.396  0.00  0.00    +0.000 A 
ATOM     18  C   UNL     1      10.126  12.226  19.699  0.00  0.00    +0.000 A 
ATOM     19  F   UNL     1      10.771  13.238  20.298  0.00  0.00    +0.000 F 
ATOM     20  C   UNL     1       9.700  12.367  18.385  0.00  0.00    +0.000 A 
ATOM     21  C   UNL     1       9.023  11.313  17.759  0.00  0.00    +0.000 A 
ENDBRANCH  14  15
ENDBRANCH  13  14
ENDBRANCH   3  13
TORSDOF 6
ENDMDL
MODEL 2
REMARK VINA RESULT:      -7.0      4.974      6.779
REMARK  Name = 
REMARK  6 active torsions:
REMARK  status: ('A' for Active; 'I' for Inactive)
REMARK    1  A    between atoms: C_2  and  C_3
REMARK    2  A    between atoms: C_3  and  S_4
REMARK    3  A    between atoms: S_4  and  C_5
REMARK    4  A    between atoms: N_11  and  C_12
REMARK    5  A    between atoms: C_12  and  C_13
REMARK    6  A    between atoms: C_13  and  C_14
REMARK                            x       y       z     vdW  Elec       q    Type
REMARK                         _______ _______ _______ _____ _____    ______ ____
ROOT
ATOM      1  O   UNL     1       0.861   4.004  17.632  0.00  0.00    +0.000 OA
ATOM      2  C   UNL     1       1.557   3.259  18.314  0.00  0.00    +0.000 C 
ATOM      3  N   UNL     1       1.777   3.476  19.664  0.00  0.00    +0.000 N 
ATOM      4  H   UNL     1       2.263   2.743  20.169  0.00  0.00    +0.000 HD
ENDROOT
BRANCH   2   5
ATOM      5  C   UNL     1       2.320   2.081  17.692  0.00  0.00    +0.000 C 
BRANCH   5   6
ATOM      6  S   UNL     1       4.065   2.050  18.251  0.00  0.00    +0.000 S 
BRANCH   6   7
ATOM      7  C   UNL     1       4.708   3.664  17.830  0.00  0.00    +0.000 A 
ATOM      8  C   UNL     1       4.646   4.266  16.570  0.00  0.00    +0.000 A 
ATOM      9  C   UNL     1       5.249   5.512  16.348  0.00  0.00    +0.000 A 
ATOM     10  C   UNL     1       5.907   6.173  17.384  0.00  0.00    +0.000 A 
ATOM     11  C   UNL     1       5.949   5.599  18.650  0.00  0.00    +0.000 A 
ATOM     12  C   UNL     1       5.349   4.357  18.870  0.00  0.00    +0.000 A 
ENDBRANCH   6   7
ENDBRANCH   5   6
ENDBRANCH   2   5
BRANCH   3  13
ATOM     13  C   UNL     1       1.100   4.535  20.396  0.00  0.00    +0.000 C 
BRANCH  13  14
ATOM     14  C   UNL     1       2.058   5.641  20.861  0.00  0.00    +0.000 C 
BRANCH  14  15
ATOM     15  C   UNL     1       2.017   6.867  19.975  0.00  0.00    +0.000 A 
ATOM     16  C   UNL     1       1.433   8.056  20.444  0.00  0.00    +0.000 A 
ATOM     17  C   UNL     1       1.366   9.183  19.626  0.00  0.00    +0.000 A 
ATOM     18  C   UNL     1       1.879   9.134  18.338  0.00  0.00    +0.000 A 
ATOM     19  F   UNL     1       1.808  10.218  17.552  0.00  0.00    +0.000 F 
ATOM     20  C   UNL     1       2.471   7.973  17.854  0.00  0.00    +0.000 A 
ATOM     21  C   UNL     1       2.541   6.839  18.672  0.00  0.00    +0.000 A 
ENDBRANCH  14  15
ENDBRANCH  13  14
ENDBRANCH   3  13
TORSDOF 6
ENDMDL
MODEL 3
REMARK VINA RESULT:      -7.0      1.824      2.305
REMARK  Name = 
REMARK  6 active torsions:
REMARK  status: ('A' for Active; 'I' for Inactive)
REMARK    1  A    between atoms: C_2  and  C_3
REMARK    2  A    between atoms: C_3  and  S_4
REMARK    3  A    between atoms: S_4  and  C_5
REMARK    4  A    between atoms: N_11  and  C_12
REMARK    5  A    between atoms: C_12  and  C_13
REMARK    6  A    between atoms: C_13  and  C_14
REMARK                            x       y       z     vdW  Elec       q    Type
REMARK                         _______ _______ _______ _____ _____    ______ ____
ROOT
ATOM      1  O   UNL     1       6.377   7.316  16.816  0.00  0.00    +0.000 OA
ATOM      2  C   UNL     1       7.148   6.908  17.679  0.00  0.00    +0.000 C 
ATOM      3  N   UNL     1       8.119   7.715  18.249  0.00  0.00    +0.000 N 
ATOM      4  H   UNL     1       8.626   7.328  19.038  0.00  0.00    +0.000 HD
ENDROOT
BRANCH   2   5
ATOM      5  C   UNL     1       7.158   5.437  18.117  0.00  0.00    +0.000 C 
BRANCH   5   6
ATOM      6  S   UNL     1       6.066   4.419  17.055  0.00  0.00    +0.000 S 
BRANCH   6   7
ATOM      7  C   UNL     1       4.470   4.474  17.857  0.00  0.00    +0.000 A 
ATOM      8  C   UNL     1       3.265   4.019  17.313  0.00  0.00    +0.000 A 
ATOM      9  C   UNL     1       2.064   4.179  18.016  0.00  0.00    +0.000 A 
ATOM     10  C   UNL     1       2.055   4.782  19.273  0.00  0.00    +0.000 A 
ATOM     11  C   UNL     1       3.251   5.209  19.840  0.00  0.00    +0.000 A 
ATOM     12  C   UNL     1       4.448   5.051  19.137  0.00  0.00    +0.000 A 
ENDBRANCH   6   7
ENDBRANCH   5   6
ENDBRANCH   2   5
BRANCH   3  13
ATOM     13  C   UNL     1       8.214   9.136  17.953  0.00  0.00    +0.000 C 
BRANCH  13  14
ATOM     14  C   UNL     1       9.124   9.887  18.935  0.00  0.00    +0.000 C 
BRANCH  14  15
ATOM     15  C   UNL     1       9.671  11.177  18.362  0.00  0.00    +0.000 A 
ATOM     16  C   UNL     1      11.034  11.281  18.037  0.00  0.00    +0.000 A 
ATOM     17  C   UNL     1      11.553  12.474  17.534  0.00  0.00    +0.000 A 
ATOM     18  C   UNL     1      10.719  13.568  17.352  0.00  0.00    +0.000 A 
ATOM     19  F   UNL     1      11.223  14.715  16.873  0.00  0.00    +0.000 F 
ATOM     20  C   UNL     1       9.366  13.487  17.656  0.00  0.00    +0.000 A 
ATOM     21  C   UNL     1       8.840  12.291  18.160  0.00  0.00    +0.000 A 
ENDBRANCH  14  15
ENDBRANCH  13  14
ENDBRANCH   3  13
TORSDOF 6
ENDMDL
MODEL 4
REMARK VINA RESULT:      -7.0      3.747      9.397
REMARK  Name = 
REMARK  6 active torsions:
REMARK  status: ('A' for Active; 'I' for Inactive)
REMARK    1  A    between atoms: C_2  and  C_3
REMARK    2  A    between atoms: C_3  and  S_4
REMARK    3  A    between atoms: S_4  and  C_5
REMARK    4  A    between atoms: N_11  and  C_12
REMARK    5  A    between atoms: C_12  and  C_13
REMARK    6  A    between atoms: C_13  and  C_14
REMARK                            x       y       z     vdW  Elec       q    Type
REMARK                         _______ _______ _______ _____ _____    ______ ____
ROOT
ATOM      1  O   UNL     1       8.504   7.375  18.777  0.00  0.00    +0.000 OA
ATOM      2  C   UNL     1       7.932   8.024  17.907  0.00  0.00    +0.000 C 
ATOM      3  N   UNL     1       7.165   7.429  16.920  0.00  0.00    +0.000 N 
ATOM      4  H   UNL     1       6.633   8.052  16.321  0.00  0.00    +0.000 HD
ENDROOT
BRANCH   2   5
ATOM      5  C   UNL     1       8.113   9.544  17.791  0.00  0.00    +0.000 C 
BRANCH   5   6
ATOM      6  S   UNL     1       9.208  10.187  19.111  0.00  0.00    +0.000 S 
BRANCH   6   7
ATOM      7  C   UNL     1       9.834  11.735  18.471  0.00  0.00    +0.000 A 
ATOM      8  C   UNL     1       9.162  12.960  18.494  0.00  0.00    +0.000 A 
ATOM      9  C   UNL     1       9.733  14.093  17.897  0.00  0.00    +0.000 A 
ATOM     10  C   UNL     1      10.982  14.015  17.283  0.00  0.00    +0.000 A 
ATOM     11  C   UNL     1      11.674  12.810  17.282  0.00  0.00    +0.000 A 
ATOM     12  C   UNL     1      11.104  11.681  17.876  0.00  0.00    +0.000 A 
ENDBRANCH   6   7
ENDBRANCH   5   6
ENDBRANCH   2   5
BRANCH   3  13
ATOM     13  C   UNL     1       6.881   6.003  16.916  0.00  0.00    +0.000 C 
BRANCH  13  14
ATOM     14  C   UNL     1       5.682   5.638  16.031  0.00  0.00    +0.000 C 
BRANCH  14  15
ATOM     15  C   UNL     1       4.455   5.253  16.830  0.00  0.00    +0.000 A 
ATOM     16  C   UNL     1       3.790   6.216  17.607  0.00  0.00    +0.000 A 
ATOM     17  C   UNL     1       2.675   5.866  18.367  0.00  0.00    +0.000 A 
ATOM     18  C   UNL     1       2.217   4.556  18.360  0.00  0.00    +0.000 A 
ATOM     19  F   UNL     1       1.148   4.221  19.096  0.00  0.00    +0.000 F 
ATOM     20  C   UNL     1       2.851   3.587  17.592  0.00  0.00    +0.000 A 
ATOM     21  C   UNL     1       3.971   3.935  16.825  0.00  0.00    +0.000 A 
ENDBRANCH  14  15
ENDBRANCH  13  14
ENDBRANCH   3  13
TORSDOF 6
ENDMDL
MODEL 5
REMARK VINA RESULT:      -7.0      3.841      9.227
REMARK  Name = 
REMARK  6 active torsions:
REMARK  status: ('A' for Active; 'I' for Inactive)
REMARK    1  A    between atoms: C_2  and  C_3
REMARK    2  A    between atoms: C_3  and  S_4
REMARK    3  A    between atoms: S_4  and  C_5
REMARK    4  A    between atoms: N_11  and  C_12
REMARK    5  A    between atoms: C_12  and  C_13
REMARK    6  A    between atoms: C_13  and  C_14
REMARK                            x       y       z     vdW  Elec       q    Type
REMARK                         _______ _______ _______ _____ _____    ______ ____
ROOT
ATOM      1  O   UNL     1       7.254   5.859  18.743  0.00  0.00    +0.000 OA
ATOM      2  C   UNL     1       7.414   6.914  18.138  0.00  0.00    +0.000 C 
ATOM      3  N   UNL     1       6.698   7.232  16.996  0.00  0.00    +0.000 N 
ATOM      4  H   UNL     1       6.810   8.175  16.637  0.00  0.00    +0.000 HD
ENDROOT
BRANCH   2   5
ATOM      5  C   UNL     1       8.499   7.918  18.549  0.00  0.00    +0.000 C 
BRANCH   5   6
ATOM      6  S   UNL     1       8.158   9.584  17.867  0.00  0.00    +0.000 S 
BRANCH   6   7
ATOM      7  C   UNL     1       9.425  10.633  18.568  0.00  0.00    +0.000 A 
ATOM      8  C   UNL     1      10.459  11.250  17.859  0.00  0.00    +0.000 A 
ATOM      9  C   UNL     1      11.435  11.997  18.535  0.00  0.00    +0.000 A 
ATOM     10  C   UNL     1      11.380  12.144  19.920  0.00  0.00    +0.000 A 
ATOM     11  C   UNL     1      10.337  11.561  20.633  0.00  0.00    +0.000 A 
ATOM     12  C   UNL     1       9.367  10.816  19.959  0.00  0.00    +0.000 A 
ENDBRANCH   6   7
ENDBRANCH   5   6
ENDBRANCH   2   5
BRANCH   3  13
ATOM     13  C   UNL     1       5.619   6.392  16.501  0.00  0.00    +0.000 C 
BRANCH  13  14
ATOM     14  C   UNL     1       4.309   6.590  17.277  0.00  0.00    +0.000 C 
BRANCH  14  15
ATOM     15  C   UNL     1       3.576   5.291  17.536  0.00  0.00    +0.000 A 
ATOM     16  C   UNL     1       2.245   5.311  17.985  0.00  0.00    +0.000 A 
ATOM     17  C   UNL     1       1.569   4.122  18.252  0.00  0.00    +0.000 A 
ATOM     18  C   UNL     1       2.214   2.906  18.075  0.00  0.00    +0.000 A 
ATOM     19  F   UNL     1       1.563   1.764  18.337  0.00  0.00    +0.000 F 
ATOM     20  C   UNL     1       3.526   2.859  17.621  0.00  0.00    +0.000 A 
ATOM     21  C   UNL     1       4.209   4.051  17.351  0.00  0.00    +0.000 A 
ENDBRANCH  14  15
ENDBRANCH  13  14
ENDBRANCH   3  13
TORSDOF 6
ENDMDL
MODEL 6
REMARK VINA RESULT:      -6.8      5.177      6.619
REMARK  Name = 
REMARK  6 active torsions:
REMARK  status: ('A' for Active; 'I' for Inactive)
REMARK    1  A    between atoms: C_2  and  C_3
REMARK    2  A    between atoms: C_3  and  S_4
REMARK    3  A    between atoms: S_4  and  C_5
REMARK    4  A    between atoms: N_11  and  C_12
REMARK    5  A    between atoms: C_12  and  C_13
REMARK    6  A    between atoms: C_13  and  C_14
REMARK                            x       y       z     vdW  Elec       q    Type
REMARK                         _______ _______ _______ _____ _____    ______ ____
ROOT
ATOM      1  O   UNL     1       2.586   3.030  21.260  0.00  0.00    +0.000 OA
ATOM      2  C   UNL     1       2.025   3.130  20.173  0.00  0.00    +0.000 C 
ATOM      3  N   UNL     1       1.356   4.279  19.786  0.00  0.00    +0.000 N 
ATOM      4  H   UNL     1       1.030   4.314  18.825  0.00  0.00    +0.000 HD
ENDROOT
BRANCH   2   5
ATOM      5  C   UNL     1       1.938   1.945  19.202  0.00  0.00    +0.000 C 
BRANCH   5   6
ATOM      6  S   UNL     1       3.492   1.747  18.253  0.00  0.00    +0.000 S 
BRANCH   6   7
ATOM      7  C   UNL     1       4.134   3.406  18.077  0.00  0.00    +0.000 A 
ATOM      8  C   UNL     1       3.789   4.313  17.071  0.00  0.00    +0.000 A 
ATOM      9  C   UNL     1       4.414   5.566  17.001  0.00  0.00    +0.000 A 
ATOM     10  C   UNL     1       5.380   5.928  17.939  0.00  0.00    +0.000 A 
ATOM     11  C   UNL     1       5.709   5.046  18.962  0.00  0.00    +0.000 A 
ATOM     12  C   UNL     1       5.087   3.798  19.031  0.00  0.00    +0.000 A 
ENDBRANCH   6   7
ENDBRANCH   5   6
ENDBRANCH   2   5
BRANCH   3  13
ATOM     13  C   UNL     1       1.374   5.492  20.588  0.00  0.00    +0.000 C 
BRANCH  13  14
ATOM     14  C   UNL     1       2.489   6.462  20.173  0.00  0.00    +0.000 C 
BRANCH  14  15
ATOM     15  C   UNL     1       1.960   7.794  19.685  0.00  0.00    +0.000 A 
ATOM     16  C   UNL     1       1.225   8.620  20.551  0.00  0.00    +0.000 A 
ATOM     17  C   UNL     1       0.711   9.836  20.103  0.00  0.00    +0.000 A 
ATOM     18  C   UNL     1       0.925  10.236  18.792  0.00  0.00    +0.000 A 
ATOM     19  F   UNL     1       0.425  11.404  18.363  0.00  0.00    +0.000 F 
ATOM     20  C   UNL     1       1.657   9.441  17.919  0.00  0.00    +0.000 A 
ATOM     21  C   UNL     1       2.177   8.220  18.364  0.00  0.00    +0.000 A 
ENDBRANCH  14  15
ENDBRANCH  13  14
ENDBRANCH   3  13
TORSDOF 6
ENDMDL
MODEL 7
REMARK VINA RESULT:      -6.8      1.687      2.161
REMARK  Name = 
REMARK  6 active torsions:
REMARK  status: ('A' for Active; 'I' for Inactive)
REMARK    1  A    between atoms: C_2  and  C_3
REMARK    2  A    between atoms: C_3  and  S_4
REMARK    3  A    between atoms: S_4  and  C_5
REMARK    4  A    between atoms: N_11  and  C_12
REMARK    5  A    between atoms: C_12  and  C_13
REMARK    6  A    between atoms: C_13  and  C_14
REMARK                            x       y       z     vdW  Elec       q    Type
REMARK                         _______ _______ _______ _____ _____    ______ ____
ROOT
ATOM      1  O   UNL     1       7.563   6.338  15.950  0.00  0.00    +0.000 OA
ATOM      2  C   UNL     1       7.205   6.167  17.111  0.00  0.00    +0.000 C 
ATOM      3  N   UNL     1       7.411   7.114  18.100  0.00  0.00    +0.000 N 
ATOM      4  H   UNL     1       6.974   6.937  18.998  0.00  0.00    +0.000 HD
ENDROOT
BRANCH   2   5
ATOM      5  C   UNL     1       6.590   4.839  17.574  0.00  0.00    +0.000 C 
BRANCH   5   6
ATOM      6  S   UNL     1       5.575   5.065  19.083  0.00  0.00    +0.000 S 
BRANCH   6   7
ATOM      7  C   UNL     1       4.148   4.018  18.834  0.00  0.00    +0.000 A 
ATOM      8  C   UNL     1       4.037   2.681  19.225  0.00  0.00    +0.000 A 
ATOM      9  C   UNL     1       2.887   1.944  18.912  0.00  0.00    +0.000 A 
ATOM     10  C   UNL     1       1.834   2.536  18.217  0.00  0.00    +0.000 A 
ATOM     11  C   UNL     1       1.919   3.875  17.850  0.00  0.00    +0.000 A 
ATOM     12  C   UNL     1       3.066   4.609  18.161  0.00  0.00    +0.000 A 
ENDBRANCH   6   7
ENDBRANCH   5   6
ENDBRANCH   2   5
BRANCH   3  13
ATOM     13  C   UNL     1       7.958   8.430  17.807  0.00  0.00    +0.000 C 
BRANCH  13  14
ATOM     14  C   UNL     1       8.876   8.953  18.921  0.00  0.00    +0.000 C 
BRANCH  14  15
ATOM     15  C   UNL     1       9.054  10.456  18.881  0.00  0.00    +0.000 A 
ATOM     16  C   UNL     1       8.602  11.189  17.773  0.00  0.00    +0.000 A 
ATOM     17  C   UNL     1       8.785  12.570  17.714  0.00  0.00    +0.000 A 
ATOM     18  C   UNL     1       9.420  13.228  18.758  0.00  0.00    +0.000 A 
ATOM     19  F   UNL     1       9.600  14.555  18.696  0.00  0.00    +0.000 F 
ATOM     20  C   UNL     1       9.867  12.526  19.870  0.00  0.00    +0.000 A 
ATOM     21  C   UNL     1       9.684  11.139  19.934  0.00  0.00    +0.000 A 
ENDBRANCH  14  15
ENDBRANCH  13  14
ENDBRANCH   3  13
TORSDOF 6
ENDMDL
MODEL 8
REMARK VINA RESULT:      -6.8      1.716      1.869
REMARK  Name = 
REMARK  6 active torsions:
REMARK  status: ('A' for Active; 'I' for Inactive)
REMARK    1  A    between atoms: C_2  and  C_3
REMARK    2  A    between atoms: C_3  and  S_4
REMARK    3  A    between atoms: S_4  and  C_5
REMARK    4  A    between atoms: N_11  and  C_12
REMARK    5  A    between atoms: C_12  and  C_13
REMARK    6  A    between atoms: C_13  and  C_14
REMARK                            x       y       z     vdW  Elec       q    Type
REMARK                         _______ _______ _______ _____ _____    ______ ____
ROOT
ATOM      1  O   UNL     1       6.226   7.089  16.228  0.00  0.00    +0.000 OA
ATOM      2  C   UNL     1       6.443   6.765  17.391  0.00  0.00    +0.000 C 
ATOM      3  N   UNL     1       7.514   7.264  18.114  0.00  0.00    +0.000 N 
ATOM      4  H   UNL     1       7.542   7.036  19.102  0.00  0.00    +0.000 HD
ENDROOT
BRANCH   2   5
ATOM      5  C   UNL     1       5.596   5.699  18.100  0.00  0.00    +0.000 C 
BRANCH   5   6
ATOM      6  S   UNL     1       5.100   4.367  16.944  0.00  0.00    +0.000 S 
BRANCH   6   7
ATOM      7  C   UNL     1       3.581   3.715  17.624  0.00  0.00    +0.000 A 
ATOM      8  C   UNL     1       2.362   4.394  17.699  0.00  0.00    +0.000 A 
ATOM      9  C   UNL     1       1.255   3.797  18.318  0.00  0.00    +0.000 A 
ATOM     10  C   UNL     1       1.352   2.515  18.857  0.00  0.00    +0.000 A 
ATOM     11  C   UNL     1       2.550   1.817  18.760  0.00  0.00    +0.000 A 
ATOM     12  C   UNL     1       3.653   2.413  18.144  0.00  0.00    +0.000 A 
ENDBRANCH   6   7
ENDBRANCH   5   6
ENDBRANCH   2   5
BRANCH   3  13
ATOM     13  C   UNL     1       8.387   8.301  17.585  0.00  0.00    +0.000 C 
BRANCH  13  14
ATOM     14  C   UNL     1       7.993   9.707  18.057  0.00  0.00    +0.000 C 
BRANCH  14  15
ATOM     15  C   UNL     1       9.163  10.492  18.610  0.00  0.00    +0.000 A 
ATOM     16  C   UNL     1       9.310  10.654  19.997  0.00  0.00    +0.000 A 
ATOM     17  C   UNL     1      10.369  11.398  20.516  0.00  0.00    +0.000 A 
ATOM     18  C   UNL     1      11.287  11.985  19.657  0.00  0.00    +0.000 A 
ATOM     19  F   UNL     1      12.301  12.704  20.159  0.00  0.00    +0.000 F 
ATOM     20  C   UNL     1      11.170  11.831  18.282  0.00  0.00    +0.000 A 
ATOM     21  C   UNL     1      10.108  11.084  17.756  0.00  0.00    +0.000 A 
ENDBRANCH  14  15
ENDBRANCH  13  14
ENDBRANCH   3  13
TORSDOF 6
ENDMDL
MODEL 9
REMARK VINA RESULT:      -6.8      0.905      1.314
REMARK  Name = 
REMARK  6 active torsions:
REMARK  status: ('A' for Active; 'I' for Inactive)
REMARK    1  A    between atoms: C_2  and  C_3
REMARK    2  A    between atoms: C_3  and  S_4
REMARK    3  A    between atoms: S_4  and  C_5
REMARK    4  A    between atoms: N_11  and  C_12
REMARK    5  A    between atoms: C_12  and  C_13
REMARK    6  A    between atoms: C_13  and  C_14
REMARK                            x       y       z     vdW  Elec       q    Type
REMARK                         _______ _______ _______ _____ _____    ______ ____
ROOT
ATOM      1  O   UNL     1       7.316   5.499  19.515  0.00  0.00    +0.000 OA
ATOM      2  C   UNL     1       6.702   5.900  18.532  0.00  0.00    +0.000 C 
ATOM      3  N   UNL     1       7.030   7.076  17.879  0.00  0.00    +0.000 N 
ATOM      4  H   UNL     1       6.547   7.262  17.006  0.00  0.00    +0.000 HD
ENDROOT
BRANCH   2   5
ATOM      5  C   UNL     1       5.453   5.173  18.014  0.00  0.00    +0.000 C 
BRANCH   5   6
ATOM      6  S   UNL     1       5.111   3.661  18.990  0.00  0.00    +0.000 S 
BRANCH   6   7
ATOM      7  C   UNL     1       3.397   3.811  19.477  0.00  0.00    +0.000 A 
ATOM      8  C   UNL     1       2.841   4.873  20.196  0.00  0.00    +0.000 A 
ATOM      9  C   UNL     1       1.493   4.843  20.577  0.00  0.00    +0.000 A 
ATOM     10  C   UNL     1       0.685   3.760  20.235  0.00  0.00    +0.000 A 
ATOM     11  C   UNL     1       1.218   2.712  19.492  0.00  0.00    +0.000 A 
ATOM     12  C   UNL     1       2.562   2.742  19.114  0.00  0.00    +0.000 A 
ENDBRANCH   6   7
ENDBRANCH   5   6
ENDBRANCH   2   5
BRANCH   3  13
ATOM     13  C   UNL     1       8.203   7.858  18.238  0.00  0.00    +0.000 C 
BRANCH  13  14
ATOM     14  C   UNL     1       8.136   9.301  17.720  0.00  0.00    +0.000 C 
BRANCH  14  15
ATOM     15  C   UNL     1       9.078  10.234  18.451  0.00  0.00    +0.000 A 
ATOM     16  C   UNL     1       9.104  10.250  19.855  0.00  0.00    +0.000 A 
ATOM     17  C   UNL     1       9.949  11.124  20.539  0.00  0.00    +0.000 A 
ATOM     18  C   UNL     1      10.771  11.987  19.828  0.00  0.00    +0.000 A 
ATOM     19  F   UNL     1      11.578  12.830  20.487  0.00  0.00    +0.000 F 
ATOM     20  C   UNL     1      10.771  11.983  18.439  0.00  0.00    +0.000 A 
ATOM     21  C   UNL     1       9.925  11.106  17.748  0.00  0.00    +0.000 A 
ENDBRANCH  14  15
ENDBRANCH  13  14
ENDBRANCH   3  13
TORSDOF 6
ENDMDL
