MODEL 1
REMARK VINA RESULT:      -8.0      0.000      0.000
REMARK  Name = 
REMARK  12 active torsions:
REMARK  status: ('A' for Active; 'I' for Inactive)
REMARK    1  A    between atoms: C_2  and  C_3
REMARK    2  A    between atoms: C_2  and  C_15
REMARK    3  A    between atoms: C_6  and  O_7
REMARK    4  A    between atoms: O_7  and  C_8
REMARK    5  A    between atoms: C_8  and  N_10
REMARK    6  A    between atoms: N_10  and  C_11
REMARK    7  A    between atoms: N_10  and  C_12
REMARK    8  A    between atoms: C_20  and  C_21
REMARK    9  A    between atoms: C_22  and  C_23
REMARK   10  A    between atoms: C_22  and  C_24
REMARK   11  A    between atoms: C_27  and  C_28
REMARK   12  A    between atoms: C_27  and  C_29
REMARK                            x       y       z     vdW  Elec       q    Type
REMARK                         _______ _______ _______ _____ _____    ______ ____
ROOT
ATOM      1  C   UNL     1      -2.200  11.468  18.673  0.00  0.00    +0.000 A 
ATOM      2  C   UNL     1      -3.018  12.227  19.613  0.00  0.00    +0.000 A 
ATOM      3  C   UNL     1      -4.443  12.261  19.570  0.00  0.00    +0.000 A 
ATOM      4  C   UNL     1      -4.981  11.485  18.549  0.00  0.00    +0.000 A 
ATOM      5  C   UNL     1      -4.199  10.668  17.665  0.00  0.00    +0.000 A 
ATOM      6  C   UNL     1      -2.814  10.648  17.709  0.00  0.00    +0.000 A 
ATOM      7  C   UNL     1      -2.097   9.846  16.655  0.00  0.00    +0.000 C 
ATOM      8  C   UNL     1      -6.491  11.601  18.201  0.00  0.00    +0.000 C 
ATOM      9  C   UNL     1      -6.614  10.290  19.097  0.00  0.00    +0.000 C 
ATOM     10  C   UNL     1      -5.977  12.707  17.148  0.00  0.00    +0.000 C 
ATOM     11  C   UNL     1      -7.557  12.421  18.883  0.00  0.00    +0.000 C 
ATOM     12  C   UNL     1      -6.986  13.246  20.004  0.00  0.00    +0.000 C 
ATOM     13  C   UNL     1      -5.434  13.123  20.431  0.00  0.00    +0.000 C 
ATOM     14  C   UNL     1      -4.932  14.581  20.401  0.00  0.00    +0.000 C 
ATOM     15  C   UNL     1      -5.449  12.646  21.909  0.00  0.00    +0.000 C 
ENDROOT
BRANCH   1  17
ATOM     16  C   UNL     1      -0.122  12.739  18.519  0.00  0.00    +0.000 C 
ATOM     17  C   UNL     1      -0.706  11.537  18.678  0.00  0.00    +0.000 C 
BRANCH  17  18
ATOM     18  C   UNL     1       0.208  10.393  18.953  0.00  0.00    +0.000 A 
ATOM     19  C   UNL     1       1.101   9.880  18.007  0.00  0.00    +0.000 A 
ATOM     20  C   UNL     1       1.915   8.763  18.305  0.00  0.00    +0.000 A 
ATOM     21  C   UNL     1       1.807   8.179  19.568  0.00  0.00    +0.000 A 
ATOM     22  C   UNL     1       0.879   8.636  20.490  0.00  0.00    +0.000 A 
ATOM     23  C   UNL     1       0.094   9.750  20.208  0.00  0.00    +0.000 A 
BRANCH  21  24
ATOM     24  O   UNL     1       2.579   7.048  19.833  0.00  0.00    +0.000 OA
BRANCH  24  25
ATOM     25  C   UNL     1       2.299   5.668  19.582  0.00  0.00    +0.000 C 
ATOM     26  S   UNL     1       1.661   4.735  20.819  0.00  0.00    +0.000 S 
BRANCH  25  27
ATOM     27  N   UNL     1       2.633   5.230  18.299  0.00  0.00    +0.000 N 
ATOM     28  C   UNL     1       3.831   5.668  17.582  0.00  0.00    +0.000 C 
ATOM     29  C   UNL     1       1.851   4.209  17.612  0.00  0.00    +0.000 C 
ENDBRANCH  25  27
ENDBRANCH  24  25
ENDBRANCH  21  24
ENDBRANCH  17  18
ENDBRANCH   1  17
TORSDOF 5
ENDMDL
MODEL 2
REMARK VINA RESULT:      -8.0      0.297      1.133
REMARK  Name = 
REMARK  12 active torsions:
REMARK  status: ('A' for Active; 'I' for Inactive)
REMARK    1  A    between atoms: C_2  and  C_3
REMARK    2  A    between atoms: C_2  and  C_15
REMARK    3  A    between atoms: C_6  and  O_7
REMARK    4  A    between atoms: O_7  and  C_8
REMARK    5  A    between atoms: C_8  and  N_10
REMARK    6  A    between atoms: N_10  and  C_11
REMARK    7  A    between atoms: N_10  and  C_12
REMARK    8  A    between atoms: C_20  and  C_21
REMARK    9  A    between atoms: C_22  and  C_23
REMARK   10  A    between atoms: C_22  and  C_24
REMARK   11  A    between atoms: C_27  and  C_28
REMARK   12  A    between atoms: C_27  and  C_29
REMARK                            x       y       z     vdW  Elec       q    Type
REMARK                         _______ _______ _______ _____ _____    ______ ____
ROOT
ATOM      1  C   UNL     1      -2.296  11.451  18.690  0.00  0.00    +0.000 A 
ATOM      2  C   UNL     1      -3.090  12.225  19.640  0.00  0.00    +0.000 A 
ATOM      3  C   UNL     1      -4.513  12.310  19.593  0.00  0.00    +0.000 A 
ATOM      4  C   UNL     1      -5.074  11.570  18.559  0.00  0.00    +0.000 A 
ATOM      5  C   UNL     1      -4.319  10.739  17.664  0.00  0.00    +0.000 A 
ATOM      6  C   UNL     1      -2.936  10.669  17.712  0.00  0.00    +0.000 A 
ATOM      7  C   UNL     1      -2.244   9.858  16.648  0.00  0.00    +0.000 C 
ATOM      8  C   UNL     1      -6.578  11.746  18.207  0.00  0.00    +0.000 C 
ATOM      9  C   UNL     1      -6.751  10.427  19.082  0.00  0.00    +0.000 C 
ATOM     10  C   UNL     1      -6.020  12.849  17.173  0.00  0.00    +0.000 C 
ATOM     11  C   UNL     1      -7.616  12.593  18.898  0.00  0.00    +0.000 C 
ATOM     12  C   UNL     1      -7.020  13.379  20.034  0.00  0.00    +0.000 C 
ATOM     13  C   UNL     1      -5.475  13.194  20.464  0.00  0.00    +0.000 C 
ATOM     14  C   UNL     1      -4.921  14.634  20.458  0.00  0.00    +0.000 C 
ATOM     15  C   UNL     1      -5.513  12.695  21.934  0.00  0.00    +0.000 C 
ENDROOT
BRANCH   1  17
ATOM     16  C   UNL     1      -0.173  12.644  18.526  0.00  0.00    +0.000 C 
ATOM     17  C   UNL     1      -0.800  11.466  18.701  0.00  0.00    +0.000 C 
BRANCH  17  18
ATOM     18  C   UNL     1       0.070  10.295  18.999  0.00  0.00    +0.000 A 
ATOM     19  C   UNL     1       0.131   9.684  20.255  0.00  0.00    +0.000 A 
ATOM     20  C   UNL     1       1.009   8.602  20.497  0.00  0.00    +0.000 A 
ATOM     21  C   UNL     1       1.818   8.155  19.451  0.00  0.00    +0.000 A 
ATOM     22  C   UNL     1       1.815   8.793  18.221  0.00  0.00    +0.000 A 
ATOM     23  C   UNL     1       0.934   9.843  17.973  0.00  0.00    +0.000 A 
BRANCH  21  24
ATOM     24  O   UNL     1       2.714   7.119  19.714  0.00  0.00    +0.000 OA
BRANCH  24  25
ATOM     25  C   UNL     1       2.585   5.714  19.479  0.00  0.00    +0.000 C 
ATOM     26  S   UNL     1       1.712   4.789  20.570  0.00  0.00    +0.000 S 
BRANCH  25  27
ATOM     27  N   UNL     1       3.254   5.250  18.344  0.00  0.00    +0.000 N 
ATOM     28  C   UNL     1       2.930   3.989  17.676  0.00  0.00    +0.000 C 
ATOM     29  C   UNL     1       4.270   6.052  17.674  0.00  0.00    +0.000 C 
ENDBRANCH  25  27
ENDBRANCH  24  25
ENDBRANCH  21  24
ENDBRANCH  17  18
ENDBRANCH   1  17
TORSDOF 5
ENDMDL
MODEL 3
REMARK VINA RESULT:      -7.9      0.918      1.438
REMARK  Name = 
REMARK  12 active torsions:
REMARK  status: ('A' for Active; 'I' for Inactive)
REMARK    1  A    between atoms: C_2  and  C_3
REMARK    2  A    between atoms: C_2  and  C_15
REMARK    3  A    between atoms: C_6  and  O_7
REMARK    4  A    between atoms: O_7  and  C_8
REMARK    5  A    between atoms: C_8  and  N_10
REMARK    6  A    between atoms: N_10  and  C_11
REMARK    7  A    between atoms: N_10  and  C_12
REMARK    8  A    between atoms: C_20  and  C_21
REMARK    9  A    between atoms: C_22  and  C_23
REMARK   10  A    between atoms: C_22  and  C_24
REMARK   11  A    between atoms: C_27  and  C_28
REMARK   12  A    between atoms: C_27  and  C_29
REMARK                            x       y       z     vdW  Elec       q    Type
REMARK                         _______ _______ _______ _____ _____    ______ ____
ROOT
ATOM      1  C   UNL     1      -2.405  11.543  18.643  0.00  0.00    +0.000 A 
ATOM      2  C   UNL     1      -3.213  12.275  19.614  0.00  0.00    +0.000 A 
ATOM      3  C   UNL     1      -4.635  12.364  19.547  0.00  0.00    +0.000 A 
ATOM      4  C   UNL     1      -5.180  11.672  18.472  0.00  0.00    +0.000 A 
ATOM      5  C   UNL     1      -4.412  10.880  17.554  0.00  0.00    +0.000 A 
ATOM      6  C   UNL     1      -3.029  10.806  17.620  0.00  0.00    +0.000 A 
ATOM      7  C   UNL     1      -2.321  10.042  16.533  0.00  0.00    +0.000 C 
ATOM      8  C   UNL     1      -6.678  11.865  18.105  0.00  0.00    +0.000 C 
ATOM      9  C   UNL     1      -6.866  10.508  18.918  0.00  0.00    +0.000 C 
ATOM     10  C   UNL     1      -6.103  13.012  17.130  0.00  0.00    +0.000 C 
ATOM     11  C   UNL     1      -7.727  12.681  18.816  0.00  0.00    +0.000 C 
ATOM     12  C   UNL     1      -7.149  13.416  19.995  0.00  0.00    +0.000 C 
ATOM     13  C   UNL     1      -5.611  13.210  20.441  0.00  0.00    +0.000 C 
ATOM     14  C   UNL     1      -5.055  14.648  20.509  0.00  0.00    +0.000 C 
ATOM     15  C   UNL     1      -5.672  12.646  21.887  0.00  0.00    +0.000 C 
ENDROOT
BRANCH   1  17
ATOM     16  C   UNL     1      -0.276  12.726  18.475  0.00  0.00    +0.000 C 
ATOM     17  C   UNL     1      -0.909  11.555  18.678  0.00  0.00    +0.000 C 
BRANCH  17  18
ATOM     18  C   UNL     1      -0.047  10.393  19.028  0.00  0.00    +0.000 A 
ATOM     19  C   UNL     1       0.066   9.885  20.326  0.00  0.00    +0.000 A 
ATOM     20  C   UNL     1       0.935   8.807  20.613  0.00  0.00    +0.000 A 
ATOM     21  C   UNL     1       1.681   8.258  19.570  0.00  0.00    +0.000 A 
ATOM     22  C   UNL     1       1.628   8.794  18.293  0.00  0.00    +0.000 A 
ATOM     23  C   UNL     1       0.756   9.840  18.003  0.00  0.00    +0.000 A 
BRANCH  21  24
ATOM     24  O   UNL     1       2.571   7.228  19.873  0.00  0.00    +0.000 OA
BRANCH  24  25
ATOM     25  C   UNL     1       2.902   6.054  19.126  0.00  0.00    +0.000 C 
ATOM     26  S   UNL     1       4.070   6.161  17.928  0.00  0.00    +0.000 S 
BRANCH  25  27
ATOM     27  N   UNL     1       2.166   4.918  19.468  0.00  0.00    +0.000 N 
ATOM     28  C   UNL     1       1.890   4.520  20.849  0.00  0.00    +0.000 C 
ATOM     29  C   UNL     1       1.521   4.092  18.456  0.00  0.00    +0.000 C 
ENDBRANCH  25  27
ENDBRANCH  24  25
ENDBRANCH  21  24
ENDBRANCH  17  18
ENDBRANCH   1  17
TORSDOF 5
ENDMDL
MODEL 4
REMARK VINA RESULT:      -7.6      0.976      1.116
REMARK  Name = 
REMARK  12 active torsions:
REMARK  status: ('A' for Active; 'I' for Inactive)
REMARK    1  A    between atoms: C_2  and  C_3
REMARK    2  A    between atoms: C_2  and  C_15
REMARK    3  A    between atoms: C_6  and  O_7
REMARK    4  A    between atoms: O_7  and  C_8
REMARK    5  A    between atoms: C_8  and  N_10
REMARK    6  A    between atoms: N_10  and  C_11
REMARK    7  A    between atoms: N_10  and  C_12
REMARK    8  A    between atoms: C_20  and  C_21
REMARK    9  A    between atoms: C_22  and  C_23
REMARK   10  A    between atoms: C_22  and  C_24
REMARK   11  A    between atoms: C_27  and  C_28
REMARK   12  A    between atoms: C_27  and  C_29
REMARK                            x       y       z     vdW  Elec       q    Type
REMARK                         _______ _______ _______ _____ _____    ______ ____
ROOT
ATOM      1  C   UNL     1      -2.261  11.494  18.679  0.00  0.00    +0.000 A 
ATOM      2  C   UNL     1      -3.068  12.263  19.622  0.00  0.00    +0.000 A 
ATOM      3  C   UNL     1      -4.494  12.309  19.583  0.00  0.00    +0.000 A 
ATOM      4  C   UNL     1      -5.042  11.537  18.566  0.00  0.00    +0.000 A 
ATOM      5  C   UNL     1      -4.271  10.711  17.680  0.00  0.00    +0.000 A 
ATOM      6  C   UNL     1      -2.886  10.678  17.719  0.00  0.00    +0.000 A 
ATOM      7  C   UNL     1      -2.180   9.868  16.665  0.00  0.00    +0.000 C 
ATOM      8  C   UNL     1      -6.552  11.666  18.222  0.00  0.00    +0.000 C 
ATOM      9  C   UNL     1      -6.684  10.358  19.121  0.00  0.00    +0.000 C 
ATOM     10  C   UNL     1      -6.031  12.765  17.165  0.00  0.00    +0.000 C 
ATOM     11  C   UNL     1      -7.608  12.496  18.906  0.00  0.00    +0.000 C 
ATOM     12  C   UNL     1      -7.026  13.318  20.024  0.00  0.00    +0.000 C 
ATOM     13  C   UNL     1      -5.473  13.182  20.446  0.00  0.00    +0.000 C 
ATOM     14  C   UNL     1      -4.958  14.636  20.411  0.00  0.00    +0.000 C 
ATOM     15  C   UNL     1      -5.488  12.708  21.925  0.00  0.00    +0.000 C 
ENDROOT
BRANCH   1  17
ATOM     16  C   UNL     1      -0.171  12.738  18.465  0.00  0.00    +0.000 C 
ATOM     17  C   UNL     1      -0.766  11.549  18.679  0.00  0.00    +0.000 C 
BRANCH  17  18
ATOM     18  C   UNL     1       0.137  10.411  19.005  0.00  0.00    +0.000 A 
ATOM     19  C   UNL     1       1.002   9.828  18.074  0.00  0.00    +0.000 A 
ATOM     20  C   UNL     1       1.807   8.719  18.423  0.00  0.00    +0.000 A 
ATOM     21  C   UNL     1       1.719   8.215  19.722  0.00  0.00    +0.000 A 
ATOM     22  C   UNL     1       0.818   8.741  20.634  0.00  0.00    +0.000 A 
ATOM     23  C   UNL     1       0.042   9.848  20.300  0.00  0.00    +0.000 A 
BRANCH  21  24
ATOM     24  O   UNL     1       2.481   7.091  20.040  0.00  0.00    +0.000 OA
BRANCH  24  25
ATOM     25  C   UNL     1       2.875   5.989  19.219  0.00  0.00    +0.000 C 
ATOM     26  S   UNL     1       3.803   6.288  17.856  0.00  0.00    +0.000 S 
BRANCH  25  27
ATOM     27  N   UNL     1       2.398   4.746  19.643  0.00  0.00    +0.000 N 
ATOM     28  C   UNL     1       3.089   3.484  19.381  0.00  0.00    +0.000 C 
ATOM     29  C   UNL     1       1.210   4.629  20.479  0.00  0.00    +0.000 C 
ENDBRANCH  25  27
ENDBRANCH  24  25
ENDBRANCH  21  24
ENDBRANCH  17  18
ENDBRANCH   1  17
TORSDOF 5
ENDMDL
MODEL 5
REMARK VINA RESULT:      -7.5      7.726     10.243
REMARK  Name = 
REMARK  12 active torsions:
REMARK  status: ('A' for Active; 'I' for Inactive)
REMARK    1  A    between atoms: C_2  and  C_3
REMARK    2  A    between atoms: C_2  and  C_15
REMARK    3  A    between atoms: C_6  and  O_7
REMARK    4  A    between atoms: O_7  and  C_8
REMARK    5  A    between atoms: C_8  and  N_10
REMARK    6  A    between atoms: N_10  and  C_11
REMARK    7  A    between atoms: N_10  and  C_12
REMARK    8  A    between atoms: C_20  and  C_21
REMARK    9  A    between atoms: C_22  and  C_23
REMARK   10  A    between atoms: C_22  and  C_24
REMARK   11  A    between atoms: C_27  and  C_28
REMARK   12  A    between atoms: C_27  and  C_29
REMARK                            x       y       z     vdW  Elec       q    Type
REMARK                         _______ _______ _______ _____ _____    ______ ____
ROOT
ATOM      1  C   UNL     1       4.468   5.614  17.563  0.00  0.00    +0.000 A 
ATOM      2  C   UNL     1       4.548   4.251  18.079  0.00  0.00    +0.000 A 
ATOM      3  C   UNL     1       3.527   3.649  18.872  0.00  0.00    +0.000 A 
ATOM      4  C   UNL     1       2.438   4.484  19.095  0.00  0.00    +0.000 A 
ATOM      5  C   UNL     1       2.304   5.796  18.530  0.00  0.00    +0.000 A 
ATOM      6  C   UNL     1       3.305   6.378  17.767  0.00  0.00    +0.000 A 
ATOM      7  C   UNL     1       3.104   7.804  17.327  0.00  0.00    +0.000 C 
ATOM      8  C   UNL     1       1.355   4.085  20.137  0.00  0.00    +0.000 C 
ATOM      9  C   UNL     1       0.558   3.590  18.850  0.00  0.00    +0.000 C 
ATOM     10  C   UNL     1       2.273   4.941  21.148  0.00  0.00    +0.000 C 
ATOM     11  C   UNL     1       1.248   2.820  20.949  0.00  0.00    +0.000 C 
ATOM     12  C   UNL     1       2.411   1.901  20.696  0.00  0.00    +0.000 C 
ATOM     13  C   UNL     1       3.534   2.252  19.591  0.00  0.00    +0.000 C 
ATOM     14  C   UNL     1       4.861   2.133  20.369  0.00  0.00    +0.000 C 
ATOM     15  C   UNL     1       3.473   1.093  18.558  0.00  0.00    +0.000 C 
ENDROOT
BRANCH   1  17
ATOM     16  C   UNL     1       5.609   6.176  15.479  0.00  0.00    +0.000 C 
ATOM     17  C   UNL     1       5.600   6.255  16.823  0.00  0.00    +0.000 C 
BRANCH  17  18
ATOM     18  C   UNL     1       6.678   7.075  17.441  0.00  0.00    +0.000 A 
ATOM     19  C   UNL     1       7.562   6.579  18.405  0.00  0.00    +0.000 A 
ATOM     20  C   UNL     1       8.540   7.414  18.994  0.00  0.00    +0.000 A 
ATOM     21  C   UNL     1       8.604   8.749  18.592  0.00  0.00    +0.000 A 
ATOM     22  C   UNL     1       7.693   9.269  17.687  0.00  0.00    +0.000 A 
ATOM     23  C   UNL     1       6.744   8.444  17.089  0.00  0.00    +0.000 A 
BRANCH  21  24
ATOM     24  O   UNL     1       9.540   9.574  19.215  0.00  0.00    +0.000 OA
BRANCH  24  25
ATOM     25  C   UNL     1       9.484  10.976  19.494  0.00  0.00    +0.000 C 
ATOM     26  S   UNL     1       9.102  11.477  21.047  0.00  0.00    +0.000 S 
BRANCH  25  27
ATOM     27  N   UNL     1       9.730  11.800  18.392  0.00  0.00    +0.000 N 
ATOM     28  C   UNL     1       8.778  12.797  17.902  0.00  0.00    +0.000 C 
ATOM     29  C   UNL     1      11.016  11.795  17.707  0.00  0.00    +0.000 C 
ENDBRANCH  25  27
ENDBRANCH  24  25
ENDBRANCH  21  24
ENDBRANCH  17  18
ENDBRANCH   1  17
TORSDOF 5
ENDMDL
MODEL 6
REMARK VINA RESULT:      -7.4      8.286     10.422
REMARK  Name = 
REMARK  12 active torsions:
REMARK  status: ('A' for Active; 'I' for Inactive)
REMARK    1  A    between atoms: C_2  and  C_3
REMARK    2  A    between atoms: C_2  and  C_15
REMARK    3  A    between atoms: C_6  and  O_7
REMARK    4  A    between atoms: O_7  and  C_8
REMARK    5  A    between atoms: C_8  and  N_10
REMARK    6  A    between atoms: N_10  and  C_11
REMARK    7  A    between atoms: N_10  and  C_12
REMARK    8  A    between atoms: C_20  and  C_21
REMARK    9  A    between atoms: C_22  and  C_23
REMARK   10  A    between atoms: C_22  and  C_24
REMARK   11  A    between atoms: C_27  and  C_28
REMARK   12  A    between atoms: C_27  and  C_29
REMARK                            x       y       z     vdW  Elec       q    Type
REMARK                         _______ _______ _______ _____ _____    ______ ____
ROOT
ATOM      1  C   UNL     1       5.716   4.549  18.089  0.00  0.00    +0.000 A 
ATOM      2  C   UNL     1       4.926   4.351  19.300  0.00  0.00    +0.000 A 
ATOM      3  C   UNL     1       3.582   3.873  19.294  0.00  0.00    +0.000 A 
ATOM      4  C   UNL     1       3.100   3.600  18.019  0.00  0.00    +0.000 A 
ATOM      5  C   UNL     1       3.886   3.712  16.823  0.00  0.00    +0.000 A 
ATOM      6  C   UNL     1       5.189   4.185  16.837  0.00  0.00    +0.000 A 
ATOM      7  C   UNL     1       5.875   4.372  15.509  0.00  0.00    +0.000 C 
ATOM      8  C   UNL     1       1.588   3.312  17.806  0.00  0.00    +0.000 C 
ATOM      9  C   UNL     1       2.060   1.791  17.822  0.00  0.00    +0.000 C 
ATOM     10  C   UNL     1       1.509   4.900  17.543  0.00  0.00    +0.000 C 
ATOM     11  C   UNL     1       0.494   3.202  18.837  0.00  0.00    +0.000 C 
ATOM     12  C   UNL     1       1.013   3.474  20.223  0.00  0.00    +0.000 C 
ATOM     13  C   UNL     1       2.583   3.732  20.497  0.00  0.00    +0.000 C 
ATOM     14  C   UNL     1       2.602   5.061  21.280  0.00  0.00    +0.000 C 
ATOM     15  C   UNL     1       3.026   2.596  21.459  0.00  0.00    +0.000 C 
ENDROOT
BRANCH   1  17
ATOM     16  C   UNL     1       8.147   4.325  18.053  0.00  0.00    +0.000 C 
ATOM     17  C   UNL     1       7.086   5.151  18.119  0.00  0.00    +0.000 C 
BRANCH  17  18
ATOM     18  C   UNL     1       7.386   6.609  18.108  0.00  0.00    +0.000 A 
ATOM     19  C   UNL     1       6.738   7.520  17.268  0.00  0.00    +0.000 A 
ATOM     20  C   UNL     1       7.093   8.888  17.265  0.00  0.00    +0.000 A 
ATOM     21  C   UNL     1       8.109   9.314  18.121  0.00  0.00    +0.000 A 
ATOM     22  C   UNL     1       8.804   8.412  18.911  0.00  0.00    +0.000 A 
ATOM     23  C   UNL     1       8.440   7.068  18.933  0.00  0.00    +0.000 A 
BRANCH  21  24
ATOM     24  O   UNL     1       8.484  10.656  18.075  0.00  0.00    +0.000 OA
BRANCH  24  25
ATOM     25  C   UNL     1       9.396  11.382  18.904  0.00  0.00    +0.000 C 
ATOM     26  S   UNL     1       9.289  11.210  20.567  0.00  0.00    +0.000 S 
BRANCH  25  27
ATOM     27  N   UNL     1      10.284  12.207  18.209  0.00  0.00    +0.000 N 
ATOM     28  C   UNL     1      11.650  11.814  17.864  0.00  0.00    +0.000 C 
ATOM     29  C   UNL     1       9.870  13.500  17.680  0.00  0.00    +0.000 C 
ENDBRANCH  25  27
ENDBRANCH  24  25
ENDBRANCH  21  24
ENDBRANCH  17  18
ENDBRANCH   1  17
TORSDOF 5
ENDMDL
MODEL 7
REMARK VINA RESULT:      -7.4      7.747     10.225
REMARK  Name = 
REMARK  12 active torsions:
REMARK  status: ('A' for Active; 'I' for Inactive)
REMARK    1  A    between atoms: C_2  and  C_3
REMARK    2  A    between atoms: C_2  and  C_15
REMARK    3  A    between atoms: C_6  and  O_7
REMARK    4  A    between atoms: O_7  and  C_8
REMARK    5  A    between atoms: C_8  and  N_10
REMARK    6  A    between atoms: N_10  and  C_11
REMARK    7  A    between atoms: N_10  and  C_12
REMARK    8  A    between atoms: C_20  and  C_21
REMARK    9  A    between atoms: C_22  and  C_23
REMARK   10  A    between atoms: C_22  and  C_24
REMARK   11  A    between atoms: C_27  and  C_28
REMARK   12  A    between atoms: C_27  and  C_29
REMARK                            x       y       z     vdW  Elec       q    Type
REMARK                         _______ _______ _______ _____ _____    ______ ____
ROOT
ATOM      1  C   UNL     1       4.491   5.642  17.560  0.00  0.00    +0.000 A 
ATOM      2  C   UNL     1       4.571   4.286  18.095  0.00  0.00    +0.000 A 
ATOM      3  C   UNL     1       3.538   3.685  18.873  0.00  0.00    +0.000 A 
ATOM      4  C   UNL     1       2.438   4.514  19.062  0.00  0.00    +0.000 A 
ATOM      5  C   UNL     1       2.305   5.818  18.478  0.00  0.00    +0.000 A 
ATOM      6  C   UNL     1       3.318   6.398  17.730  0.00  0.00    +0.000 A 
ATOM      7  C   UNL     1       3.115   7.817  17.268  0.00  0.00    +0.000 C 
ATOM      8  C   UNL     1       1.336   4.119  20.085  0.00  0.00    +0.000 C 
ATOM      9  C   UNL     1       0.571   3.601  18.788  0.00  0.00    +0.000 C 
ATOM     10  C   UNL     1       2.225   4.995  21.105  0.00  0.00    +0.000 C 
ATOM     11  C   UNL     1       1.221   2.863  20.911  0.00  0.00    +0.000 C 
ATOM     12  C   UNL     1       2.397   1.950  20.694  0.00  0.00    +0.000 C 
ATOM     13  C   UNL     1       3.541   2.297  19.609  0.00  0.00    +0.000 C 
ATOM     14  C   UNL     1       4.852   2.199  20.416  0.00  0.00    +0.000 C 
ATOM     15  C   UNL     1       3.511   1.126  18.589  0.00  0.00    +0.000 C 
ENDROOT
BRANCH   1  17
ATOM     16  C   UNL     1       5.725   6.107  15.505  0.00  0.00    +0.000 C 
ATOM     17  C   UNL     1       5.634   6.283  16.837  0.00  0.00    +0.000 C 
BRANCH  17  18
ATOM     18  C   UNL     1       6.634   7.200  17.449  0.00  0.00    +0.000 A 
ATOM     19  C   UNL     1       6.758   8.547  17.096  0.00  0.00    +0.000 A 
ATOM     20  C   UNL     1       7.755   9.363  17.676  0.00  0.00    +0.000 A 
ATOM     21  C   UNL     1       8.621   8.794  18.612  0.00  0.00    +0.000 A 
ATOM     22  C   UNL     1       8.552   7.445  18.921  0.00  0.00    +0.000 A 
ATOM     23  C   UNL     1       7.555   6.645  18.369  0.00  0.00    +0.000 A 
BRANCH  21  24
ATOM     24  O   UNL     1       9.632   9.596  19.141  0.00  0.00    +0.000 OA
BRANCH  24  25
ATOM     25  C   UNL     1       9.603  10.974  19.521  0.00  0.00    +0.000 C 
ATOM     26  S   UNL     1       9.165  11.371  21.089  0.00  0.00    +0.000 S 
BRANCH  25  27
ATOM     27  N   UNL     1       9.922  11.868  18.497  0.00  0.00    +0.000 N 
ATOM     28  C   UNL     1      11.219  11.890  17.819  0.00  0.00    +0.000 C 
ATOM     29  C   UNL     1       8.934  12.789  17.951  0.00  0.00    +0.000 C 
ENDBRANCH  25  27
ENDBRANCH  24  25
ENDBRANCH  21  24
ENDBRANCH  17  18
ENDBRANCH   1  17
TORSDOF 5
ENDMDL
MODEL 8
REMARK VINA RESULT:      -7.3      3.391      9.112
REMARK  Name = 
REMARK  12 active torsions:
REMARK  status: ('A' for Active; 'I' for Inactive)
REMARK    1  A    between atoms: C_2  and  C_3
REMARK    2  A    between atoms: C_2  and  C_15
REMARK    3  A    between atoms: C_6  and  O_7
REMARK    4  A    between atoms: O_7  and  C_8
REMARK    5  A    between atoms: C_8  and  N_10
REMARK    6  A    between atoms: N_10  and  C_11
REMARK    7  A    between atoms: N_10  and  C_12
REMARK    8  A    between atoms: C_20  and  C_21
REMARK    9  A    between atoms: C_22  and  C_23
REMARK   10  A    between atoms: C_22  and  C_24
REMARK   11  A    between atoms: C_27  and  C_28
REMARK   12  A    between atoms: C_27  and  C_29
REMARK                            x       y       z     vdW  Elec       q    Type
REMARK                         _______ _______ _______ _____ _____    ______ ____
ROOT
ATOM      1  C   UNL     1       1.770   7.402  20.074  0.00  0.00    +0.000 A 
ATOM      2  C   UNL     1       1.696   6.037  20.584  0.00  0.00    +0.000 A 
ATOM      3  C   UNL     1       2.126   4.896  19.844  0.00  0.00    +0.000 A 
ATOM      4  C   UNL     1       2.638   5.212  18.591  0.00  0.00    +0.000 A 
ATOM      5  C   UNL     1       2.794   6.553  18.103  0.00  0.00    +0.000 A 
ATOM      6  C   UNL     1       2.366   7.656  18.825  0.00  0.00    +0.000 A 
ATOM      7  C   UNL     1       2.472   9.005  18.162  0.00  0.00    +0.000 C 
ATOM      8  C   UNL     1       2.920   4.083  17.561  0.00  0.00    +0.000 C 
ATOM      9  C   UNL     1       4.419   4.233  18.077  0.00  0.00    +0.000 C 
ATOM     10  C   UNL     1       1.416   4.402  17.074  0.00  0.00    +0.000 C 
ATOM     11  C   UNL     1       2.787   2.592  17.735  0.00  0.00    +0.000 C 
ATOM     12  C   UNL     1       2.255   2.240  19.097  0.00  0.00    +0.000 C 
ATOM     13  C   UNL     1       1.992   3.375  20.215  0.00  0.00    +0.000 C 
ATOM     14  C   UNL     1       0.533   3.127  20.650  0.00  0.00    +0.000 C 
ATOM     15  C   UNL     1       2.921   3.007  21.404  0.00  0.00    +0.000 C 
ENDROOT
BRANCH   1  17
ATOM     16  C   UNL     1       1.783   8.896  22.005  0.00  0.00    +0.000 C 
ATOM     17  C   UNL     1       1.214   8.568  20.829  0.00  0.00    +0.000 C 
BRANCH  17  18
ATOM     18  C   UNL     1       0.142   9.478  20.341  0.00  0.00    +0.000 A 
ATOM     19  C   UNL     1      -0.446   9.363  19.078  0.00  0.00    +0.000 A 
ATOM     20  C   UNL     1      -1.430  10.282  18.646  0.00  0.00    +0.000 A 
ATOM     21  C   UNL     1      -1.802  11.313  19.509  0.00  0.00    +0.000 A 
ATOM     22  C   UNL     1      -1.180  11.479  20.736  0.00  0.00    +0.000 A 
ATOM     23  C   UNL     1      -0.229  10.561  21.173  0.00  0.00    +0.000 A 
BRANCH  21  24
ATOM     24  O   UNL     1      -2.737  12.242  19.053  0.00  0.00    +0.000 OA
BRANCH  24  25
ATOM     25  C   UNL     1      -4.158  12.267  19.217  0.00  0.00    +0.000 C 
ATOM     26  S   UNL     1      -4.806  13.080  20.531  0.00  0.00    +0.000 S 
BRANCH  25  27
ATOM     27  N   UNL     1      -4.869  11.558  18.246  0.00  0.00    +0.000 N 
ATOM     28  C   UNL     1      -6.089  10.801  18.531  0.00  0.00    +0.000 C 
ATOM     29  C   UNL     1      -4.498  11.607  16.838  0.00  0.00    +0.000 C 
ENDBRANCH  25  27
ENDBRANCH  24  25
ENDBRANCH  21  24
ENDBRANCH  17  18
ENDBRANCH   1  17
TORSDOF 5
ENDMDL
MODEL 9
REMARK VINA RESULT:      -7.1      1.231      2.121
REMARK  Name = 
REMARK  12 active torsions:
REMARK  status: ('A' for Active; 'I' for Inactive)
REMARK    1  A    between atoms: C_2  and  C_3
REMARK    2  A    between atoms: C_2  and  C_15
REMARK    3  A    between atoms: C_6  and  O_7
REMARK    4  A    between atoms: O_7  and  C_8
REMARK    5  A    between atoms: C_8  and  N_10
REMARK    6  A    between atoms: N_10  and  C_11
REMARK    7  A    between atoms: N_10  and  C_12
REMARK    8  A    between atoms: C_20  and  C_21
REMARK    9  A    between atoms: C_22  and  C_23
REMARK   10  A    between atoms: C_22  and  C_24
REMARK   11  A    between atoms: C_27  and  C_28
REMARK   12  A    between atoms: C_27  and  C_29
REMARK                            x       y       z     vdW  Elec       q    Type
REMARK                         _______ _______ _______ _____ _____    ______ ____
ROOT
ATOM      1  C   UNL     1      -1.882  12.017  19.771  0.00  0.00    +0.000 A 
ATOM      2  C   UNL     1      -2.209  12.473  21.118  0.00  0.00    +0.000 A 
ATOM      3  C   UNL     1      -3.528  12.826  21.531  0.00  0.00    +0.000 A 
ATOM      4  C   UNL     1      -4.477  12.680  20.526  0.00  0.00    +0.000 A 
ATOM      5  C   UNL     1      -4.191  12.157  19.220  0.00  0.00    +0.000 A 
ATOM      6  C   UNL     1      -2.905  11.824  18.824  0.00  0.00    +0.000 A 
ATOM      7  C   UNL     1      -2.705  11.399  17.394  0.00  0.00    +0.000 C 
ATOM      8  C   UNL     1      -5.909  13.251  20.723  0.00  0.00    +0.000 C 
ATOM      9  C   UNL     1      -6.262  11.746  21.108  0.00  0.00    +0.000 C 
ATOM     10  C   UNL     1      -5.291  14.556  20.008  0.00  0.00    +0.000 C 
ATOM     11  C   UNL     1      -6.500  13.921  21.937  0.00  0.00    +0.000 C 
ATOM     12  C   UNL     1      -5.484  14.062  23.038  0.00  0.00    +0.000 C 
ATOM     13  C   UNL     1      -4.000  13.443  22.896  0.00  0.00    +0.000 C 
ATOM     14  C   UNL     1      -3.076  14.637  23.214  0.00  0.00    +0.000 C 
ATOM     15  C   UNL     1      -3.871  12.411  24.049  0.00  0.00    +0.000 C 
ENDROOT
BRANCH   1  17
ATOM     16  C   UNL     1       0.233  12.775  18.816  0.00  0.00    +0.000 C 
ATOM     17  C   UNL     1      -0.474  11.755  19.337  0.00  0.00    +0.000 C 
BRANCH  17  18
ATOM     18  C   UNL     1       0.262  10.475  19.531  0.00  0.00    +0.000 A 
ATOM     19  C   UNL     1       0.331   9.807  20.758  0.00  0.00    +0.000 A 
ATOM     20  C   UNL     1       1.082   8.618  20.898  0.00  0.00    +0.000 A 
ATOM     21  C   UNL     1       1.758   8.122  19.782  0.00  0.00    +0.000 A 
ATOM     22  C   UNL     1       1.752   8.808  18.579  0.00  0.00    +0.000 A 
ATOM     23  C   UNL     1       0.994   9.967  18.431  0.00  0.00    +0.000 A 
BRANCH  21  24
ATOM     24  O   UNL     1       2.535   6.975  19.945  0.00  0.00    +0.000 OA
BRANCH  24  25
ATOM     25  C   UNL     1       2.235   5.613  19.627  0.00  0.00    +0.000 C 
ATOM     26  S   UNL     1       1.672   4.605  20.842  0.00  0.00    +0.000 S 
BRANCH  25  27
ATOM     27  N   UNL     1       2.486   5.255  18.300  0.00  0.00    +0.000 N 
ATOM     28  C   UNL     1       3.657   5.709  17.550  0.00  0.00    +0.000 C 
ATOM     29  C   UNL     1       1.638   4.305  17.592  0.00  0.00    +0.000 C 
ENDBRANCH  25  27
ENDBRANCH  24  25
ENDBRANCH  21  24
ENDBRANCH  17  18
ENDBRANCH   1  17
TORSDOF 5
ENDMDL
