MODEL 1
REMARK VINA RESULT:      -8.1      0.000      0.000
REMARK  Name = 
REMARK  4 active torsions:
REMARK  status: ('A' for Active; 'I' for Inactive)
REMARK    1  A    between atoms: C_1  and  C_2
REMARK    2  A    between atoms: C_7  and  N_8
REMARK    3  A    between atoms: N_8  and  C_9
REMARK    4  A    between atoms: C_16  and  N_17
REMARK                            x       y       z     vdW  Elec       q    Type
REMARK                         _______ _______ _______ _____ _____    ______ ____
ROOT
ATOM      1  C   UNL     1       2.453   7.144  19.540  0.00  0.00    +0.000 A 
ATOM      2  N   UNL     1       1.739   7.989  20.318  0.00  0.00    +0.000 NA
ATOM      3  C   UNL     1       1.307   9.143  19.790  0.00  0.00    +0.000 A 
ATOM      4  N   UNL     1       0.593   9.998  20.615  0.00  0.00    +0.000 N 
ATOM      5  C   UNL     1       0.424  11.374  20.498  0.00  0.00    +0.000 A 
ATOM      6  C   UNL     1       0.502  12.039  19.286  0.00  0.00    +0.000 A 
ATOM      7  C   UNL     1       0.460  13.431  19.235  0.00  0.00    +0.000 A 
ATOM      8  C   UNL     1       0.279  14.180  20.388  0.00  0.00    +0.000 A 
ATOM      9  C   UNL     1       0.138  13.420  21.551  0.00  0.00    +0.000 A 
ATOM     10  N   UNL     1       0.208  12.061  21.641  0.00  0.00    +0.000 NA
ATOM     11  N   UNL     1       1.567   9.485  18.512  0.00  0.00    +0.000 NA
ATOM     12  C   UNL     1       2.302   8.658  17.766  0.00  0.00    +0.000 A 
ATOM     13  C   UNL     1       2.790   7.468  18.230  0.00  0.00    +0.000 A 
ATOM     14 CL   UNL     1       3.721   6.446  17.209  0.00  0.00    +0.000 Cl
ATOM     15  H   UNL     1       0.577   9.681  21.573  0.00  0.00    +0.000 HD
ENDROOT
BRANCH   8  16
ATOM     16  N   UNL     1       0.212  15.558  20.367  0.00  0.00    +0.000 N 
ATOM     17  C   UNL     1      -1.016  16.281  20.000  0.00  0.00    +0.000 C 
ATOM     18  C   UNL     1      -0.835  17.035  18.676  0.00  0.00    +0.000 C 
ATOM     19  O   UNL     1       0.310  17.900  18.724  0.00  0.00    +0.000 OA
ATOM     20  C   UNL     1       1.501  17.129  18.955  0.00  0.00    +0.000 C 
ATOM     21  C   UNL     1       1.443  16.360  20.289  0.00  0.00    +0.000 C 
ENDBRANCH   8  16
BRANCH   1  22
ATOM     22  N   UNL     1       2.965   5.946  20.097  0.00  0.00    +0.000 N 
ATOM     23  H   UNL     1       3.978   5.995  20.168  0.00  0.00    +0.000 HD
BRANCH  22  30
ATOM     24  C   UNL     1       4.942   3.825  19.136  0.00  0.00    +0.000 C 
ATOM     25  C   UNL     1       3.473   3.605  19.374  0.00  0.00    +0.000 A 
ATOM     26  C   UNL     1       2.970   2.308  19.155  0.00  0.00    +0.000 A 
ATOM     27  C   UNL     1       1.635   2.000  19.409  0.00  0.00    +0.000 A 
ATOM     28  C   UNL     1       0.776   2.983  19.884  0.00  0.00    +0.000 A 
ATOM     29  C   UNL     1       1.253   4.278  20.077  0.00  0.00    +0.000 A 
ATOM     30  C   UNL     1       2.586   4.621  19.782  0.00  0.00    +0.000 A 
ENDBRANCH  22  30
ENDBRANCH   1  22
TORSDOF 3
ENDMDL
MODEL 2
REMARK VINA RESULT:      -8.0      2.241      2.661
REMARK  Name = 
REMARK  4 active torsions:
REMARK  status: ('A' for Active; 'I' for Inactive)
REMARK    1  A    between atoms: C_1  and  C_2
REMARK    2  A    between atoms: C_7  and  N_8
REMARK    3  A    between atoms: N_8  and  C_9
REMARK    4  A    between atoms: C_16  and  N_17
REMARK                            x       y       z     vdW  Elec       q    Type
REMARK                         _______ _______ _______ _____ _____    ______ ____
ROOT
ATOM      1  C   UNL     1       2.209   7.291  19.785  0.00  0.00    +0.000 A 
ATOM      2  N   UNL     1       1.375   7.801  20.721  0.00  0.00    +0.000 NA
ATOM      3  C   UNL     1       0.718   8.937  20.450  0.00  0.00    +0.000 A 
ATOM      4  N   UNL     1      -0.114   9.447  21.433  0.00  0.00    +0.000 N 
ATOM      5  C   UNL     1      -0.541  10.759  21.613  0.00  0.00    +0.000 A 
ATOM      6  C   UNL     1      -0.629  11.668  20.573  0.00  0.00    +0.000 A 
ATOM      7  C   UNL     1      -0.931  13.006  20.821  0.00  0.00    +0.000 A 
ATOM      8  C   UNL     1      -1.211  13.445  22.107  0.00  0.00    +0.000 A 
ATOM      9  C   UNL     1      -1.168  12.443  23.078  0.00  0.00    +0.000 A 
ATOM     10  N   UNL     1      -0.843  11.135  22.875  0.00  0.00    +0.000 NA
ATOM     11  N   UNL     1       0.868   9.586  19.278  0.00  0.00    +0.000 NA
ATOM     12  C   UNL     1       1.719   9.090  18.377  0.00  0.00    +0.000 A 
ATOM     13  C   UNL     1       2.436   7.943  18.579  0.00  0.00    +0.000 A 
ATOM     14 CL   UNL     1       3.506   7.356  17.369  0.00  0.00    +0.000 Cl
ATOM     15  H   UNL     1      -0.040   8.936  22.301  0.00  0.00    +0.000 HD
ENDROOT
BRANCH   8  16
ATOM     16  N   UNL     1      -1.534  14.758  22.381  0.00  0.00    +0.000 N 
ATOM     17  C   UNL     1      -0.946  15.493  23.512  0.00  0.00    +0.000 C 
ATOM     18  C   UNL     1      -2.009  15.814  24.571  0.00  0.00    +0.000 C 
ATOM     19  O   UNL     1      -3.125  16.509  23.992  0.00  0.00    +0.000 OA
ATOM     20  C   UNL     1      -3.744  15.694  22.983  0.00  0.00    +0.000 C 
ATOM     21  C   UNL     1      -2.769  15.347  21.841  0.00  0.00    +0.000 C 
ENDBRANCH   8  16
BRANCH   1  22
ATOM     22  N   UNL     1       2.953   6.121  20.076  0.00  0.00    +0.000 N 
ATOM     23  H   UNL     1       3.942   6.278  19.899  0.00  0.00    +0.000 HD
BRANCH  22  30
ATOM     24  C   UNL     1       4.903   4.230  18.680  0.00  0.00    +0.000 C 
ATOM     25  C   UNL     1       3.512   3.874  19.126  0.00  0.00    +0.000 A 
ATOM     26  C   UNL     1       3.078   2.553  18.901  0.00  0.00    +0.000 A 
ATOM     27  C   UNL     1       1.827   2.121  19.337  0.00  0.00    +0.000 A 
ATOM     28  C   UNL     1       0.985   3.000  20.005  0.00  0.00    +0.000 A 
ATOM     29  C   UNL     1       1.389   4.318  20.209  0.00  0.00    +0.000 A 
ATOM     30  C   UNL     1       2.628   4.788  19.736  0.00  0.00    +0.000 A 
ENDBRANCH  22  30
ENDBRANCH   1  22
TORSDOF 3
ENDMDL
MODEL 3
REMARK VINA RESULT:      -8.0      2.557      3.227
REMARK  Name = 
REMARK  4 active torsions:
REMARK  status: ('A' for Active; 'I' for Inactive)
REMARK    1  A    between atoms: C_1  and  C_2
REMARK    2  A    between atoms: C_7  and  N_8
REMARK    3  A    between atoms: N_8  and  C_9
REMARK    4  A    between atoms: C_16  and  N_17
REMARK                            x       y       z     vdW  Elec       q    Type
REMARK                         _______ _______ _______ _____ _____    ______ ____
ROOT
ATOM      1  C   UNL     1       2.543   6.964  19.575  0.00  0.00    +0.000 A 
ATOM      2  N   UNL     1       1.652   7.361  20.513  0.00  0.00    +0.000 NA
ATOM      3  C   UNL     1       0.946   8.480  20.301  0.00  0.00    +0.000 A 
ATOM      4  N   UNL     1       0.054   8.872  21.286  0.00  0.00    +0.000 N 
ATOM      5  C   UNL     1      -0.447  10.144  21.546  0.00  0.00    +0.000 A 
ATOM      6  C   UNL     1      -0.546  11.124  20.573  0.00  0.00    +0.000 A 
ATOM      7  C   UNL     1      -0.926  12.422  20.907  0.00  0.00    +0.000 A 
ATOM      8  C   UNL     1      -1.273  12.748  22.210  0.00  0.00    +0.000 A 
ATOM      9  C   UNL     1      -1.212  11.679  23.106  0.00  0.00    +0.000 A 
ATOM     10  N   UNL     1      -0.812  10.408  22.820  0.00  0.00    +0.000 NA
ATOM     11  N   UNL     1       1.102   9.222  19.187  0.00  0.00    +0.000 NA
ATOM     12  C   UNL     1       2.009   8.839  18.286  0.00  0.00    +0.000 A 
ATOM     13  C   UNL     1       2.777   7.717  18.430  0.00  0.00    +0.000 A 
ATOM     14 CL   UNL     1       3.919   7.277  17.223  0.00  0.00    +0.000 Cl
ATOM     15  H   UNL     1       0.125   8.302  22.116  0.00  0.00    +0.000 HD
ENDROOT
BRANCH   8  16
ATOM     16  N   UNL     1      -1.674  14.019  22.568  0.00  0.00    +0.000 N 
ATOM     17  C   UNL     1      -0.844  14.900  23.404  0.00  0.00    +0.000 C 
ATOM     18  C   UNL     1      -1.499  15.139  24.770  0.00  0.00    +0.000 C 
ATOM     19  O   UNL     1      -2.839  15.634  24.624  0.00  0.00    +0.000 OA
ATOM     20  C   UNL     1      -3.644  14.678  23.913  0.00  0.00    +0.000 C 
ATOM     21  C   UNL     1      -3.095  14.396  22.501  0.00  0.00    +0.000 C 
ENDBRANCH   8  16
BRANCH   1  22
ATOM     22  N   UNL     1       3.337   5.814  19.808  0.00  0.00    +0.000 N 
ATOM     23  H   UNL     1       4.324   6.055  19.777  0.00  0.00    +0.000 HD
BRANCH  22  30
ATOM     24  C   UNL     1       1.034   3.973  20.602  0.00  0.00    +0.000 C 
ATOM     25  C   UNL     1       2.087   3.659  19.576  0.00  0.00    +0.000 A 
ATOM     26  C   UNL     1       1.994   2.421  18.910  0.00  0.00    +0.000 A 
ATOM     27  C   UNL     1       2.892   2.075  17.902  0.00  0.00    +0.000 A 
ATOM     28  C   UNL     1       3.901   2.957  17.541  0.00  0.00    +0.000 A 
ATOM     29  C   UNL     1       4.024   4.173  18.212  0.00  0.00    +0.000 A 
ATOM     30  C   UNL     1       3.157   4.522  19.264  0.00  0.00    +0.000 A 
ENDBRANCH  22  30
ENDBRANCH   1  22
TORSDOF 3
ENDMDL
MODEL 4
REMARK VINA RESULT:      -8.0      2.679      4.349
REMARK  Name = 
REMARK  4 active torsions:
REMARK  status: ('A' for Active; 'I' for Inactive)
REMARK    1  A    between atoms: C_1  and  C_2
REMARK    2  A    between atoms: C_7  and  N_8
REMARK    3  A    between atoms: N_8  and  C_9
REMARK    4  A    between atoms: C_16  and  N_17
REMARK                            x       y       z     vdW  Elec       q    Type
REMARK                         _______ _______ _______ _____ _____    ______ ____
ROOT
ATOM      1  C   UNL     1       2.931   4.996  18.581  0.00  0.00    +0.000 A 
ATOM      2  N   UNL     1       2.810   6.339  18.479  0.00  0.00    +0.000 NA
ATOM      3  C   UNL     1       2.242   7.015  19.487  0.00  0.00    +0.000 A 
ATOM      4  N   UNL     1       2.116   8.388  19.347  0.00  0.00    +0.000 N 
ATOM      5  C   UNL     1       1.215   9.244  19.974  0.00  0.00    +0.000 A 
ATOM      6  C   UNL     1       0.645   8.962  21.204  0.00  0.00    +0.000 A 
ATOM      7  C   UNL     1      -0.352   9.781  21.731  0.00  0.00    +0.000 A 
ATOM      8  C   UNL     1      -0.753  10.930  21.066  0.00  0.00    +0.000 A 
ATOM      9  C   UNL     1      -0.072  11.169  19.870  0.00  0.00    +0.000 A 
ATOM     10  N   UNL     1       0.882  10.372  19.311  0.00  0.00    +0.000 NA
ATOM     11  N   UNL     1       1.785   6.396  20.594  0.00  0.00    +0.000 NA
ATOM     12  C   UNL     1       1.878   5.067  20.667  0.00  0.00    +0.000 A 
ATOM     13  C   UNL     1       2.434   4.302  19.679  0.00  0.00    +0.000 A 
ATOM     14 CL   UNL     1       2.532   2.594  19.846  0.00  0.00    +0.000 Cl
ATOM     15  H   UNL     1       2.382   8.706  18.427  0.00  0.00    +0.000 HD
ENDROOT
BRANCH   8  16
ATOM     16  N   UNL     1      -1.722  11.772  21.571  0.00  0.00    +0.000 N 
ATOM     17  C   UNL     1      -2.436  12.745  20.730  0.00  0.00    +0.000 C 
ATOM     18  C   UNL     1      -2.072  14.183  21.121  0.00  0.00    +0.000 C 
ATOM     19  O   UNL     1      -2.292  14.411  22.522  0.00  0.00    +0.000 OA
ATOM     20  C   UNL     1      -1.473  13.523  23.301  0.00  0.00    +0.000 C 
ATOM     21  C   UNL     1      -1.791  12.043  23.016  0.00  0.00    +0.000 C 
ENDBRANCH   8  16
BRANCH   1  22
ATOM     22  N   UNL     1       3.478   4.259  17.502  0.00  0.00    +0.000 N 
ATOM     23  H   UNL     1       3.318   3.264  17.637  0.00  0.00    +0.000 HD
BRANCH  22  30
ATOM     24  C   UNL     1       6.050   4.772  19.068  0.00  0.00    +0.000 C 
ATOM     25  C   UNL     1       5.949   4.647  17.572  0.00  0.00    +0.000 A 
ATOM     26  C   UNL     1       7.143   4.755  16.832  0.00  0.00    +0.000 A 
ATOM     27  C   UNL     1       7.150   4.591  15.448  0.00  0.00    +0.000 A 
ATOM     28  C   UNL     1       5.966   4.317  14.777  0.00  0.00    +0.000 A 
ATOM     29  C   UNL     1       4.773   4.238  15.493  0.00  0.00    +0.000 A 
ATOM     30  C   UNL     1       4.736   4.447  16.884  0.00  0.00    +0.000 A 
ENDBRANCH  22  30
ENDBRANCH   1  22
TORSDOF 3
ENDMDL
MODEL 5
REMARK VINA RESULT:      -7.9      6.218      7.415
REMARK  Name = 
REMARK  4 active torsions:
REMARK  status: ('A' for Active; 'I' for Inactive)
REMARK    1  A    between atoms: C_1  and  C_2
REMARK    2  A    between atoms: C_7  and  N_8
REMARK    3  A    between atoms: N_8  and  C_9
REMARK    4  A    between atoms: C_16  and  N_17
REMARK                            x       y       z     vdW  Elec       q    Type
REMARK                         _______ _______ _______ _____ _____    ______ ____
ROOT
ATOM      1  C   UNL     1       6.102   6.084  17.334  0.00  0.00    +0.000 A 
ATOM      2  N   UNL     1       6.532   7.311  16.960  0.00  0.00    +0.000 NA
ATOM      3  C   UNL     1       7.535   7.880  17.643  0.00  0.00    +0.000 A 
ATOM      4  N   UNL     1       7.942   9.144  17.248  0.00  0.00    +0.000 N 
ATOM      5  C   UNL     1       8.598  10.116  17.997  0.00  0.00    +0.000 A 
ATOM      6  C   UNL     1       9.401   9.811  19.083  0.00  0.00    +0.000 A 
ATOM      7  C   UNL     1       9.928  10.822  19.885  0.00  0.00    +0.000 A 
ATOM      8  C   UNL     1       9.712  12.158  19.579  0.00  0.00    +0.000 A 
ATOM      9  C   UNL     1       8.952  12.367  18.426  0.00  0.00    +0.000 A 
ATOM     10  N   UNL     1       8.394  11.403  17.641  0.00  0.00    +0.000 NA
ATOM     11  N   UNL     1       8.122   7.269  18.691  0.00  0.00    +0.000 NA
ATOM     12  C   UNL     1       7.665   6.074  19.072  0.00  0.00    +0.000 A 
ATOM     13  C   UNL     1       6.639   5.430  18.437  0.00  0.00    +0.000 A 
ATOM     14 CL   UNL     1       6.110   3.885  18.975  0.00  0.00    +0.000 Cl
ATOM     15  H   UNL     1       7.343   9.536  16.537  0.00  0.00    +0.000 HD
ENDROOT
BRANCH   8  16
ATOM     16  N   UNL     1      10.238  13.181  20.340  0.00  0.00    +0.000 N 
ATOM     17  C   UNL     1       9.426  13.944  21.301  0.00  0.00    +0.000 C 
ATOM     18  C   UNL     1       9.259  15.399  20.847  0.00  0.00    +0.000 C 
ATOM     19  O   UNL     1      10.533  16.016  20.602  0.00  0.00    +0.000 OA
ATOM     20  C   UNL     1      11.231  15.310  19.562  0.00  0.00    +0.000 C 
ATOM     21  C   UNL     1      11.492  13.838  19.937  0.00  0.00    +0.000 C 
ENDBRANCH   8  16
BRANCH   1  22
ATOM     22  N   UNL     1       5.006   5.492  16.659  0.00  0.00    +0.000 N 
ATOM     23  H   UNL     1       4.706   6.082  15.888  0.00  0.00    +0.000 HD
BRANCH  22  30
ATOM     24  C   UNL     1       2.847   7.034  18.171  0.00  0.00    +0.000 C 
ATOM     25  C   UNL     1       2.838   5.554  17.907  0.00  0.00    +0.000 A 
ATOM     26  C   UNL     1       1.733   4.819  18.378  0.00  0.00    +0.000 A 
ATOM     27  C   UNL     1       1.613   3.454  18.125  0.00  0.00    +0.000 A 
ATOM     28  C   UNL     1       2.597   2.796  17.398  0.00  0.00    +0.000 A 
ATOM     29  C   UNL     1       3.711   3.504  16.952  0.00  0.00    +0.000 A 
ATOM     30  C   UNL     1       3.874   4.872  17.236  0.00  0.00    +0.000 A 
ENDBRANCH  22  30
ENDBRANCH   1  22
TORSDOF 3
ENDMDL
MODEL 6
REMARK VINA RESULT:      -7.9      1.400      1.666
REMARK  Name = 
REMARK  4 active torsions:
REMARK  status: ('A' for Active; 'I' for Inactive)
REMARK    1  A    between atoms: C_1  and  C_2
REMARK    2  A    between atoms: C_7  and  N_8
REMARK    3  A    between atoms: N_8  and  C_9
REMARK    4  A    between atoms: C_16  and  N_17
REMARK                            x       y       z     vdW  Elec       q    Type
REMARK                         _______ _______ _______ _____ _____    ______ ____
ROOT
ATOM      1  C   UNL     1       2.211   7.329  19.874  0.00  0.00    +0.000 A 
ATOM      2  N   UNL     1       1.419   7.911  20.804  0.00  0.00    +0.000 NA
ATOM      3  C   UNL     1       0.782   9.047  20.489  0.00  0.00    +0.000 A 
ATOM      4  N   UNL     1      -0.008   9.631  21.467  0.00  0.00    +0.000 N 
ATOM      5  C   UNL     1      -0.398  10.961  21.586  0.00  0.00    +0.000 A 
ATOM      6  C   UNL     1      -0.495  11.814  20.500  0.00  0.00    +0.000 A 
ATOM      7  C   UNL     1      -0.758  13.171  20.683  0.00  0.00    +0.000 A 
ATOM      8  C   UNL     1      -0.988  13.687  21.949  0.00  0.00    +0.000 A 
ATOM      9  C   UNL     1      -0.940  12.738  22.973  0.00  0.00    +0.000 A 
ATOM     10  N   UNL     1      -0.653  11.413  22.833  0.00  0.00    +0.000 NA
ATOM     11  N   UNL     1       0.911   9.627  19.279  0.00  0.00    +0.000 NA
ATOM     12  C   UNL     1       1.722   9.062  18.383  0.00  0.00    +0.000 A 
ATOM     13  C   UNL     1       2.417   7.909  18.627  0.00  0.00    +0.000 A 
ATOM     14 CL   UNL     1       3.436   7.230  17.421  0.00  0.00    +0.000 Cl
ATOM     15  H   UNL     1       0.080   9.167  22.359  0.00  0.00    +0.000 HD
ENDROOT
BRANCH   8  16
ATOM     16  N   UNL     1      -1.271  15.020  22.160  0.00  0.00    +0.000 N 
ATOM     17  C   UNL     1      -1.788  15.893  21.094  0.00  0.00    +0.000 C 
ATOM     18  C   UNL     1      -0.757  16.964  20.713  0.00  0.00    +0.000 C 
ATOM     19  O   UNL     1      -0.331  17.708  21.865  0.00  0.00    +0.000 OA
ATOM     20  C   UNL     1       0.285  16.827  22.820  0.00  0.00    +0.000 C 
ATOM     21  C   UNL     1      -0.684  15.732  23.306  0.00  0.00    +0.000 C 
ENDBRANCH   8  16
BRANCH   1  22
ATOM     22  N   UNL     1       2.936   6.158  20.208  0.00  0.00    +0.000 N 
ATOM     23  H   UNL     1       3.928   6.296  20.035  0.00  0.00    +0.000 HD
BRANCH  22  30
ATOM     24  C   UNL     1       4.889   4.180  18.945  0.00  0.00    +0.000 C 
ATOM     25  C   UNL     1       3.478   3.868  19.358  0.00  0.00    +0.000 A 
ATOM     26  C   UNL     1       3.024   2.549  19.167  0.00  0.00    +0.000 A 
ATOM     27  C   UNL     1       1.751   2.157  19.578  0.00  0.00    +0.000 A 
ATOM     28  C   UNL     1       0.907   3.076  20.186  0.00  0.00    +0.000 A 
ATOM     29  C   UNL     1       1.331   4.393  20.355  0.00  0.00    +0.000 A 
ATOM     30  C   UNL     1       2.594   4.821  19.905  0.00  0.00    +0.000 A 
ENDBRANCH  22  30
ENDBRANCH   1  22
TORSDOF 3
ENDMDL
MODEL 7
REMARK VINA RESULT:      -7.8      3.110      4.974
REMARK  Name = 
REMARK  4 active torsions:
REMARK  status: ('A' for Active; 'I' for Inactive)
REMARK    1  A    between atoms: C_1  and  C_2
REMARK    2  A    between atoms: C_7  and  N_8
REMARK    3  A    between atoms: N_8  and  C_9
REMARK    4  A    between atoms: C_16  and  N_17
REMARK                            x       y       z     vdW  Elec       q    Type
REMARK                         _______ _______ _______ _____ _____    ______ ____
ROOT
ATOM      1  C   UNL     1       4.013   4.495  17.816  0.00  0.00    +0.000 A 
ATOM      2  N   UNL     1       3.729   5.795  17.568  0.00  0.00    +0.000 NA
ATOM      3  C   UNL     1       3.178   6.532  18.543  0.00  0.00    +0.000 A 
ATOM      4  N   UNL     1       2.881   7.854  18.255  0.00  0.00    +0.000 N 
ATOM      5  C   UNL     1       1.946   8.685  18.866  0.00  0.00    +0.000 A 
ATOM      6  C   UNL     1       1.525   8.506  20.173  0.00  0.00    +0.000 A 
ATOM      7  C   UNL     1       0.490   9.277  20.699  0.00  0.00    +0.000 A 
ATOM      8  C   UNL     1      -0.100  10.283  19.948  0.00  0.00    +0.000 A 
ATOM      9  C   UNL     1       0.440  10.436  18.668  0.00  0.00    +0.000 A 
ATOM     10  N   UNL     1       1.426   9.678  18.112  0.00  0.00    +0.000 NA
ATOM     11  N   UNL     1       2.896   6.016  19.755  0.00  0.00    +0.000 NA
ATOM     12  C   UNL     1       3.149   4.724  19.975  0.00  0.00    +0.000 A 
ATOM     13  C   UNL     1       3.700   3.900  19.032  0.00  0.00    +0.000 A 
ATOM     14 CL   UNL     1       4.010   2.248  19.389  0.00  0.00    +0.000 Cl
ATOM     15  H   UNL     1       3.025   8.077  17.282  0.00  0.00    +0.000 HD
ENDROOT
BRANCH   8  16
ATOM     16  N   UNL     1      -1.111  11.077  20.447  0.00  0.00    +0.000 N 
ATOM     17  C   UNL     1      -1.837  12.045  19.610  0.00  0.00    +0.000 C 
ATOM     18  C   UNL     1      -1.535  13.485  20.047  0.00  0.00    +0.000 C 
ATOM     19  O   UNL     1      -1.800  13.669  21.446  0.00  0.00    +0.000 OA
ATOM     20  C   UNL     1      -0.970  12.792  22.225  0.00  0.00    +0.000 C 
ATOM     21  C   UNL     1      -1.227  11.309  21.896  0.00  0.00    +0.000 C 
ENDBRANCH   8  16
BRANCH   1  22
ATOM     22  N   UNL     1       4.545   3.687  16.780  0.00  0.00    +0.000 N 
ATOM     23  H   UNL     1       4.840   2.788  17.151  0.00  0.00    +0.000 HD
BRANCH  22  30
ATOM     24  C   UNL     1       7.365   4.726  17.320  0.00  0.00    +0.000 C 
ATOM     25  C   UNL     1       6.754   4.527  15.960  0.00  0.00    +0.000 A 
ATOM     26  C   UNL     1       7.556   4.825  14.841  0.00  0.00    +0.000 A 
ATOM     27  C   UNL     1       7.092   4.612  13.545  0.00  0.00    +0.000 A 
ATOM     28  C   UNL     1       5.818   4.100  13.341  0.00  0.00    +0.000 A 
ATOM     29  C   UNL     1       5.002   3.828  14.438  0.00  0.00    +0.000 A 
ATOM     30  C   UNL     1       5.434   4.080  15.754  0.00  0.00    +0.000 A 
ENDBRANCH  22  30
ENDBRANCH   1  22
TORSDOF 3
ENDMDL
MODEL 8
REMARK VINA RESULT:      -7.7      3.122      4.575
REMARK  Name = 
REMARK  4 active torsions:
REMARK  status: ('A' for Active; 'I' for Inactive)
REMARK    1  A    between atoms: C_1  and  C_2
REMARK    2  A    between atoms: C_7  and  N_8
REMARK    3  A    between atoms: N_8  and  C_9
REMARK    4  A    between atoms: C_16  and  N_17
REMARK                            x       y       z     vdW  Elec       q    Type
REMARK                         _______ _______ _______ _____ _____    ______ ____
ROOT
ATOM      1  C   UNL     1       3.295   5.003  19.438  0.00  0.00    +0.000 A 
ATOM      2  N   UNL     1       3.258   6.286  19.009  0.00  0.00    +0.000 NA
ATOM      3  C   UNL     1       2.391   7.133  19.581  0.00  0.00    +0.000 A 
ATOM      4  N   UNL     1       2.363   8.436  19.109  0.00  0.00    +0.000 N 
ATOM      5  C   UNL     1       1.324   9.359  19.178  0.00  0.00    +0.000 A 
ATOM      6  C   UNL     1       0.350   9.320  20.161  0.00  0.00    +0.000 A 
ATOM      7  C   UNL     1      -0.744  10.182  20.113  0.00  0.00    +0.000 A 
ATOM      8  C   UNL     1      -0.852  11.139  19.115  0.00  0.00    +0.000 A 
ATOM      9  C   UNL     1       0.214  11.151  18.212  0.00  0.00    +0.000 A 
ATOM     10  N   UNL     1       1.279  10.301  18.211  0.00  0.00    +0.000 NA
ATOM     11  N   UNL     1       1.555   6.744  20.564  0.00  0.00    +0.000 NA
ATOM     12  C   UNL     1       1.578   5.468  20.954  0.00  0.00    +0.000 A 
ATOM     13  C   UNL     1       2.424   4.537  20.416  0.00  0.00    +0.000 A 
ATOM     14 CL   UNL     1       2.406   2.912  20.975  0.00  0.00    +0.000 Cl
ATOM     15  H   UNL     1       2.945   8.562  18.295  0.00  0.00    +0.000 HD
ENDROOT
BRANCH   8  16
ATOM     16  N   UNL     1      -1.911  12.020  19.053  0.00  0.00    +0.000 N 
ATOM     17  C   UNL     1      -2.219  12.960  20.142  0.00  0.00    +0.000 C 
ATOM     18  C   UNL     1      -3.550  12.605  20.816  0.00  0.00    +0.000 C 
ATOM     19  O   UNL     1      -4.613  12.523  19.854  0.00  0.00    +0.000 OA
ATOM     20  C   UNL     1      -4.325  11.499  18.886  0.00  0.00    +0.000 C 
ATOM     21  C   UNL     1      -3.021  11.783  18.115  0.00  0.00    +0.000 C 
ENDBRANCH   8  16
BRANCH   1  22
ATOM     22  N   UNL     1       4.166   4.081  18.808  0.00  0.00    +0.000 N 
ATOM     23  H   UNL     1       4.581   3.459  19.497  0.00  0.00    +0.000 HD
BRANCH  22  30
ATOM     24  C   UNL     1       6.857   5.418  19.353  0.00  0.00    +0.000 C 
ATOM     25  C   UNL     1       6.382   4.928  18.012  0.00  0.00    +0.000 A 
ATOM     26  C   UNL     1       7.259   5.080  16.920  0.00  0.00    +0.000 A 
ATOM     27  C   UNL     1       6.924   4.599  15.656  0.00  0.00    +0.000 A 
ATOM     28  C   UNL     1       5.708   3.960  15.457  0.00  0.00    +0.000 A 
ATOM     29  C   UNL     1       4.818   3.830  16.522  0.00  0.00    +0.000 A 
ATOM     30  C   UNL     1       5.116   4.349  17.795  0.00  0.00    +0.000 A 
ENDBRANCH  22  30
ENDBRANCH   1  22
TORSDOF 3
ENDMDL
MODEL 9
REMARK VINA RESULT:      -7.7      1.964      2.459
REMARK  Name = 
REMARK  4 active torsions:
REMARK  status: ('A' for Active; 'I' for Inactive)
REMARK    1  A    between atoms: C_1  and  C_2
REMARK    2  A    between atoms: C_7  and  N_8
REMARK    3  A    between atoms: N_8  and  C_9
REMARK    4  A    between atoms: C_16  and  N_17
REMARK                            x       y       z     vdW  Elec       q    Type
REMARK                         _______ _______ _______ _____ _____    ______ ____
ROOT
ATOM      1  C   UNL     1       2.309   7.231  19.600  0.00  0.00    +0.000 A 
ATOM      2  N   UNL     1       1.447   7.689  20.536  0.00  0.00    +0.000 NA
ATOM      3  C   UNL     1       0.800   8.841  20.310  0.00  0.00    +0.000 A 
ATOM      4  N   UNL     1      -0.063   9.295  21.295  0.00  0.00    +0.000 N 
ATOM      5  C   UNL     1      -0.494  10.596  21.537  0.00  0.00    +0.000 A 
ATOM      6  C   UNL     1      -0.548  11.564  20.548  0.00  0.00    +0.000 A 
ATOM      7  C   UNL     1      -0.857  12.886  20.863  0.00  0.00    +0.000 A 
ATOM      8  C   UNL     1      -1.177  13.251  22.162  0.00  0.00    +0.000 A 
ATOM      9  C   UNL     1      -1.166  12.194  23.075  0.00  0.00    +0.000 A 
ATOM     10  N   UNL     1      -0.836  10.899  22.808  0.00  0.00    +0.000 NA
ATOM     11  N   UNL     1       0.987   9.556  19.183  0.00  0.00    +0.000 NA
ATOM     12  C   UNL     1       1.866   9.110  18.283  0.00  0.00    +0.000 A 
ATOM     13  C   UNL     1       2.575   7.951  18.441  0.00  0.00    +0.000 A 
ATOM     14 CL   UNL     1       3.683   7.432  17.233  0.00  0.00    +0.000 Cl
ATOM     15  H   UNL     1      -0.017   8.736  22.133  0.00  0.00    +0.000 HD
ENDROOT
BRANCH   8  16
ATOM     16  N   UNL     1      -1.507  14.547  22.502  0.00  0.00    +0.000 N 
ATOM     17  C   UNL     1      -0.811  15.711  21.933  0.00  0.00    +0.000 C 
ATOM     18  C   UNL     1      -0.005  16.450  23.009  0.00  0.00    +0.000 C 
ATOM     19  O   UNL     1      -0.834  16.806  24.126  0.00  0.00    +0.000 OA
ATOM     20  C   UNL     1      -1.386  15.622  24.727  0.00  0.00    +0.000 C 
ATOM     21  C   UNL     1      -2.256  14.823  23.738  0.00  0.00    +0.000 C 
ENDBRANCH   8  16
BRANCH   1  22
ATOM     22  N   UNL     1       3.043   6.044  19.846  0.00  0.00    +0.000 N 
ATOM     23  H   UNL     1       4.002   6.150  19.527  0.00  0.00    +0.000 HD
BRANCH  22  30
ATOM     24  C   UNL     1       4.535   4.108  18.017  0.00  0.00    +0.000 C 
ATOM     25  C   UNL     1       3.306   3.779  18.818  0.00  0.00    +0.000 A 
ATOM     26  C   UNL     1       2.812   2.462  18.735  0.00  0.00    +0.000 A 
ATOM     27  C   UNL     1       1.715   2.054  19.490  0.00  0.00    +0.000 A 
ATOM     28  C   UNL     1       1.088   2.954  20.342  0.00  0.00    +0.000 A 
ATOM     29  C   UNL     1       1.547   4.268  20.412  0.00  0.00    +0.000 A 
ATOM     30  C   UNL     1       2.624   4.713  19.623  0.00  0.00    +0.000 A 
ENDBRANCH  22  30
ENDBRANCH   1  22
TORSDOF 3
ENDMDL
