MODEL 1
REMARK VINA RESULT:      -7.8      0.000      0.000
REMARK  Name = 
REMARK  6 active torsions:
REMARK  status: ('A' for Active; 'I' for Inactive)
REMARK    1  A    between atoms: C_1  and  C_2
REMARK    2  A    between atoms: C_2  and  C_3
REMARK    3  A    between atoms: C_4  and  C_5
REMARK    4  A    between atoms: C_6  and  O_7
REMARK    5  A    between atoms: C_9  and  O_10
REMARK    6  A    between atoms: C_15  and  C_16
REMARK                            x       y       z     vdW  Elec       q    Type
REMARK                         _______ _______ _______ _____ _____    ______ ____
ROOT
ATOM      1  C   UNL     1       3.483   3.814  19.008  0.00  0.00    +0.000 A 
ATOM      2  C   UNL     1       4.151   2.858  18.229  0.00  0.00    +0.000 A 
ATOM      3  C   UNL     1       4.821   3.215  17.064  0.00  0.00    +0.000 A 
ATOM      4  C   UNL     1       4.809   4.541  16.640  0.00  0.00    +0.000 A 
ATOM      5  C   UNL     1       4.102   5.511  17.367  0.00  0.00    +0.000 A 
ATOM      6  C   UNL     1       4.030   6.925  16.927  0.00  0.00    +0.000 A 
ATOM      7  O   UNL     1       4.611   7.387  15.953  0.00  0.00    +0.000 OA
ATOM      8  C   UNL     1       3.187   7.817  17.728  0.00  0.00    +0.000 A 
ATOM      9  C   UNL     1       2.604   7.346  18.834  0.00  0.00    +0.000 A 
ATOM     10  O   UNL     1       2.730   6.058  19.309  0.00  0.00    +0.000 OA
ATOM     11  C   UNL     1       3.441   5.147  18.550  0.00  0.00    +0.000 A 
ENDROOT
BRANCH   9  12
ATOM     12  C   UNL     1       1.770   8.249  19.631  0.00  0.00    +0.000 A 
ATOM     13  C   UNL     1       1.398   7.901  20.937  0.00  0.00    +0.000 A 
ATOM     14  C   UNL     1       0.483   8.688  21.640  0.00  0.00    +0.000 A 
ATOM     15  C   UNL     1      -0.063   9.825  21.045  0.00  0.00    +0.000 A 
ATOM     16  C   UNL     1       0.316  10.188  19.754  0.00  0.00    +0.000 A 
ATOM     17  C   UNL     1       1.231   9.403  19.049  0.00  0.00    +0.000 A 
ENDBRANCH   9  12
BRANCH   1  21
ATOM     18  C   UNL     1       1.192   2.611  21.883  0.00  0.00    +0.000 C 
ATOM     19  C   UNL     1       1.655   2.940  20.488  0.00  0.00    +0.000 C 
ATOM     20  C   UNL     1       0.675   2.711  19.372  0.00  0.00    +0.000 C 
ATOM     21  C   UNL     1       2.891   3.440  20.303  0.00  0.00    +0.000 C 
ENDBRANCH   1  21
BRANCH   2  22
ATOM     22  O   UNL     1       4.189   1.528  18.557  0.00  0.00    +0.000 OA
ATOM     23  H   UNL     1       3.306   1.149  18.399  0.00  0.00    +0.000 HD
ENDBRANCH   2  22
BRANCH   4  24
ATOM     24  O   UNL     1       5.487   4.870  15.501  0.00  0.00    +0.000 OA
ATOM     25  H   UNL     1       6.189   4.223  15.324  0.00  0.00    +0.000 HD
ENDBRANCH   4  24
TORSDOF 4
ENDMDL
MODEL 2
REMARK VINA RESULT:      -7.7      0.171      1.022
REMARK  Name = 
REMARK  6 active torsions:
REMARK  status: ('A' for Active; 'I' for Inactive)
REMARK    1  A    between atoms: C_1  and  C_2
REMARK    2  A    between atoms: C_2  and  C_3
REMARK    3  A    between atoms: C_4  and  C_5
REMARK    4  A    between atoms: C_6  and  O_7
REMARK    5  A    between atoms: C_9  and  O_10
REMARK    6  A    between atoms: C_15  and  C_16
REMARK                            x       y       z     vdW  Elec       q    Type
REMARK                         _______ _______ _______ _____ _____    ______ ____
ROOT
ATOM      1  C   UNL     1       3.459   3.834  19.044  0.00  0.00    +0.000 A 
ATOM      2  C   UNL     1       4.141   2.891  18.259  0.00  0.00    +0.000 A 
ATOM      3  C   UNL     1       4.807   3.263  17.096  0.00  0.00    +0.000 A 
ATOM      4  C   UNL     1       4.777   4.592  16.680  0.00  0.00    +0.000 A 
ATOM      5  C   UNL     1       4.057   5.548  17.412  0.00  0.00    +0.000 A 
ATOM      6  C   UNL     1       3.966   6.963  16.980  0.00  0.00    +0.000 A 
ATOM      7  O   UNL     1       4.541   7.438  16.009  0.00  0.00    +0.000 OA
ATOM      8  C   UNL     1       3.111   7.839  17.785  0.00  0.00    +0.000 A 
ATOM      9  C   UNL     1       2.533   7.354  18.888  0.00  0.00    +0.000 A 
ATOM     10  O   UNL     1       2.676   6.065  19.356  0.00  0.00    +0.000 OA
ATOM     11  C   UNL     1       3.400   5.168  18.593  0.00  0.00    +0.000 A 
ENDROOT
BRANCH   9  12
ATOM     12  C   UNL     1       1.686   8.241  19.689  0.00  0.00    +0.000 A 
ATOM     13  C   UNL     1       1.208   9.443  19.148  0.00  0.00    +0.000 A 
ATOM     14  C   UNL     1       0.529  10.356  19.956  0.00  0.00    +0.000 A 
ATOM     15  C   UNL     1       0.320  10.075  21.306  0.00  0.00    +0.000 A 
ATOM     16  C   UNL     1       0.774   8.873  21.847  0.00  0.00    +0.000 A 
ATOM     17  C   UNL     1       1.454   7.958  21.042  0.00  0.00    +0.000 A 
ENDBRANCH   9  12
BRANCH   1  21
ATOM     18  C   UNL     1       1.179   2.593  21.911  0.00  0.00    +0.000 C 
ATOM     19  C   UNL     1       1.638   2.938  20.519  0.00  0.00    +0.000 C 
ATOM     20  C   UNL     1       0.656   2.718  19.403  0.00  0.00    +0.000 C 
ATOM     21  C   UNL     1       2.872   3.445  20.336  0.00  0.00    +0.000 C 
ENDBRANCH   1  21
BRANCH   2  22
ATOM     22  O   UNL     1       4.197   1.560  18.580  0.00  0.00    +0.000 OA
ATOM     23  H   UNL     1       5.095   1.360  18.901  0.00  0.00    +0.000 HD
ENDBRANCH   2  22
BRANCH   4  24
ATOM     24  O   UNL     1       5.452   4.936  15.544  0.00  0.00    +0.000 OA
ATOM     25  H   UNL     1       6.189   4.325  15.386  0.00  0.00    +0.000 HD
ENDBRANCH   4  24
TORSDOF 4
ENDMDL
MODEL 3
REMARK VINA RESULT:      -7.6      2.118      4.162
REMARK  Name = 
REMARK  6 active torsions:
REMARK  status: ('A' for Active; 'I' for Inactive)
REMARK    1  A    between atoms: C_1  and  C_2
REMARK    2  A    between atoms: C_2  and  C_3
REMARK    3  A    between atoms: C_4  and  C_5
REMARK    4  A    between atoms: C_6  and  O_7
REMARK    5  A    between atoms: C_9  and  O_10
REMARK    6  A    between atoms: C_15  and  C_16
REMARK                            x       y       z     vdW  Elec       q    Type
REMARK                         _______ _______ _______ _____ _____    ______ ____
ROOT
ATOM      1  C   UNL     1       5.815   5.799  17.051  0.00  0.00    +0.000 A 
ATOM      2  C   UNL     1       6.440   4.612  16.639  0.00  0.00    +0.000 A 
ATOM      3  C   UNL     1       5.734   3.417  16.550  0.00  0.00    +0.000 A 
ATOM      4  C   UNL     1       4.387   3.384  16.902  0.00  0.00    +0.000 A 
ATOM      5  C   UNL     1       3.748   4.542  17.372  0.00  0.00    +0.000 A 
ATOM      6  C   UNL     1       2.327   4.538  17.796  0.00  0.00    +0.000 A 
ATOM      7  O   UNL     1       1.576   3.575  17.723  0.00  0.00    +0.000 OA
ATOM      8  C   UNL     1       1.807   5.791  18.349  0.00  0.00    +0.000 A 
ATOM      9  C   UNL     1       2.593   6.872  18.369  0.00  0.00    +0.000 A 
ATOM     10  O   UNL     1       3.887   6.920  17.898  0.00  0.00    +0.000 OA
ATOM     11  C   UNL     1       4.462   5.748  17.445  0.00  0.00    +0.000 A 
ENDROOT
BRANCH   9  12
ATOM     12  C   UNL     1       2.059   8.122  18.917  0.00  0.00    +0.000 A 
ATOM     13  C   UNL     1       1.607   8.177  20.243  0.00  0.00    +0.000 A 
ATOM     14  C   UNL     1       0.963   9.320  20.719  0.00  0.00    +0.000 A 
ATOM     15  C   UNL     1       0.768  10.415  19.877  0.00  0.00    +0.000 A 
ATOM     16  C   UNL     1       1.232  10.375  18.563  0.00  0.00    +0.000 A 
ATOM     17  C   UNL     1       1.877   9.233  18.084  0.00  0.00    +0.000 A 
ENDBRANCH   9  12
BRANCH   1  21
ATOM     18  C   UNL     1       8.183   8.791  17.686  0.00  0.00    +0.000 C 
ATOM     19  C   UNL     1       7.537   7.441  17.849  0.00  0.00    +0.000 C 
ATOM     20  C   UNL     1       8.032   6.580  18.977  0.00  0.00    +0.000 C 
ATOM     21  C   UNL     1       6.545   7.077  17.014  0.00  0.00    +0.000 C 
ENDBRANCH   1  21
BRANCH   2  22
ATOM     22  O   UNL     1       7.766   4.550  16.302  0.00  0.00    +0.000 OA
ATOM     23  H   UNL     1       8.233   4.046  16.992  0.00  0.00    +0.000 HD
ENDBRANCH   2  22
BRANCH   4  24
ATOM     24  O   UNL     1       3.711   2.203  16.791  0.00  0.00    +0.000 OA
ATOM     25  H   UNL     1       4.319   1.452  16.881  0.00  0.00    +0.000 HD
ENDBRANCH   4  24
TORSDOF 4
ENDMDL
MODEL 4
REMARK VINA RESULT:      -7.5      0.815      1.084
REMARK  Name = 
REMARK  6 active torsions:
REMARK  status: ('A' for Active; 'I' for Inactive)
REMARK    1  A    between atoms: C_1  and  C_2
REMARK    2  A    between atoms: C_2  and  C_3
REMARK    3  A    between atoms: C_4  and  C_5
REMARK    4  A    between atoms: C_6  and  O_7
REMARK    5  A    between atoms: C_9  and  O_10
REMARK    6  A    between atoms: C_15  and  C_16
REMARK                            x       y       z     vdW  Elec       q    Type
REMARK                         _______ _______ _______ _____ _____    ______ ____
ROOT
ATOM      1  C   UNL     1       2.905   3.648  18.384  0.00  0.00    +0.000 A 
ATOM      2  C   UNL     1       3.560   2.586  17.740  0.00  0.00    +0.000 A 
ATOM      3  C   UNL     1       4.573   2.816  16.815  0.00  0.00    +0.000 A 
ATOM      4  C   UNL     1       4.931   4.123  16.494  0.00  0.00    +0.000 A 
ATOM      5  C   UNL     1       4.256   5.206  17.079  0.00  0.00    +0.000 A 
ATOM      6  C   UNL     1       4.579   6.612  16.734  0.00  0.00    +0.000 A 
ATOM      7  O   UNL     1       5.477   6.959  15.978  0.00  0.00    +0.000 OA
ATOM      8  C   UNL     1       3.742   7.645  17.348  0.00  0.00    +0.000 A 
ATOM      9  C   UNL     1       2.805   7.286  18.231  0.00  0.00    +0.000 A 
ATOM     10  O   UNL     1       2.548   5.993  18.633  0.00  0.00    +0.000 OA
ATOM     11  C   UNL     1       3.246   4.968  18.023  0.00  0.00    +0.000 A 
ENDROOT
BRANCH   9  12
ATOM     12  C   UNL     1       1.978   8.329  18.845  0.00  0.00    +0.000 A 
ATOM     13  C   UNL     1       1.616   8.241  20.197  0.00  0.00    +0.000 A 
ATOM     14  C   UNL     1       0.708   9.151  20.742  0.00  0.00    +0.000 A 
ATOM     15  C   UNL     1       0.160  10.154  19.943  0.00  0.00    +0.000 A 
ATOM     16  C   UNL     1       0.530  10.261  18.604  0.00  0.00    +0.000 A 
ATOM     17  C   UNL     1       1.437   9.352  18.056  0.00  0.00    +0.000 A 
ENDBRANCH   9  12
BRANCH   1  21
ATOM     18  C   UNL     1       1.100   2.687  21.667  0.00  0.00    +0.000 C 
ATOM     19  C   UNL     1       2.217   2.911  20.681  0.00  0.00    +0.000 C 
ATOM     20  C   UNL     1       3.606   2.558  21.132  0.00  0.00    +0.000 C 
ATOM     21  C   UNL     1       1.929   3.383  19.453  0.00  0.00    +0.000 C 
ENDBRANCH   1  21
BRANCH   2  22
ATOM     22  O   UNL     1       3.251   1.272  17.975  0.00  0.00    +0.000 OA
ATOM     23  H   UNL     1       2.683   1.228  18.765  0.00  0.00    +0.000 HD
ENDBRANCH   2  22
BRANCH   4  24
ATOM     24  O   UNL     1       5.939   4.323  15.595  0.00  0.00    +0.000 OA
ATOM     25  H   UNL     1       6.113   3.512  15.093  0.00  0.00    +0.000 HD
ENDBRANCH   4  24
TORSDOF 4
ENDMDL
MODEL 5
REMARK VINA RESULT:      -7.3      0.787      1.453
REMARK  Name = 
REMARK  6 active torsions:
REMARK  status: ('A' for Active; 'I' for Inactive)
REMARK    1  A    between atoms: C_1  and  C_2
REMARK    2  A    between atoms: C_2  and  C_3
REMARK    3  A    between atoms: C_4  and  C_5
REMARK    4  A    between atoms: C_6  and  O_7
REMARK    5  A    between atoms: C_9  and  O_10
REMARK    6  A    between atoms: C_15  and  C_16
REMARK                            x       y       z     vdW  Elec       q    Type
REMARK                         _______ _______ _______ _____ _____    ______ ____
ROOT
ATOM      1  C   UNL     1       2.856   3.654  18.405  0.00  0.00    +0.000 A 
ATOM      2  C   UNL     1       3.504   2.606  17.733  0.00  0.00    +0.000 A 
ATOM      3  C   UNL     1       4.500   2.854  16.796  0.00  0.00    +0.000 A 
ATOM      4  C   UNL     1       4.849   4.168  16.490  0.00  0.00    +0.000 A 
ATOM      5  C   UNL     1       4.180   5.238  17.104  0.00  0.00    +0.000 A 
ATOM      6  C   UNL     1       4.492   6.650  16.775  0.00  0.00    +0.000 A 
ATOM      7  O   UNL     1       5.376   7.014  16.010  0.00  0.00    +0.000 OA
ATOM      8  C   UNL     1       3.661   7.670  17.421  0.00  0.00    +0.000 A 
ATOM      9  C   UNL     1       2.740   7.294  18.313  0.00  0.00    +0.000 A 
ATOM     10  O   UNL     1       2.494   5.994  18.698  0.00  0.00    +0.000 OA
ATOM     11  C   UNL     1       3.186   4.981  18.060  0.00  0.00    +0.000 A 
ENDROOT
BRANCH   9  12
ATOM     12  C   UNL     1       1.920   8.323  18.957  0.00  0.00    +0.000 A 
ATOM     13  C   UNL     1       1.588   9.498  18.268  0.00  0.00    +0.000 A 
ATOM     14  C   UNL     1       0.937  10.541  18.929  0.00  0.00    +0.000 A 
ATOM     15  C   UNL     1       0.611  10.416  20.280  0.00  0.00    +0.000 A 
ATOM     16  C   UNL     1       0.921   9.244  20.967  0.00  0.00    +0.000 A 
ATOM     17  C   UNL     1       1.572   8.200  20.308  0.00  0.00    +0.000 A 
ENDBRANCH   9  12
BRANCH   1  21
ATOM     18  C   UNL     1       1.111   2.643  21.705  0.00  0.00    +0.000 C 
ATOM     19  C   UNL     1       2.210   2.889  20.705  0.00  0.00    +0.000 C 
ATOM     20  C   UNL     1       3.609   2.547  21.132  0.00  0.00    +0.000 C 
ATOM     21  C   UNL     1       1.899   3.368  19.486  0.00  0.00    +0.000 C 
ENDBRANCH   1  21
BRANCH   2  22
ATOM     22  O   UNL     1       3.204   1.287  17.952  0.00  0.00    +0.000 OA
ATOM     23  H   UNL     1       2.545   1.238  18.668  0.00  0.00    +0.000 HD
ENDBRANCH   2  22
BRANCH   4  24
ATOM     24  O   UNL     1       5.841   4.386  15.578  0.00  0.00    +0.000 OA
ATOM     25  H   UNL     1       5.568   4.082  14.698  0.00  0.00    +0.000 HD
ENDBRANCH   4  24
TORSDOF 4
ENDMDL
MODEL 6
REMARK VINA RESULT:      -7.2      3.696      8.204
REMARK  Name = 
REMARK  6 active torsions:
REMARK  status: ('A' for Active; 'I' for Inactive)
REMARK    1  A    between atoms: C_1  and  C_2
REMARK    2  A    between atoms: C_2  and  C_3
REMARK    3  A    between atoms: C_4  and  C_5
REMARK    4  A    between atoms: C_6  and  O_7
REMARK    5  A    between atoms: C_9  and  O_10
REMARK    6  A    between atoms: C_15  and  C_16
REMARK                            x       y       z     vdW  Elec       q    Type
REMARK                         _______ _______ _______ _____ _____    ______ ____
ROOT
ATOM      1  C   UNL     1      -1.544  11.271  19.391  0.00  0.00    +0.000 A 
ATOM      2  C   UNL     1      -2.422  12.110  20.093  0.00  0.00    +0.000 A 
ATOM      3  C   UNL     1      -2.320  12.273  21.471  0.00  0.00    +0.000 A 
ATOM      4  C   UNL     1      -1.348  11.570  22.178  0.00  0.00    +0.000 A 
ATOM      5  C   UNL     1      -0.492  10.680  21.512  0.00  0.00    +0.000 A 
ATOM      6  C   UNL     1       0.528   9.882  22.235  0.00  0.00    +0.000 A 
ATOM      7  O   UNL     1       0.760   9.962  23.433  0.00  0.00    +0.000 OA
ATOM      8  C   UNL     1       1.297   8.925  21.434  0.00  0.00    +0.000 A 
ATOM      9  C   UNL     1       1.105   8.876  20.113  0.00  0.00    +0.000 A 
ATOM     10  O   UNL     1       0.226   9.671  19.409  0.00  0.00    +0.000 OA
ATOM     11  C   UNL     1      -0.590  10.532  20.120  0.00  0.00    +0.000 A 
ENDROOT
BRANCH   9  12
ATOM     12  C   UNL     1       1.885   7.921  19.321  0.00  0.00    +0.000 A 
ATOM     13  C   UNL     1       2.198   6.658  19.844  0.00  0.00    +0.000 A 
ATOM     14  C   UNL     1       3.064   5.808  19.154  0.00  0.00    +0.000 A 
ATOM     15  C   UNL     1       3.621   6.211  17.941  0.00  0.00    +0.000 A 
ATOM     16  C   UNL     1       3.299   7.457  17.405  0.00  0.00    +0.000 A 
ATOM     17  C   UNL     1       2.433   8.309  18.092  0.00  0.00    +0.000 A 
ENDBRANCH   9  12
BRANCH   1  21
ATOM     18  C   UNL     1      -2.348  10.518  15.683  0.00  0.00    +0.000 C 
ATOM     19  C   UNL     1      -2.438  10.474  17.186  0.00  0.00    +0.000 C 
ATOM     20  C   UNL     1      -3.477   9.567  17.781  0.00  0.00    +0.000 C 
ATOM     21  C   UNL     1      -1.584  11.212  17.920  0.00  0.00    +0.000 C 
ENDBRANCH   1  21
BRANCH   2  22
ATOM     22  O   UNL     1      -3.424  12.816  19.480  0.00  0.00    +0.000 OA
ATOM     23  H   UNL     1      -3.253  13.766  19.611  0.00  0.00    +0.000 HD
ENDBRANCH   2  22
BRANCH   4  24
ATOM     24  O   UNL     1      -1.257  11.758  23.527  0.00  0.00    +0.000 OA
ATOM     25  H   UNL     1      -0.696  12.524  23.728  0.00  0.00    +0.000 HD
ENDBRANCH   4  24
TORSDOF 4
ENDMDL
MODEL 7
REMARK VINA RESULT:      -7.2      1.841      3.988
REMARK  Name = 
REMARK  6 active torsions:
REMARK  status: ('A' for Active; 'I' for Inactive)
REMARK    1  A    between atoms: C_1  and  C_2
REMARK    2  A    between atoms: C_2  and  C_3
REMARK    3  A    between atoms: C_4  and  C_5
REMARK    4  A    between atoms: C_6  and  O_7
REMARK    5  A    between atoms: C_9  and  O_10
REMARK    6  A    between atoms: C_15  and  C_16
REMARK                            x       y       z     vdW  Elec       q    Type
REMARK                         _______ _______ _______ _____ _____    ______ ____
ROOT
ATOM      1  C   UNL     1       5.135   5.320  17.403  0.00  0.00    +0.000 A 
ATOM      2  C   UNL     1       5.637   4.099  16.929  0.00  0.00    +0.000 A 
ATOM      3  C   UNL     1       4.892   2.927  17.018  0.00  0.00    +0.000 A 
ATOM      4  C   UNL     1       3.633   2.954  17.614  0.00  0.00    +0.000 A 
ATOM      5  C   UNL     1       3.128   4.149  18.149  0.00  0.00    +0.000 A 
ATOM      6  C   UNL     1       1.811   4.210  18.828  0.00  0.00    +0.000 A 
ATOM      7  O   UNL     1       1.032   3.273  18.933  0.00  0.00    +0.000 OA
ATOM      8  C   UNL     1       1.440   5.499  19.418  0.00  0.00    +0.000 A 
ATOM      9  C   UNL     1       2.246   6.551  19.251  0.00  0.00    +0.000 A 
ATOM     10  O   UNL     1       3.431   6.537  18.547  0.00  0.00    +0.000 OA
ATOM     11  C   UNL     1       3.878   5.330  18.042  0.00  0.00    +0.000 A 
ENDROOT
BRANCH   9  12
ATOM     12  C   UNL     1       1.861   7.836  19.839  0.00  0.00    +0.000 A 
ATOM     13  C   UNL     1       1.600   7.936  21.213  0.00  0.00    +0.000 A 
ATOM     14  C   UNL     1       1.089   9.120  21.748  0.00  0.00    +0.000 A 
ATOM     15  C   UNL     1       0.838  10.211  20.916  0.00  0.00    +0.000 A 
ATOM     16  C   UNL     1       1.113  10.127  19.552  0.00  0.00    +0.000 A 
ATOM     17  C   UNL     1       1.624   8.943  19.015  0.00  0.00    +0.000 A 
ENDBRANCH   9  12
BRANCH   1  21
ATOM     18  C   UNL     1       7.661   8.248  17.477  0.00  0.00    +0.000 C 
ATOM     19  C   UNL     1       7.017   6.928  17.810  0.00  0.00    +0.000 C 
ATOM     20  C   UNL     1       7.682   6.092  18.867  0.00  0.00    +0.000 C 
ATOM     21  C   UNL     1       5.881   6.570  17.182  0.00  0.00    +0.000 C 
ENDBRANCH   1  21
BRANCH   2  22
ATOM     22  O   UNL     1       6.875   3.978  16.355  0.00  0.00    +0.000 OA
ATOM     23  H   UNL     1       7.486   4.580  16.816  0.00  0.00    +0.000 HD
ENDBRANCH   2  22
BRANCH   4  24
ATOM     24  O   UNL     1       2.915   1.795  17.676  0.00  0.00    +0.000 OA
ATOM     25  H   UNL     1       2.041   1.956  18.068  0.00  0.00    +0.000 HD
ENDBRANCH   4  24
TORSDOF 4
ENDMDL
MODEL 8
REMARK VINA RESULT:      -7.2      2.152      4.330
REMARK  Name = 
REMARK  6 active torsions:
REMARK  status: ('A' for Active; 'I' for Inactive)
REMARK    1  A    between atoms: C_1  and  C_2
REMARK    2  A    between atoms: C_2  and  C_3
REMARK    3  A    between atoms: C_4  and  C_5
REMARK    4  A    between atoms: C_6  and  O_7
REMARK    5  A    between atoms: C_9  and  O_10
REMARK    6  A    between atoms: C_15  and  C_16
REMARK                            x       y       z     vdW  Elec       q    Type
REMARK                         _______ _______ _______ _____ _____    ______ ____
ROOT
ATOM      1  C   UNL     1       5.859   5.839  17.078  0.00  0.00    +0.000 A 
ATOM      2  C   UNL     1       6.540   4.662  16.732  0.00  0.00    +0.000 A 
ATOM      3  C   UNL     1       5.884   3.438  16.673  0.00  0.00    +0.000 A 
ATOM      4  C   UNL     1       4.530   3.365  16.990  0.00  0.00    +0.000 A 
ATOM      5  C   UNL     1       3.834   4.515  17.394  0.00  0.00    +0.000 A 
ATOM      6  C   UNL     1       2.403   4.471  17.780  0.00  0.00    +0.000 A 
ATOM      7  O   UNL     1       1.692   3.476  17.727  0.00  0.00    +0.000 OA
ATOM      8  C   UNL     1       1.819   5.724  18.267  0.00  0.00    +0.000 A 
ATOM      9  C   UNL     1       2.561   6.835  18.263  0.00  0.00    +0.000 A 
ATOM     10  O   UNL     1       3.866   6.916  17.826  0.00  0.00    +0.000 OA
ATOM     11  C   UNL     1       4.499   5.750  17.437  0.00  0.00    +0.000 A 
ENDROOT
BRANCH   9  12
ATOM     12  C   UNL     1       1.965   8.084  18.746  0.00  0.00    +0.000 A 
ATOM     13  C   UNL     1       1.934   9.218  17.922  0.00  0.00    +0.000 A 
ATOM     14  C   UNL     1       1.503  10.445  18.432  0.00  0.00    +0.000 A 
ATOM     15  C   UNL     1       1.099  10.545  19.763  0.00  0.00    +0.000 A 
ATOM     16  C   UNL     1       1.108   9.418  20.582  0.00  0.00    +0.000 A 
ATOM     17  C   UNL     1       1.538   8.190  20.076  0.00  0.00    +0.000 A 
ENDBRANCH   9  12
BRANCH   1  21
ATOM     18  C   UNL     1       8.122   8.928  17.624  0.00  0.00    +0.000 C 
ATOM     19  C   UNL     1       7.530   7.557  17.820  0.00  0.00    +0.000 C 
ATOM     20  C   UNL     1       8.075   6.735  18.954  0.00  0.00    +0.000 C 
ATOM     21  C   UNL     1       6.539   7.143  17.008  0.00  0.00    +0.000 C 
ENDBRANCH   1  21
BRANCH   2  22
ATOM     22  O   UNL     1       7.877   4.639  16.433  0.00  0.00    +0.000 OA
ATOM     23  H   UNL     1       8.128   3.721  16.226  0.00  0.00    +0.000 HD
ENDBRANCH   2  22
BRANCH   4  24
ATOM     24  O   UNL     1       3.904   2.154  16.910  0.00  0.00    +0.000 OA
ATOM     25  H   UNL     1       3.666   1.953  15.990  0.00  0.00    +0.000 HD
ENDBRANCH   4  24
TORSDOF 4
ENDMDL
MODEL 9
REMARK VINA RESULT:      -7.1      4.208      8.749
REMARK  Name = 
REMARK  6 active torsions:
REMARK  status: ('A' for Active; 'I' for Inactive)
REMARK    1  A    between atoms: C_1  and  C_2
REMARK    2  A    between atoms: C_2  and  C_3
REMARK    3  A    between atoms: C_4  and  C_5
REMARK    4  A    between atoms: C_6  and  O_7
REMARK    5  A    between atoms: C_9  and  O_10
REMARK    6  A    between atoms: C_15  and  C_16
REMARK                            x       y       z     vdW  Elec       q    Type
REMARK                         _______ _______ _______ _____ _____    ______ ____
ROOT
ATOM      1  C   UNL     1      -2.289  11.723  19.248  0.00  0.00    +0.000 A 
ATOM      2  C   UNL     1      -3.300  12.480  19.861  0.00  0.00    +0.000 A 
ATOM      3  C   UNL     1      -3.314  12.689  21.235  0.00  0.00    +0.000 A 
ATOM      4  C   UNL     1      -2.324  12.117  22.031  0.00  0.00    +0.000 A 
ATOM      5  C   UNL     1      -1.332  11.309  21.454  0.00  0.00    +0.000 A 
ATOM      6  C   UNL     1      -0.286  10.647  22.271  0.00  0.00    +0.000 A 
ATOM      7  O   UNL     1      -0.149  10.784  23.479  0.00  0.00    +0.000 OA
ATOM      8  C   UNL     1       0.636   9.760  21.558  0.00  0.00    +0.000 A 
ATOM      9  C   UNL     1       0.545   9.655  20.228  0.00  0.00    +0.000 A 
ATOM     10  O   UNL     1      -0.362  10.330  19.441  0.00  0.00    +0.000 OA
ATOM     11  C   UNL     1      -1.315  11.114  20.065  0.00  0.00    +0.000 A 
ENDROOT
BRANCH   9  12
ATOM     12  C   UNL     1       1.478   8.771  19.525  0.00  0.00    +0.000 A 
ATOM     13  C   UNL     1       1.859   9.050  18.205  0.00  0.00    +0.000 A 
ATOM     14  C   UNL     1       2.627   8.132  17.486  0.00  0.00    +0.000 A 
ATOM     15  C   UNL     1       3.019   6.932  18.080  0.00  0.00    +0.000 A 
ATOM     16  C   UNL     1       2.661   6.656  19.398  0.00  0.00    +0.000 A 
ATOM     17  C   UNL     1       1.893   7.573  20.120  0.00  0.00    +0.000 A 
ENDBRANCH   9  12
BRANCH   1  21
ATOM     18  C   UNL     1      -2.640  10.706  15.533  0.00  0.00    +0.000 C 
ATOM     19  C   UNL     1      -2.813  10.677  17.029  0.00  0.00    +0.000 C 
ATOM     20  C   UNL     1      -3.631   9.553  17.599  0.00  0.00    +0.000 C 
ATOM     21  C   UNL     1      -2.218  11.622  17.781  0.00  0.00    +0.000 C 
ENDBRANCH   1  21
BRANCH   2  22
ATOM     22  O   UNL     1      -4.326  13.055  19.158  0.00  0.00    +0.000 OA
ATOM     23  H   UNL     1      -4.212  14.022  19.186  0.00  0.00    +0.000 HD
ENDBRANCH   2  22
BRANCH   4  24
ATOM     24  O   UNL     1      -2.350  12.350  23.376  0.00  0.00    +0.000 OA
ATOM     25  H   UNL     1      -2.793  11.621  23.839  0.00  0.00    +0.000 HD
ENDBRANCH   4  24
TORSDOF 4
ENDMDL
