MODEL 1
REMARK VINA RESULT:      -8.9      0.000      0.000
REMARK  Name = 
REMARK  7 active torsions:
REMARK  status: ('A' for Active; 'I' for Inactive)
REMARK    1  A    between atoms: C_1  and  C_2
REMARK    2  A    between atoms: C_5  and  C_6
REMARK    3  A    between atoms: C_9  and  N_10
REMARK    4  A    between atoms: C_23  and  S_24
REMARK    5  A    between atoms: S_24  and  N_27
REMARK    6  A    between atoms: N_27  and  C_28
REMARK    7  A    between atoms: C_28  and  C_29
REMARK                            x       y       z     vdW  Elec       q    Type
REMARK                         _______ _______ _______ _____ _____    ______ ____
ROOT
ATOM      1  C   UNL     1       3.230   2.606  17.676  0.00  0.00    +0.000 C 
ATOM      2  C   UNL     1       2.985   4.045  18.002  0.00  0.00    +0.000 A 
ATOM      3  C   UNL     1       1.737   4.575  17.630  0.00  0.00    +0.000 A 
ATOM      4  C   UNL     1       1.413   5.915  17.860  0.00  0.00    +0.000 A 
ATOM      5  C   UNL     1       2.324   6.799  18.455  0.00  0.00    +0.000 A 
ATOM      6  C   UNL     1       3.581   6.266  18.791  0.00  0.00    +0.000 A 
ATOM      7  C   UNL     1       3.905   4.902  18.627  0.00  0.00    +0.000 A 
ENDROOT
BRANCH   5   8
ATOM      8  C   UNL     1       1.976   8.230  18.657  0.00  0.00    +0.000 A 
ATOM      9  N   UNL     1       2.238   9.004  17.579  0.00  0.00    +0.000 NA
ATOM     10  N   UNL     1       2.018  10.363  17.607  0.00  0.00    +0.000 NA
ATOM     11  C   UNL     1       1.542  10.981  18.710  0.00  0.00    +0.000 A 
ATOM     12  C   UNL     1       1.188  10.198  19.843  0.00  0.00    +0.000 A 
ATOM     13  C   UNL     1       0.563  10.744  20.998  0.00  0.00    +0.000 A 
ATOM     14  C   UNL     1       0.285   9.997  22.140  0.00  0.00    +0.000 A 
ATOM     15  C   UNL     1       0.537   8.642  22.134  0.00  0.00    +0.000 A 
ATOM     16  C   UNL     1       1.045   8.048  20.981  0.00  0.00    +0.000 A 
ATOM     17  C   UNL     1       1.418   8.796  19.827  0.00  0.00    +0.000 A 
BRANCH  11  18
ATOM     18  N   UNL     1       1.398  12.367  18.674  0.00  0.00    +0.000 N 
ATOM     19  C   UNL     1       2.445  13.202  19.265  0.00  0.00    +0.000 C 
ATOM     20  C   UNL     1       1.926  14.027  20.442  0.00  0.00    +0.000 C 
ATOM     21  C   UNL     1       0.650  14.778  20.081  0.00  0.00    +0.000 C 
ATOM     22  C   UNL     1      -0.406  13.797  19.594  0.00  0.00    +0.000 C 
ATOM     23  C   UNL     1       0.098  12.980  18.412  0.00  0.00    +0.000 C 
ENDBRANCH  11  18
ENDBRANCH   5   8
BRANCH   7  24
ATOM     24  S   UNL     1       5.563   4.429  19.132  0.00  0.00    +0.000 S 
ATOM     25  O   UNL     1       6.131   5.559  19.836  0.00  0.00    +0.000 OA
ATOM     26  O   UNL     1       5.458   3.136  19.761  0.00  0.00    +0.000 OA
BRANCH  24  27
ATOM     27  N   UNL     1       6.445   4.163  17.718  0.00  0.00    +0.000 NA
ATOM     28  H   UNL     1       6.046   3.466  17.084  0.00  0.00    +0.000 HD
BRANCH  27  29
ATOM     29  C   UNL     1       6.937   5.370  17.013  0.00  0.00    +0.000 C 
BRANCH  29  30
ATOM     30  C   UNL     1       6.457   5.392  15.562  0.00  0.00    +0.000 C 
ATOM     31  C   UNL     1       5.500   4.248  15.268  0.00  0.00    +0.000 C 
ATOM     32  C   UNL     1       5.613   4.133  13.771  0.00  0.00    +0.000 C 
ATOM     33  C   UNL     1       7.076   4.447  13.523  0.00  0.00    +0.000 C 
ATOM     34  O   UNL     1       7.558   5.201  14.649  0.00  0.00    +0.000 OA
ENDBRANCH  29  30
ENDBRANCH  27  29
ENDBRANCH  24  27
ENDBRANCH   7  24
TORSDOF 6
ENDMDL
MODEL 2
REMARK VINA RESULT:      -8.5      0.939      1.041
REMARK  Name = 
REMARK  7 active torsions:
REMARK  status: ('A' for Active; 'I' for Inactive)
REMARK    1  A    between atoms: C_1  and  C_2
REMARK    2  A    between atoms: C_5  and  C_6
REMARK    3  A    between atoms: C_9  and  N_10
REMARK    4  A    between atoms: C_23  and  S_24
REMARK    5  A    between atoms: S_24  and  N_27
REMARK    6  A    between atoms: N_27  and  C_28
REMARK    7  A    between atoms: C_28  and  C_29
REMARK                            x       y       z     vdW  Elec       q    Type
REMARK                         _______ _______ _______ _____ _____    ______ ____
ROOT
ATOM      1  C   UNL     1       4.049   2.865  17.559  0.00  0.00    +0.000 C 
ATOM      2  C   UNL     1       3.643   4.273  17.858  0.00  0.00    +0.000 A 
ATOM      3  C   UNL     1       2.264   4.526  17.961  0.00  0.00    +0.000 A 
ATOM      4  C   UNL     1       1.772   5.811  18.209  0.00  0.00    +0.000 A 
ATOM      5  C   UNL     1       2.630   6.911  18.349  0.00  0.00    +0.000 A 
ATOM      6  C   UNL     1       4.005   6.651  18.210  0.00  0.00    +0.000 A 
ATOM      7  C   UNL     1       4.526   5.352  18.024  0.00  0.00    +0.000 A 
ENDROOT
BRANCH   5   8
ATOM      8  C   UNL     1       2.088   8.277  18.574  0.00  0.00    +0.000 A 
ATOM      9  N   UNL     1       2.205   9.085  17.496  0.00  0.00    +0.000 NA
ATOM     10  N   UNL     1       1.793  10.399  17.543  0.00  0.00    +0.000 NA
ATOM     11  C   UNL     1       1.266  10.937  18.664  0.00  0.00    +0.000 A 
ATOM     12  C   UNL     1       1.062  10.106  19.800  0.00  0.00    +0.000 A 
ATOM     13  C   UNL     1       0.400  10.550  20.978  0.00  0.00    +0.000 A 
ATOM     14  C   UNL     1       0.266   9.765  22.120  0.00  0.00    +0.000 A 
ATOM     15  C   UNL     1       0.708   8.461  22.094  0.00  0.00    +0.000 A 
ATOM     16  C   UNL     1       1.262   7.952  20.922  0.00  0.00    +0.000 A 
ATOM     17  C   UNL     1       1.489   8.751  19.764  0.00  0.00    +0.000 A 
BRANCH  11  18
ATOM     18  N   UNL     1       0.925  12.288  18.646  0.00  0.00    +0.000 N 
ATOM     19  C   UNL     1       1.865  13.262  19.204  0.00  0.00    +0.000 C 
ATOM     20  C   UNL     1       1.279  14.001  20.406  0.00  0.00    +0.000 C 
ATOM     21  C   UNL     1      -0.104  14.564  20.100  0.00  0.00    +0.000 C 
ATOM     22  C   UNL     1      -1.027  13.444  19.646  0.00  0.00    +0.000 C 
ATOM     23  C   UNL     1      -0.459  12.710  18.438  0.00  0.00    +0.000 C 
ENDBRANCH  11  18
ENDBRANCH   5   8
BRANCH   7  24
ATOM     24  S   UNL     1       6.313   5.242  17.883  0.00  0.00    +0.000 S 
ATOM     25  O   UNL     1       6.802   6.580  17.625  0.00  0.00    +0.000 OA
ATOM     26  O   UNL     1       6.778   4.486  19.020  0.00  0.00    +0.000 OA
BRANCH  24  27
ATOM     27  N   UNL     1       6.637   4.270  16.542  0.00  0.00    +0.000 NA
ATOM     28  H   UNL     1       5.848   3.705  16.218  0.00  0.00    +0.000 HD
BRANCH  27  29
ATOM     29  C   UNL     1       7.384   4.908  15.433  0.00  0.00    +0.000 C 
BRANCH  29  30
ATOM     30  C   UNL     1       6.590   4.848  14.130  0.00  0.00    +0.000 C 
ATOM     31  C   UNL     1       5.640   3.661  14.103  0.00  0.00    +0.000 C 
ATOM     32  C   UNL     1       5.418   3.482  12.624  0.00  0.00    +0.000 C 
ATOM     33  C   UNL     1       6.773   3.832  12.040  0.00  0.00    +0.000 C 
ATOM     34  O   UNL     1       7.464   4.652  12.999  0.00  0.00    +0.000 OA
ENDBRANCH  29  30
ENDBRANCH  27  29
ENDBRANCH  24  27
ENDBRANCH   7  24
TORSDOF 6
ENDMDL
MODEL 3
REMARK VINA RESULT:      -8.3      1.681      2.368
REMARK  Name = 
REMARK  7 active torsions:
REMARK  status: ('A' for Active; 'I' for Inactive)
REMARK    1  A    between atoms: C_1  and  C_2
REMARK    2  A    between atoms: C_5  and  C_6
REMARK    3  A    between atoms: C_9  and  N_10
REMARK    4  A    between atoms: C_23  and  S_24
REMARK    5  A    between atoms: S_24  and  N_27
REMARK    6  A    between atoms: N_27  and  C_28
REMARK    7  A    between atoms: C_28  and  C_29
REMARK                            x       y       z     vdW  Elec       q    Type
REMARK                         _______ _______ _______ _____ _____    ______ ____
ROOT
ATOM      1  C   UNL     1       3.242   2.853  20.014  0.00  0.00    +0.000 C 
ATOM      2  C   UNL     1       2.913   4.303  19.845  0.00  0.00    +0.000 A 
ATOM      3  C   UNL     1       2.200   4.916  20.890  0.00  0.00    +0.000 A 
ATOM      4  C   UNL     1       1.815   6.258  20.825  0.00  0.00    +0.000 A 
ATOM      5  C   UNL     1       2.107   7.052  19.707  0.00  0.00    +0.000 A 
ATOM      6  C   UNL     1       2.791   6.419  18.655  0.00  0.00    +0.000 A 
ATOM      7  C   UNL     1       3.244   5.084  18.727  0.00  0.00    +0.000 A 
ENDROOT
BRANCH   5   8
ATOM      8  C   UNL     1       1.657   8.467  19.639  0.00  0.00    +0.000 A 
ATOM      9  N   UNL     1       1.970   9.075  18.472  0.00  0.00    +0.000 NA
ATOM     10  N   UNL     1       1.666  10.401  18.256  0.00  0.00    +0.000 NA
ATOM     11  C   UNL     1       1.054  11.151  19.197  0.00  0.00    +0.000 A 
ATOM     12  C   UNL     1       0.645  10.535  20.413  0.00  0.00    +0.000 A 
ATOM     13  C   UNL     1      -0.116  11.211  21.406  0.00  0.00    +0.000 A 
ATOM     14  C   UNL     1      -0.453  10.638  22.630  0.00  0.00    +0.000 A 
ATOM     15  C   UNL     1      -0.120   9.323  22.870  0.00  0.00    +0.000 A 
ATOM     16  C   UNL     1       0.528   8.592  21.877  0.00  0.00    +0.000 A 
ATOM     17  C   UNL     1       0.960   9.170  20.649  0.00  0.00    +0.000 A 
BRANCH  11  18
ATOM     18  N   UNL     1       0.831  12.498  18.920  0.00  0.00    +0.000 N 
ATOM     19  C   UNL     1       1.816  13.484  19.367  0.00  0.00    +0.000 C 
ATOM     20  C   UNL     1       1.226  14.468  20.378  0.00  0.00    +0.000 C 
ATOM     21  C   UNL     1      -0.084  15.067  19.879  0.00  0.00    +0.000 C 
ATOM     22  C   UNL     1      -1.071  13.954  19.561  0.00  0.00    +0.000 C 
ATOM     23  C   UNL     1      -0.498  12.976  18.543  0.00  0.00    +0.000 C 
ENDBRANCH  11  18
ENDBRANCH   5   8
BRANCH   7  24
ATOM     24  S   UNL     1       4.108   4.475  17.274  0.00  0.00    +0.000 S 
ATOM     25  O   UNL     1       3.360   3.339  16.780  0.00  0.00    +0.000 OA
ATOM     26  O   UNL     1       4.372   5.616  16.433  0.00  0.00    +0.000 OA
BRANCH  24  27
ATOM     27  N   UNL     1       5.625   3.950  17.795  0.00  0.00    +0.000 NA
ATOM     28  H   UNL     1       5.632   3.036  18.255  0.00  0.00    +0.000 HD
BRANCH  27  29
ATOM     29  C   UNL     1       6.744   4.123  16.840  0.00  0.00    +0.000 C 
BRANCH  29  30
ATOM     30  C   UNL     1       7.687   5.235  17.296  0.00  0.00    +0.000 C 
ATOM     31  C   UNL     1       7.448   5.617  18.748  0.00  0.00    +0.000 C 
ATOM     32  C   UNL     1       8.028   7.006  18.797  0.00  0.00    +0.000 C 
ATOM     33  C   UNL     1       7.675   7.563  17.430  0.00  0.00    +0.000 C 
ATOM     34  O   UNL     1       7.457   6.448  16.548  0.00  0.00    +0.000 OA
ENDBRANCH  29  30
ENDBRANCH  27  29
ENDBRANCH  24  27
ENDBRANCH   7  24
TORSDOF 6
ENDMDL
MODEL 4
REMARK VINA RESULT:      -8.2      1.352      1.546
REMARK  Name = 
REMARK  7 active torsions:
REMARK  status: ('A' for Active; 'I' for Inactive)
REMARK    1  A    between atoms: C_1  and  C_2
REMARK    2  A    between atoms: C_5  and  C_6
REMARK    3  A    between atoms: C_9  and  N_10
REMARK    4  A    between atoms: C_23  and  S_24
REMARK    5  A    between atoms: S_24  and  N_27
REMARK    6  A    between atoms: N_27  and  C_28
REMARK    7  A    between atoms: C_28  and  C_29
REMARK                            x       y       z     vdW  Elec       q    Type
REMARK                         _______ _______ _______ _____ _____    ______ ____
ROOT
ATOM      1  C   UNL     1       3.237   2.591  20.408  0.00  0.00    +0.000 C 
ATOM      2  C   UNL     1       2.950   4.039  20.165  0.00  0.00    +0.000 A 
ATOM      3  C   UNL     1       1.940   4.624  20.948  0.00  0.00    +0.000 A 
ATOM      4  C   UNL     1       1.569   5.962  20.785  0.00  0.00    +0.000 A 
ATOM      5  C   UNL     1       2.176   6.779  19.820  0.00  0.00    +0.000 A 
ATOM      6  C   UNL     1       3.161   6.173  19.020  0.00  0.00    +0.000 A 
ATOM      7  C   UNL     1       3.594   4.843  19.211  0.00  0.00    +0.000 A 
ENDROOT
BRANCH   5   8
ATOM      8  C   UNL     1       1.743   8.189  19.634  0.00  0.00    +0.000 A 
ATOM      9  N   UNL     1       2.081   8.700  18.428  0.00  0.00    +0.000 NA
ATOM     10  N   UNL     1       1.795  10.008  18.104  0.00  0.00    +0.000 NA
ATOM     11  C   UNL     1       1.178  10.836  18.974  0.00  0.00    +0.000 A 
ATOM     12  C   UNL     1       0.745  10.322  20.228  0.00  0.00    +0.000 A 
ATOM     13  C   UNL     1      -0.023  11.081  21.153  0.00  0.00    +0.000 A 
ATOM     14  C   UNL     1      -0.384  10.610  22.413  0.00  0.00    +0.000 A 
ATOM     15  C   UNL     1      -0.070   9.315  22.761  0.00  0.00    +0.000 A 
ATOM     16  C   UNL     1       0.584   8.500  21.838  0.00  0.00    +0.000 A 
ATOM     17  C   UNL     1       1.040   8.976  20.575  0.00  0.00    +0.000 A 
BRANCH  11  18
ATOM     18  N   UNL     1       0.975  12.159  18.589  0.00  0.00    +0.000 N 
ATOM     19  C   UNL     1       2.049  13.131  18.802  0.00  0.00    +0.000 C 
ATOM     20  C   UNL     1       1.638  14.238  19.771  0.00  0.00    +0.000 C 
ATOM     21  C   UNL     1       0.299  14.855  19.384  0.00  0.00    +0.000 C 
ATOM     22  C   UNL     1      -0.765  13.771  19.312  0.00  0.00    +0.000 C 
ATOM     23  C   UNL     1      -0.372  12.669  18.337  0.00  0.00    +0.000 C 
ENDBRANCH  11  18
ENDBRANCH   5   8
BRANCH   7  24
ATOM     24  S   UNL     1       4.873   4.270  18.086  0.00  0.00    +0.000 S 
ATOM     25  O   UNL     1       6.113   4.242  18.832  0.00  0.00    +0.000 OA
ATOM     26  O   UNL     1       4.364   3.085  17.441  0.00  0.00    +0.000 OA
BRANCH  24  27
ATOM     27  N   UNL     1       4.994   5.424  16.861  0.00  0.00    +0.000 NA
ATOM     28  H   UNL     1       4.537   6.317  17.061  0.00  0.00    +0.000 HD
BRANCH  27  29
ATOM     29  C   UNL     1       6.329   5.586  16.240  0.00  0.00    +0.000 C 
BRANCH  29  30
ATOM     30  C   UNL     1       6.555   4.544  15.146  0.00  0.00    +0.000 C 
ATOM     31  C   UNL     1       7.407   5.093  14.012  0.00  0.00    +0.000 C 
ATOM     32  C   UNL     1       7.035   4.174  12.879  0.00  0.00    +0.000 C 
ATOM     33  C   UNL     1       5.563   3.911  13.133  0.00  0.00    +0.000 C 
ATOM     34  O   UNL     1       5.308   4.167  14.525  0.00  0.00    +0.000 OA
ENDBRANCH  29  30
ENDBRANCH  27  29
ENDBRANCH  24  27
ENDBRANCH   7  24
TORSDOF 6
ENDMDL
MODEL 5
REMARK VINA RESULT:      -8.2      3.993      8.750
REMARK  Name = 
REMARK  7 active torsions:
REMARK  status: ('A' for Active; 'I' for Inactive)
REMARK    1  A    between atoms: C_1  and  C_2
REMARK    2  A    between atoms: C_5  and  C_6
REMARK    3  A    between atoms: C_9  and  N_10
REMARK    4  A    between atoms: C_23  and  S_24
REMARK    5  A    between atoms: S_24  and  N_27
REMARK    6  A    between atoms: N_27  and  C_28
REMARK    7  A    between atoms: C_28  and  C_29
REMARK                            x       y       z     vdW  Elec       q    Type
REMARK                         _______ _______ _______ _____ _____    ______ ____
ROOT
ATOM      1  C   UNL     1      -0.872  11.045  21.948  0.00  0.00    +0.000 C 
ATOM      2  C   UNL     1      -0.005  10.067  21.219  0.00  0.00    +0.000 A 
ATOM      3  C   UNL     1       0.074   8.770  21.754  0.00  0.00    +0.000 A 
ATOM      4  C   UNL     1       0.878   7.786  21.171  0.00  0.00    +0.000 A 
ATOM      5  C   UNL     1       1.656   8.051  20.036  0.00  0.00    +0.000 A 
ATOM      6  C   UNL     1       1.595   9.362  19.531  0.00  0.00    +0.000 A 
ATOM      7  C   UNL     1       0.743  10.352  20.065  0.00  0.00    +0.000 A 
ENDROOT
BRANCH   5   8
ATOM      8  C   UNL     1       2.535   7.003  19.452  0.00  0.00    +0.000 A 
ATOM      9  N   UNL     1       3.327   7.460  18.456  0.00  0.00    +0.000 NA
ATOM     10  N   UNL     1       4.172   6.613  17.774  0.00  0.00    +0.000 NA
ATOM     11  C   UNL     1       4.240   5.295  18.061  0.00  0.00    +0.000 A 
ATOM     12  C   UNL     1       3.475   4.785  19.146  0.00  0.00    +0.000 A 
ATOM     13  C   UNL     1       3.578   3.442  19.603  0.00  0.00    +0.000 A 
ATOM     14  C   UNL     1       2.777   2.916  20.613  0.00  0.00    +0.000 A 
ATOM     15  C   UNL     1       1.901   3.747  21.277  0.00  0.00    +0.000 A 
ATOM     16  C   UNL     1       1.851   5.097  20.935  0.00  0.00    +0.000 A 
ATOM     17  C   UNL     1       2.595   5.648  19.852  0.00  0.00    +0.000 A 
BRANCH  11  18
ATOM     18  N   UNL     1       5.081   4.498  17.288  0.00  0.00    +0.000 N 
ATOM     19  C   UNL     1       6.525   4.560  17.518  0.00  0.00    +0.000 C 
ATOM     20  C   UNL     1       7.281   5.072  16.293  0.00  0.00    +0.000 C 
ATOM     21  C   UNL     1       6.877   4.320  15.030  0.00  0.00    +0.000 C 
ATOM     22  C   UNL     1       5.374   4.425  14.827  0.00  0.00    +0.000 C 
ATOM     23  C   UNL     1       4.611   3.904  16.037  0.00  0.00    +0.000 C 
ENDBRANCH  11  18
ENDBRANCH   5   8
BRANCH   7  24
ATOM     24  S   UNL     1       0.812  11.957  19.261  0.00  0.00    +0.000 S 
ATOM     25  O   UNL     1       0.436  12.944  20.250  0.00  0.00    +0.000 OA
ATOM     26  O   UNL     1       2.081  12.030  18.580  0.00  0.00    +0.000 OA
BRANCH  24  27
ATOM     27  N   UNL     1      -0.348  11.937  18.035  0.00  0.00    +0.000 NA
ATOM     28  H   UNL     1      -0.296  11.134  17.404  0.00  0.00    +0.000 HD
BRANCH  27  29
ATOM     29  C   UNL     1      -1.735  12.265  18.438  0.00  0.00    +0.000 C 
BRANCH  29  30
ATOM     30  C   UNL     1      -2.733  11.291  17.814  0.00  0.00    +0.000 C 
ATOM     31  C   UNL     1      -2.563  11.200  16.306  0.00  0.00    +0.000 C 
ATOM     32  C   UNL     1      -3.912  10.685  15.878  0.00  0.00    +0.000 C 
ATOM     33  C   UNL     1      -4.854  11.371  16.850  0.00  0.00    +0.000 C 
ATOM     34  O   UNL     1      -4.089  11.742  18.011  0.00  0.00    +0.000 OA
ENDBRANCH  29  30
ENDBRANCH  27  29
ENDBRANCH  24  27
ENDBRANCH   7  24
TORSDOF 6
ENDMDL
MODEL 6
REMARK VINA RESULT:      -8.1      1.498      1.848
REMARK  Name = 
REMARK  7 active torsions:
REMARK  status: ('A' for Active; 'I' for Inactive)
REMARK    1  A    between atoms: C_1  and  C_2
REMARK    2  A    between atoms: C_5  and  C_6
REMARK    3  A    between atoms: C_9  and  N_10
REMARK    4  A    between atoms: C_23  and  S_24
REMARK    5  A    between atoms: S_24  and  N_27
REMARK    6  A    between atoms: N_27  and  C_28
REMARK    7  A    between atoms: C_28  and  C_29
REMARK                            x       y       z     vdW  Elec       q    Type
REMARK                         _______ _______ _______ _____ _____    ______ ____
ROOT
ATOM      1  C   UNL     1       3.977   2.799  17.542  0.00  0.00    +0.000 C 
ATOM      2  C   UNL     1       3.605   4.229  17.778  0.00  0.00    +0.000 A 
ATOM      3  C   UNL     1       2.397   4.466  18.456  0.00  0.00    +0.000 A 
ATOM      4  C   UNL     1       1.938   5.762  18.704  0.00  0.00    +0.000 A 
ATOM      5  C   UNL     1       2.653   6.889  18.273  0.00  0.00    +0.000 A 
ATOM      6  C   UNL     1       3.842   6.639  17.566  0.00  0.00    +0.000 A 
ATOM      7  C   UNL     1       4.355   5.340  17.360  0.00  0.00    +0.000 A 
ENDROOT
BRANCH   5   8
ATOM      8  C   UNL     1       2.131   8.260  18.511  0.00  0.00    +0.000 A 
ATOM      9  N   UNL     1       2.255   9.076  17.440  0.00  0.00    +0.000 NA
ATOM     10  N   UNL     1       1.862  10.395  17.500  0.00  0.00    +0.000 NA
ATOM     11  C   UNL     1       1.348  10.931  18.628  0.00  0.00    +0.000 A 
ATOM     12  C   UNL     1       1.137  10.093  19.758  0.00  0.00    +0.000 A 
ATOM     13  C   UNL     1       0.486  10.537  20.942  0.00  0.00    +0.000 A 
ATOM     14  C   UNL     1       0.345   9.744  22.078  0.00  0.00    +0.000 A 
ATOM     15  C   UNL     1       0.768   8.434  22.039  0.00  0.00    +0.000 A 
ATOM     16  C   UNL     1       1.310   7.927  20.860  0.00  0.00    +0.000 A 
ATOM     17  C   UNL     1       1.544   8.733  19.708  0.00  0.00    +0.000 A 
BRANCH  11  18
ATOM     18  N   UNL     1       1.026  12.287  18.623  0.00  0.00    +0.000 N 
ATOM     19  C   UNL     1       1.971  13.241  19.205  0.00  0.00    +0.000 C 
ATOM     20  C   UNL     1       1.380  13.973  20.410  0.00  0.00    +0.000 C 
ATOM     21  C   UNL     1       0.009  14.558  20.093  0.00  0.00    +0.000 C 
ATOM     22  C   UNL     1      -0.923  13.457  19.612  0.00  0.00    +0.000 C 
ATOM     23  C   UNL     1      -0.349  12.731  18.403  0.00  0.00    +0.000 C 
ENDBRANCH  11  18
ENDBRANCH   5   8
BRANCH   7  24
ATOM     24  S   UNL     1       5.896   5.247  16.442  0.00  0.00    +0.000 S 
ATOM     25  O   UNL     1       6.217   6.591  16.013  0.00  0.00    +0.000 OA
ATOM     26  O   UNL     1       6.818   4.482  17.245  0.00  0.00    +0.000 OA
BRANCH  24  27
ATOM     27  N   UNL     1       5.595   4.293  15.083  0.00  0.00    +0.000 NA
ATOM     28  H   UNL     1       4.682   4.438  14.647  0.00  0.00    +0.000 HD
BRANCH  27  29
ATOM     29  C   UNL     1       6.696   4.188  14.097  0.00  0.00    +0.000 C 
BRANCH  29  30
ATOM     30  C   UNL     1       6.152   3.916  12.695  0.00  0.00    +0.000 C 
ATOM     31  C   UNL     1       4.647   3.701  12.706  0.00  0.00    +0.000 C 
ATOM     32  C   UNL     1       4.439   2.934  11.427  0.00  0.00    +0.000 C 
ATOM     33  C   UNL     1       5.683   2.068  11.353  0.00  0.00    +0.000 C 
ATOM     34  O   UNL     1       6.699   2.694  12.156  0.00  0.00    +0.000 OA
ENDBRANCH  29  30
ENDBRANCH  27  29
ENDBRANCH  24  27
ENDBRANCH   7  24
TORSDOF 6
ENDMDL
MODEL 7
REMARK VINA RESULT:      -8.0      3.750      8.634
REMARK  Name = 
REMARK  7 active torsions:
REMARK  status: ('A' for Active; 'I' for Inactive)
REMARK    1  A    between atoms: C_1  and  C_2
REMARK    2  A    between atoms: C_5  and  C_6
REMARK    3  A    between atoms: C_9  and  N_10
REMARK    4  A    between atoms: C_23  and  S_24
REMARK    5  A    between atoms: S_24  and  N_27
REMARK    6  A    between atoms: N_27  and  C_28
REMARK    7  A    between atoms: C_28  and  C_29
REMARK                            x       y       z     vdW  Elec       q    Type
REMARK                         _______ _______ _______ _____ _____    ______ ____
ROOT
ATOM      1  C   UNL     1      -0.748  11.044  22.195  0.00  0.00    +0.000 C 
ATOM      2  C   UNL     1       0.022  10.030  21.409  0.00  0.00    +0.000 A 
ATOM      3  C   UNL     1       0.522   8.925  22.118  0.00  0.00    +0.000 A 
ATOM      4  C   UNL     1       1.279   7.933  21.489  0.00  0.00    +0.000 A 
ATOM      5  C   UNL     1       1.590   8.003  20.123  0.00  0.00    +0.000 A 
ATOM      6  C   UNL     1       1.114   9.130  19.432  0.00  0.00    +0.000 A 
ATOM      7  C   UNL     1       0.294  10.110  20.034  0.00  0.00    +0.000 A 
ENDROOT
BRANCH   5   8
ATOM      8  C   UNL     1       2.430   6.959  19.479  0.00  0.00    +0.000 A 
ATOM      9  N   UNL     1       3.389   7.463  18.671  0.00  0.00    +0.000 NA
ATOM     10  N   UNL     1       4.230   6.636  17.960  0.00  0.00    +0.000 NA
ATOM     11  C   UNL     1       4.127   5.291  18.029  0.00  0.00    +0.000 A 
ATOM     12  C   UNL     1       3.177   4.716  18.918  0.00  0.00    +0.000 A 
ATOM     13  C   UNL     1       3.083   3.317  19.153  0.00  0.00    +0.000 A 
ATOM     14  C   UNL     1       2.105   2.742  19.962  0.00  0.00    +0.000 A 
ATOM     15  C   UNL     1       1.236   3.562  20.649  0.00  0.00    +0.000 A 
ATOM     16  C   UNL     1       1.367   4.944  20.534  0.00  0.00    +0.000 A 
ATOM     17  C   UNL     1       2.301   5.561  19.651  0.00  0.00    +0.000 A 
BRANCH  11  18
ATOM     18  N   UNL     1       4.979   4.526  17.236  0.00  0.00    +0.000 N 
ATOM     19  C   UNL     1       6.401   4.468  17.578  0.00  0.00    +0.000 C 
ATOM     20  C   UNL     1       7.281   5.056  16.475  0.00  0.00    +0.000 C 
ATOM     21  C   UNL     1       6.937   4.470  15.110  0.00  0.00    +0.000 C 
ATOM     22  C   UNL     1       5.463   4.694  14.810  0.00  0.00    +0.000 C 
ATOM     23  C   UNL     1       4.577   4.100  15.897  0.00  0.00    +0.000 C 
ENDBRANCH  11  18
ENDBRANCH   5   8
BRANCH   7  24
ATOM     24  S   UNL     1      -0.214  11.462  18.966  0.00  0.00    +0.000 S 
ATOM     25  O   UNL     1      -1.171  10.923  18.024  0.00  0.00    +0.000 OA
ATOM     26  O   UNL     1      -0.558  12.569  19.825  0.00  0.00    +0.000 OA
BRANCH  24  27
ATOM     27  N   UNL     1       1.161  11.963  18.127  0.00  0.00    +0.000 NA
ATOM     28  H   UNL     1       0.993  12.276  17.168  0.00  0.00    +0.000 HD
BRANCH  27  29
ATOM     29  C   UNL     1       2.097  12.843  18.865  0.00  0.00    +0.000 C 
BRANCH  29  30
ATOM     30  C   UNL     1       2.322  14.156  18.117  0.00  0.00    +0.000 C 
ATOM     31  C   UNL     1       3.787  14.559  18.113  0.00  0.00    +0.000 C 
ATOM     32  C   UNL     1       3.696  16.041  17.859  0.00  0.00    +0.000 C 
ATOM     33  C   UNL     1       2.440  16.431  18.616  0.00  0.00    +0.000 C 
ATOM     34  O   UNL     1       1.637  15.247  18.769  0.00  0.00    +0.000 OA
ENDBRANCH  29  30
ENDBRANCH  27  29
ENDBRANCH  24  27
ENDBRANCH   7  24
TORSDOF 6
ENDMDL
MODEL 8
REMARK VINA RESULT:      -8.0      4.069      9.589
REMARK  Name = 
REMARK  7 active torsions:
REMARK  status: ('A' for Active; 'I' for Inactive)
REMARK    1  A    between atoms: C_1  and  C_2
REMARK    2  A    between atoms: C_5  and  C_6
REMARK    3  A    between atoms: C_9  and  N_10
REMARK    4  A    between atoms: C_23  and  S_24
REMARK    5  A    between atoms: S_24  and  N_27
REMARK    6  A    between atoms: N_27  and  C_28
REMARK    7  A    between atoms: C_28  and  C_29
REMARK                            x       y       z     vdW  Elec       q    Type
REMARK                         _______ _______ _______ _____ _____    ______ ____
ROOT
ATOM      1  C   UNL     1      -1.197  11.662  20.101  0.00  0.00    +0.000 C 
ATOM      2  C   UNL     1      -0.199  10.580  19.835  0.00  0.00    +0.000 A 
ATOM      3  C   UNL     1       0.189  10.392  18.497  0.00  0.00    +0.000 A 
ATOM      4  C   UNL     1       1.093   9.390  18.131  0.00  0.00    +0.000 A 
ATOM      5  C   UNL     1       1.642   8.515  19.079  0.00  0.00    +0.000 A 
ATOM      6  C   UNL     1       1.220   8.692  20.409  0.00  0.00    +0.000 A 
ATOM      7  C   UNL     1       0.358   9.736  20.809  0.00  0.00    +0.000 A 
ENDROOT
BRANCH   5   8
ATOM      8  C   UNL     1       2.572   7.431  18.666  0.00  0.00    +0.000 A 
ATOM      9  N   UNL     1       3.387   7.782  17.646  0.00  0.00    +0.000 NA
ATOM     10  N   UNL     1       4.282   6.884  17.108  0.00  0.00    +0.000 NA
ATOM     11  C   UNL     1       4.378   5.618  17.568  0.00  0.00    +0.000 A 
ATOM     12  C   UNL     1       3.589   5.226  18.684  0.00  0.00    +0.000 A 
ATOM     13  C   UNL     1       3.715   3.957  19.316  0.00  0.00    +0.000 A 
ATOM     14  C   UNL     1       2.892   3.540  20.359  0.00  0.00    +0.000 A 
ATOM     15  C   UNL     1       1.968   4.419  20.879  0.00  0.00    +0.000 A 
ATOM     16  C   UNL     1       1.890   5.711  20.362  0.00  0.00    +0.000 A 
ATOM     17  C   UNL     1       2.658   6.142  19.242  0.00  0.00    +0.000 A 
BRANCH  11  18
ATOM     18  N   UNL     1       5.271   4.756  16.933  0.00  0.00    +0.000 N 
ATOM     19  C   UNL     1       6.707   4.946  17.141  0.00  0.00    +0.000 C 
ATOM     20  C   UNL     1       7.435   5.292  15.843  0.00  0.00    +0.000 C 
ATOM     21  C   UNL     1       7.084   4.315  14.726  0.00  0.00    +0.000 C 
ATOM     22  C   UNL     1       5.578   4.291  14.517  0.00  0.00    +0.000 C 
ATOM     23  C   UNL     1       4.844   3.933  15.803  0.00  0.00    +0.000 C 
ENDBRANCH  11  18
ENDBRANCH   5   8
BRANCH   7  24
ATOM     24  S   UNL     1      -0.045   9.786  22.558  0.00  0.00    +0.000 S 
ATOM     25  O   UNL     1      -1.102   8.824  22.779  0.00  0.00    +0.000 OA
ATOM     26  O   UNL     1       1.202   9.702  23.279  0.00  0.00    +0.000 OA
BRANCH  24  27
ATOM     27  N   UNL     1      -0.635  11.335  22.877  0.00  0.00    +0.000 NA
ATOM     28  H   UNL     1      -0.495  12.014  22.125  0.00  0.00    +0.000 HD
BRANCH  27  29
ATOM     29  C   UNL     1      -1.987  11.412  23.479  0.00  0.00    +0.000 C 
BRANCH  29  30
ATOM     30  C   UNL     1      -2.729  12.660  23.004  0.00  0.00    +0.000 C 
ATOM     31  C   UNL     1      -3.062  13.591  24.158  0.00  0.00    +0.000 C 
ATOM     32  C   UNL     1      -4.204  14.389  23.587  0.00  0.00    +0.000 C 
ATOM     33  C   UNL     1      -4.936  13.363  22.742  0.00  0.00    +0.000 C 
ATOM     34  O   UNL     1      -4.004  12.315  22.423  0.00  0.00    +0.000 OA
ENDBRANCH  29  30
ENDBRANCH  27  29
ENDBRANCH  24  27
ENDBRANCH   7  24
TORSDOF 6
ENDMDL
MODEL 9
REMARK VINA RESULT:      -8.0      4.632      9.435
REMARK  Name = 
REMARK  7 active torsions:
REMARK  status: ('A' for Active; 'I' for Inactive)
REMARK    1  A    between atoms: C_1  and  C_2
REMARK    2  A    between atoms: C_5  and  C_6
REMARK    3  A    between atoms: C_9  and  N_10
REMARK    4  A    between atoms: C_23  and  S_24
REMARK    5  A    between atoms: S_24  and  N_27
REMARK    6  A    between atoms: N_27  and  C_28
REMARK    7  A    between atoms: C_28  and  C_29
REMARK                            x       y       z     vdW  Elec       q    Type
REMARK                         _______ _______ _______ _____ _____    ______ ____
ROOT
ATOM      1  C   UNL     1      -1.111  11.633  21.324  0.00  0.00    +0.000 C 
ATOM      2  C   UNL     1      -0.300  10.544  20.695  0.00  0.00    +0.000 A 
ATOM      3  C   UNL     1       0.627   9.887  21.523  0.00  0.00    +0.000 A 
ATOM      4  C   UNL     1       1.457   8.875  21.032  0.00  0.00    +0.000 A 
ATOM      5  C   UNL     1       1.417   8.480  19.688  0.00  0.00    +0.000 A 
ATOM      6  C   UNL     1       0.510   9.168  18.862  0.00  0.00    +0.000 A 
ATOM      7  C   UNL     1      -0.381  10.148  19.351  0.00  0.00    +0.000 A 
ENDROOT
BRANCH   5   8
ATOM      8  C   UNL     1       2.334   7.428  19.175  0.00  0.00    +0.000 A 
ATOM      9  N   UNL     1       3.163   7.867  18.200  0.00  0.00    +0.000 NA
ATOM     10  N   UNL     1       4.049   7.013  17.581  0.00  0.00    +0.000 NA
ATOM     11  C   UNL     1       4.122   5.706  17.912  0.00  0.00    +0.000 A 
ATOM     12  C   UNL     1       3.318   5.216  18.977  0.00  0.00    +0.000 A 
ATOM     13  C   UNL     1       3.419   3.889  19.479  0.00  0.00    +0.000 A 
ATOM     14  C   UNL     1       2.582   3.381  20.469  0.00  0.00    +0.000 A 
ATOM     15  C   UNL     1       1.667   4.219  21.068  0.00  0.00    +0.000 A 
ATOM     16  C   UNL     1       1.612   5.557  20.684  0.00  0.00    +0.000 A 
ATOM     17  C   UNL     1       2.396   6.087  19.618  0.00  0.00    +0.000 A 
BRANCH  11  18
ATOM     18  N   UNL     1       5.007   4.898  17.200  0.00  0.00    +0.000 N 
ATOM     19  C   UNL     1       6.430   4.937  17.540  0.00  0.00    +0.000 C 
ATOM     20  C   UNL     1       7.285   5.442  16.378  0.00  0.00    +0.000 C 
ATOM     21  C   UNL     1       6.967   4.702  15.084  0.00  0.00    +0.000 C 
ATOM     22  C   UNL     1       5.485   4.831  14.768  0.00  0.00    +0.000 C 
ATOM     23  C   UNL     1       4.624   4.317  15.914  0.00  0.00    +0.000 C 
ENDBRANCH  11  18
ENDBRANCH   5   8
BRANCH   7  24
ATOM     24  S   UNL     1      -1.464  10.894  18.128  0.00  0.00    +0.000 S 
ATOM     25  O   UNL     1      -1.080  12.285  18.012  0.00  0.00    +0.000 OA
ATOM     26  O   UNL     1      -1.463  10.023  16.978  0.00  0.00    +0.000 OA
BRANCH  24  27
ATOM     27  N   UNL     1      -3.031  10.807  18.748  0.00  0.00    +0.000 NA
ATOM     28  H   UNL     1      -3.140  10.198  19.562  0.00  0.00    +0.000 HD
BRANCH  27  29
ATOM     29  C   UNL     1      -3.757  12.091  18.886  0.00  0.00    +0.000 C 
BRANCH  29  30
ATOM     30  C   UNL     1      -5.268  11.878  18.820  0.00  0.00    +0.000 C 
ATOM     31  C   UNL     1      -5.904  11.918  20.200  0.00  0.00    +0.000 C 
ATOM     32  C   UNL     1      -7.186  11.164  19.967  0.00  0.00    +0.000 C 
ATOM     33  C   UNL     1      -6.770  10.101  18.968  0.00  0.00    +0.000 C 
ATOM     34  O   UNL     1      -5.584  10.568  18.301  0.00  0.00    +0.000 OA
ENDBRANCH  29  30
ENDBRANCH  27  29
ENDBRANCH  24  27
ENDBRANCH   7  24
TORSDOF 6
ENDMDL
