MODEL 1
REMARK VINA RESULT:      -6.6      0.000      0.000
REMARK  Name = 
REMARK  9 active torsions:
REMARK  status: ('A' for Active; 'I' for Inactive)
REMARK    1  A    between atoms: C_1  and  C_2
REMARK    2  A    between atoms: C_2  and  C_3
REMARK    3  A    between atoms: N_5  and  C_6
REMARK    4  A    between atoms: N_5  and  C_9
REMARK    5  A    between atoms: C_6  and  C_7
REMARK    6  A    between atoms: C_7  and  N_8
REMARK    7  A    between atoms: N_12  and  C_13
REMARK    8  A    between atoms: C_13  and  C_14
REMARK    9  A    between atoms: C_14  and  C_15
REMARK                            x       y       z     vdW  Elec       q    Type
REMARK                         _______ _______ _______ _____ _____    ______ ____
ROOT
ATOM      1  C   UNL     1       4.597   3.524  17.732  0.00  0.00    +0.000 C 
ATOM      2  C   UNL     1       3.154   3.297  17.256  0.00  0.00    +0.000 C 
ATOM      3  C   UNL     1       2.167   4.231  17.952  0.00  0.00    +0.000 C 
ATOM      4  N   UNL     1       2.192   4.073  19.411  0.00  0.00    +0.000 NA
ATOM      5  C   UNL     1       3.556   4.246  19.929  0.00  0.00    +0.000 C 
ATOM      6  C   UNL     1       4.513   3.261  19.259  0.00  0.00    +0.000 C 
ENDROOT
BRANCH   1   9
ATOM      7  C   UNL     1       5.542   5.384  16.135  0.00  0.00    +0.000 C 
ATOM      8  O   UNL     1       5.946   6.550  16.018  0.00  0.00    +0.000 OA
ATOM      9  N   UNL     1       5.304   4.818  17.401  0.00  0.00    +0.000 N 
BRANCH   7  11
ATOM     10  C   UNL     1       6.490   4.202  14.008  0.00  0.00    +0.000 C 
ATOM     11  C   UNL     1       5.292   4.561  14.877  0.00  0.00    +0.000 C 
ENDBRANCH   7  11
BRANCH   9  12
ATOM     12  C   UNL     1       5.823   5.605  18.557  0.00  0.00    +0.000 C 
BRANCH  12  13
ATOM     13  C   UNL     1       7.359   5.568  18.764  0.00  0.00    +0.000 C 
BRANCH  13  14
ATOM     14  N   UNL     1       7.983   6.855  18.437  0.00  0.00    +0.000 NA
ATOM     15  H   UNL     1       7.797   7.520  19.190  0.00  0.00    +0.000 HD
ATOM     16  H   UNL     1       7.542   7.247  17.605  0.00  0.00    +0.000 HD
ENDBRANCH  13  14
ENDBRANCH  12  13
ENDBRANCH   9  12
ENDBRANCH   1   9
BRANCH   4  17
ATOM     17  C   UNL     1       1.300   5.060  20.052  0.00  0.00    +0.000 C 
BRANCH  17  18
ATOM     18  C   UNL     1       2.075   6.241  20.651  0.00  0.00    +0.000 C 
BRANCH  18  19
ATOM     19  C   UNL     1       1.854   7.498  19.858  0.00  0.00    +0.000 A 
ATOM     20  C   UNL     1       2.383   7.622  18.568  0.00  0.00    +0.000 A 
ATOM     21  C   UNL     1       2.194   8.796  17.842  0.00  0.00    +0.000 A 
ATOM     22  C   UNL     1       1.485   9.852  18.404  0.00  0.00    +0.000 A 
ATOM     23  C   UNL     1       0.964   9.740  19.691  0.00  0.00    +0.000 A 
ATOM     24  C   UNL     1       1.147   8.571  20.418  0.00  0.00    +0.000 A 
ENDBRANCH  18  19
ENDBRANCH  17  18
ENDBRANCH   4  17
TORSDOF 8
ENDMDL
MODEL 2
REMARK VINA RESULT:      -6.5      1.037      1.583
REMARK  Name = 
REMARK  9 active torsions:
REMARK  status: ('A' for Active; 'I' for Inactive)
REMARK    1  A    between atoms: C_1  and  C_2
REMARK    2  A    between atoms: C_2  and  C_3
REMARK    3  A    between atoms: N_5  and  C_6
REMARK    4  A    between atoms: N_5  and  C_9
REMARK    5  A    between atoms: C_6  and  C_7
REMARK    6  A    between atoms: C_7  and  N_8
REMARK    7  A    between atoms: N_12  and  C_13
REMARK    8  A    between atoms: C_13  and  C_14
REMARK    9  A    between atoms: C_14  and  C_15
REMARK                            x       y       z     vdW  Elec       q    Type
REMARK                         _______ _______ _______ _____ _____    ______ ____
ROOT
ATOM      1  C   UNL     1       4.931   3.624  17.688  0.00  0.00    +0.000 C 
ATOM      2  C   UNL     1       3.486   3.757  17.183  0.00  0.00    +0.000 C 
ATOM      3  C   UNL     1       2.765   4.944  17.818  0.00  0.00    +0.000 C 
ATOM      4  N   UNL     1       2.726   4.848  19.282  0.00  0.00    +0.000 NA
ATOM      5  C   UNL     1       4.081   4.684  19.829  0.00  0.00    +0.000 C 
ATOM      6  C   UNL     1       4.759   3.458  19.221  0.00  0.00    +0.000 C 
ENDROOT
BRANCH   1   9
ATOM      7  C   UNL     1       6.599   4.880  16.092  0.00  0.00    +0.000 C 
ATOM      8  O   UNL     1       7.257   5.907  15.873  0.00  0.00    +0.000 OA
ATOM      9  N   UNL     1       5.955   4.675  17.326  0.00  0.00    +0.000 N 
BRANCH   7  11
ATOM     10  C   UNL     1       5.696   4.191  13.741  0.00  0.00    +0.000 C 
ATOM     11  C   UNL     1       6.483   3.830  14.993  0.00  0.00    +0.000 C 
ENDBRANCH   7  11
BRANCH   9  12
ATOM     12  C   UNL     1       6.342   5.624  18.411  0.00  0.00    +0.000 C 
BRANCH  12  13
ATOM     13  C   UNL     1       7.811   5.532  18.895  0.00  0.00    +0.000 C 
BRANCH  13  14
ATOM     14  N   UNL     1       7.896   5.425  20.356  0.00  0.00    +0.000 NA
ATOM     15  H   UNL     1       7.049   5.813  20.772  0.00  0.00    +0.000 HD
ATOM     16  H   UNL     1       8.664   6.005  20.697  0.00  0.00    +0.000 HD
ENDBRANCH  13  14
ENDBRANCH  12  13
ENDBRANCH   9  12
ENDBRANCH   1   9
BRANCH   4  17
ATOM     17  C   UNL     1       2.110   6.058  19.862  0.00  0.00    +0.000 C 
BRANCH  17  18
ATOM     18  C   UNL     1       2.648   7.346  19.223  0.00  0.00    +0.000 C 
BRANCH  18  19
ATOM     19  C   UNL     1       1.626   8.447  19.269  0.00  0.00    +0.000 A 
ATOM     20  C   UNL     1       1.072   8.846  20.491  0.00  0.00    +0.000 A 
ATOM     21  C   UNL     1       0.109   9.853  20.529  0.00  0.00    +0.000 A 
ATOM     22  C   UNL     1      -0.308  10.458  19.349  0.00  0.00    +0.000 A 
ATOM     23  C   UNL     1       0.231  10.059  18.128  0.00  0.00    +0.000 A 
ATOM     24  C   UNL     1       1.193   9.057  18.084  0.00  0.00    +0.000 A 
ENDBRANCH  18  19
ENDBRANCH  17  18
ENDBRANCH   4  17
TORSDOF 8
ENDMDL
MODEL 3
REMARK VINA RESULT:      -6.5      1.419      2.088
REMARK  Name = 
REMARK  9 active torsions:
REMARK  status: ('A' for Active; 'I' for Inactive)
REMARK    1  A    between atoms: C_1  and  C_2
REMARK    2  A    between atoms: C_2  and  C_3
REMARK    3  A    between atoms: N_5  and  C_6
REMARK    4  A    between atoms: N_5  and  C_9
REMARK    5  A    between atoms: C_6  and  C_7
REMARK    6  A    between atoms: C_7  and  N_8
REMARK    7  A    between atoms: N_12  and  C_13
REMARK    8  A    between atoms: C_13  and  C_14
REMARK    9  A    between atoms: C_14  and  C_15
REMARK                            x       y       z     vdW  Elec       q    Type
REMARK                         _______ _______ _______ _____ _____    ______ ____
ROOT
ATOM      1  C   UNL     1       4.851   4.016  17.906  0.00  0.00    +0.000 C 
ATOM      2  C   UNL     1       3.432   4.164  17.336  0.00  0.00    +0.000 C 
ATOM      3  C   UNL     1       2.822   5.525  17.663  0.00  0.00    +0.000 C 
ATOM      4  N   UNL     1       2.756   5.767  19.110  0.00  0.00    +0.000 NA
ATOM      5  C   UNL     1       4.081   5.607  19.725  0.00  0.00    +0.000 C 
ATOM      6  C   UNL     1       4.644   4.218  19.431  0.00  0.00    +0.000 C 
ENDROOT
BRANCH   1   9
ATOM      7  C   UNL     1       6.531   4.838  16.060  0.00  0.00    +0.000 C 
ATOM      8  O   UNL     1       7.305   5.727  15.678  0.00  0.00    +0.000 OA
ATOM      9  N   UNL     1       5.976   4.860  17.353  0.00  0.00    +0.000 N 
BRANCH   7  11
ATOM     10  C   UNL     1       6.247   3.993  13.606  0.00  0.00    +0.000 C 
ATOM     11  C   UNL     1       6.172   3.710  15.100  0.00  0.00    +0.000 C 
ENDBRANCH   7  11
BRANCH   9  12
ATOM     12  C   UNL     1       6.588   5.847  18.291  0.00  0.00    +0.000 C 
BRANCH  12  13
ATOM     13  C   UNL     1       7.959   5.447  18.891  0.00  0.00    +0.000 C 
BRANCH  13  14
ATOM     14  N   UNL     1       7.951   5.511  20.357  0.00  0.00    +0.000 NA
ATOM     15  H   UNL     1       7.107   5.059  20.709  0.00  0.00    +0.000 HD
ATOM     16  H   UNL     1       7.891   6.485  20.655  0.00  0.00    +0.000 HD
ENDBRANCH  13  14
ENDBRANCH  12  13
ENDBRANCH   9  12
ENDBRANCH   1   9
BRANCH   4  17
ATOM     17  C   UNL     1       2.253   7.128  19.383  0.00  0.00    +0.000 C 
BRANCH  17  18
ATOM     18  C   UNL     1       1.690   7.264  20.804  0.00  0.00    +0.000 C 
BRANCH  18  19
ATOM     19  C   UNL     1       0.988   8.580  20.990  0.00  0.00    +0.000 A 
ATOM     20  C   UNL     1       0.405   8.901  22.222  0.00  0.00    +0.000 A 
ATOM     21  C   UNL     1      -0.263  10.113  22.386  0.00  0.00    +0.000 A 
ATOM     22  C   UNL     1      -0.358  11.003  21.322  0.00  0.00    +0.000 A 
ATOM     23  C   UNL     1       0.211  10.685  20.091  0.00  0.00    +0.000 A 
ATOM     24  C   UNL     1       0.880   9.480  19.921  0.00  0.00    +0.000 A 
ENDBRANCH  18  19
ENDBRANCH  17  18
ENDBRANCH   4  17
TORSDOF 8
ENDMDL
MODEL 4
REMARK VINA RESULT:      -6.4      2.523      6.614
REMARK  Name = 
REMARK  9 active torsions:
REMARK  status: ('A' for Active; 'I' for Inactive)
REMARK    1  A    between atoms: C_1  and  C_2
REMARK    2  A    between atoms: C_2  and  C_3
REMARK    3  A    between atoms: N_5  and  C_6
REMARK    4  A    between atoms: N_5  and  C_9
REMARK    5  A    between atoms: C_6  and  C_7
REMARK    6  A    between atoms: C_7  and  N_8
REMARK    7  A    between atoms: N_12  and  C_13
REMARK    8  A    between atoms: C_13  and  C_14
REMARK    9  A    between atoms: C_14  and  C_15
REMARK                            x       y       z     vdW  Elec       q    Type
REMARK                         _______ _______ _______ _____ _____    ______ ____
ROOT
ATOM      1  C   UNL     1       3.348   4.942  19.498  0.00  0.00    +0.000 C 
ATOM      2  C   UNL     1       3.229   6.382  18.975  0.00  0.00    +0.000 C 
ATOM      3  C   UNL     1       3.889   6.550  17.608  0.00  0.00    +0.000 C 
ATOM      4  N   UNL     1       5.313   6.194  17.634  0.00  0.00    +0.000 NA
ATOM      5  C   UNL     1       5.499   4.834  18.159  0.00  0.00    +0.000 C 
ATOM      6  C   UNL     1       4.881   4.708  19.551  0.00  0.00    +0.000 C 
ENDROOT
BRANCH   1   9
ATOM      7  C   UNL     1       1.379   3.237  19.146  0.00  0.00    +0.000 C 
ATOM      8  O   UNL     1       0.788   2.476  18.369  0.00  0.00    +0.000 OA
ATOM      9  N   UNL     1       2.610   3.824  18.799  0.00  0.00    +0.000 N 
BRANCH   7  11
ATOM     10  C   UNL     1       1.295   2.830  21.724  0.00  0.00    +0.000 C 
ATOM     11  C   UNL     1       0.747   3.547  20.498  0.00  0.00    +0.000 C 
ENDBRANCH   7  11
BRANCH   9  12
ATOM     12  C   UNL     1       3.262   3.258  17.581  0.00  0.00    +0.000 C 
BRANCH  12  13
ATOM     13  C   UNL     1       3.601   1.747  17.638  0.00  0.00    +0.000 C 
BRANCH  13  14
ATOM     14  N   UNL     1       4.310   1.395  18.873  0.00  0.00    +0.000 NA
ATOM     15  H   UNL     1       3.726   0.771  19.431  0.00  0.00    +0.000 HD
ATOM     16  H   UNL     1       4.445   2.232  19.440  0.00  0.00    +0.000 HD
ENDBRANCH  13  14
ENDBRANCH  12  13
ENDBRANCH   9  12
ENDBRANCH   1   9
BRANCH   4  17
ATOM     17  C   UNL     1       5.890   6.275  16.277  0.00  0.00    +0.000 C 
BRANCH  17  18
ATOM     18  C   UNL     1       6.846   5.111  15.983  0.00  0.00    +0.000 C 
BRANCH  18  19
ATOM     19  C   UNL     1       6.846   4.758  14.523  0.00  0.00    +0.000 A 
ATOM     20  C   UNL     1       5.991   3.761  14.037  0.00  0.00    +0.000 A 
ATOM     21  C   UNL     1       6.007   3.422  12.686  0.00  0.00    +0.000 A 
ATOM     22  C   UNL     1       6.879   4.069  11.818  0.00  0.00    +0.000 A 
ATOM     23  C   UNL     1       7.740   5.055  12.296  0.00  0.00    +0.000 A 
ATOM     24  C   UNL     1       7.727   5.399  13.641  0.00  0.00    +0.000 A 
ENDBRANCH  18  19
ENDBRANCH  17  18
ENDBRANCH   4  17
TORSDOF 8
ENDMDL
MODEL 5
REMARK VINA RESULT:      -6.3      2.798      4.784
REMARK  Name = 
REMARK  9 active torsions:
REMARK  status: ('A' for Active; 'I' for Inactive)
REMARK    1  A    between atoms: C_1  and  C_2
REMARK    2  A    between atoms: C_2  and  C_3
REMARK    3  A    between atoms: N_5  and  C_6
REMARK    4  A    between atoms: N_5  and  C_9
REMARK    5  A    between atoms: C_6  and  C_7
REMARK    6  A    between atoms: C_7  and  N_8
REMARK    7  A    between atoms: N_12  and  C_13
REMARK    8  A    between atoms: C_13  and  C_14
REMARK    9  A    between atoms: C_14  and  C_15
REMARK                            x       y       z     vdW  Elec       q    Type
REMARK                         _______ _______ _______ _____ _____    ______ ____
ROOT
ATOM      1  C   UNL     1       6.087   6.778  16.526  0.00  0.00    +0.000 C 
ATOM      2  C   UNL     1       4.616   6.729  16.967  0.00  0.00    +0.000 C 
ATOM      3  C   UNL     1       4.237   5.369  17.548  0.00  0.00    +0.000 C 
ATOM      4  N   UNL     1       4.460   4.278  16.591  0.00  0.00    +0.000 NA
ATOM      5  C   UNL     1       5.846   4.289  16.103  0.00  0.00    +0.000 C 
ATOM      6  C   UNL     1       6.182   5.640  15.475  0.00  0.00    +0.000 C 
ENDROOT
BRANCH   1   9
ATOM      7  C   UNL     1       7.966   7.758  18.081  0.00  0.00    +0.000 C 
ATOM      8  O   UNL     1       8.685   7.593  19.076  0.00  0.00    +0.000 OA
ATOM      9  N   UNL     1       7.186   6.708  17.563  0.00  0.00    +0.000 N 
BRANCH   7  11
ATOM     10  C   UNL     1       8.660  10.275  18.104  0.00  0.00    +0.000 C 
ATOM     11  C   UNL     1       7.927   9.130  17.419  0.00  0.00    +0.000 C 
ENDBRANCH   7  11
BRANCH   9  12
ATOM     12  C   UNL     1       7.492   5.356  18.114  0.00  0.00    +0.000 C 
BRANCH  12  13
ATOM     13  C   UNL     1       6.987   5.083  19.553  0.00  0.00    +0.000 C 
BRANCH  13  14
ATOM     14  N   UNL     1       8.042   5.301  20.550  0.00  0.00    +0.000 NA
ATOM     15  H   UNL     1       8.646   6.062  20.240  0.00  0.00    +0.000 HD
ATOM     16  H   UNL     1       8.638   4.475  20.602  0.00  0.00    +0.000 HD
ENDBRANCH  13  14
ENDBRANCH  12  13
ENDBRANCH   9  12
ENDBRANCH   1   9
BRANCH   4  17
ATOM     17  C   UNL     1       4.176   2.972  17.221  0.00  0.00    +0.000 C 
BRANCH  17  18
ATOM     18  C   UNL     1       2.677   2.763  17.473  0.00  0.00    +0.000 C 
BRANCH  18  19
ATOM     19  C   UNL     1       2.337   2.937  18.926  0.00  0.00    +0.000 A 
ATOM     20  C   UNL     1       1.196   3.654  19.304  0.00  0.00    +0.000 A 
ATOM     21  C   UNL     1       0.893   3.831  20.652  0.00  0.00    +0.000 A 
ATOM     22  C   UNL     1       1.731   3.301  21.627  0.00  0.00    +0.000 A 
ATOM     23  C   UNL     1       2.875   2.595  21.258  0.00  0.00    +0.000 A 
ATOM     24  C   UNL     1       3.180   2.414  19.916  0.00  0.00    +0.000 A 
ENDBRANCH  18  19
ENDBRANCH  17  18
ENDBRANCH   4  17
TORSDOF 8
ENDMDL
MODEL 6
REMARK VINA RESULT:      -6.3      2.556      6.625
REMARK  Name = 
REMARK  9 active torsions:
REMARK  status: ('A' for Active; 'I' for Inactive)
REMARK    1  A    between atoms: C_1  and  C_2
REMARK    2  A    between atoms: C_2  and  C_3
REMARK    3  A    between atoms: N_5  and  C_6
REMARK    4  A    between atoms: N_5  and  C_9
REMARK    5  A    between atoms: C_6  and  C_7
REMARK    6  A    between atoms: C_7  and  N_8
REMARK    7  A    between atoms: N_12  and  C_13
REMARK    8  A    between atoms: C_13  and  C_14
REMARK    9  A    between atoms: C_14  and  C_15
REMARK                            x       y       z     vdW  Elec       q    Type
REMARK                         _______ _______ _______ _____ _____    ______ ____
ROOT
ATOM      1  C   UNL     1       3.468   4.897  19.520  0.00  0.00    +0.000 C 
ATOM      2  C   UNL     1       3.240   6.338  19.038  0.00  0.00    +0.000 C 
ATOM      3  C   UNL     1       3.708   6.541  17.599  0.00  0.00    +0.000 C 
ATOM      4  N   UNL     1       5.132   6.227  17.431  0.00  0.00    +0.000 NA
ATOM      5  C   UNL     1       5.424   4.868  17.907  0.00  0.00    +0.000 C 
ATOM      6  C   UNL     1       5.000   4.708  19.366  0.00  0.00    +0.000 C 
ENDROOT
BRANCH   1   9
ATOM      7  C   UNL     1       1.468   3.199  19.358  0.00  0.00    +0.000 C 
ATOM      8  O   UNL     1       0.819   2.420  18.647  0.00  0.00    +0.000 OA
ATOM      9  N   UNL     1       2.675   3.765  18.908  0.00  0.00    +0.000 N 
BRANCH   7  11
ATOM     10  C   UNL     1       1.408   2.719  21.924  0.00  0.00    +0.000 C 
ATOM     11  C   UNL     1       0.935   3.553  20.742  0.00  0.00    +0.000 C 
ENDBRANCH   7  11
BRANCH   9  12
ATOM     12  C   UNL     1       3.236   3.159  17.665  0.00  0.00    +0.000 C 
BRANCH  12  13
ATOM     13  C   UNL     1       3.444   1.624  17.697  0.00  0.00    +0.000 C 
BRANCH  13  14
ATOM     14  N   UNL     1       4.315   1.216  18.804  0.00  0.00    +0.000 NA
ATOM     15  H   UNL     1       4.877   2.014  19.102  0.00  0.00    +0.000 HD
ATOM     16  H   UNL     1       4.979   0.515  18.476  0.00  0.00    +0.000 HD
ENDBRANCH  13  14
ENDBRANCH  12  13
ENDBRANCH   9  12
ENDBRANCH   1   9
BRANCH   4  17
ATOM     17  C   UNL     1       5.522   6.340  16.011  0.00  0.00    +0.000 C 
BRANCH  17  18
ATOM     18  C   UNL     1       6.817   5.577  15.703  0.00  0.00    +0.000 C 
BRANCH  18  19
ATOM     19  C   UNL     1       6.747   4.898  14.365  0.00  0.00    +0.000 A 
ATOM     20  C   UNL     1       7.696   5.185  13.376  0.00  0.00    +0.000 A 
ATOM     21  C   UNL     1       7.617   4.570  12.129  0.00  0.00    +0.000 A 
ATOM     22  C   UNL     1       6.588   3.674  11.861  0.00  0.00    +0.000 A 
ATOM     23  C   UNL     1       5.633   3.393  12.835  0.00  0.00    +0.000 A 
ATOM     24  C   UNL     1       5.708   4.001  14.082  0.00  0.00    +0.000 A 
ENDBRANCH  18  19
ENDBRANCH  17  18
ENDBRANCH   4  17
TORSDOF 8
ENDMDL
MODEL 7
REMARK VINA RESULT:      -6.3      1.057      1.099
REMARK  Name = 
REMARK  9 active torsions:
REMARK  status: ('A' for Active; 'I' for Inactive)
REMARK    1  A    between atoms: C_1  and  C_2
REMARK    2  A    between atoms: C_2  and  C_3
REMARK    3  A    between atoms: N_5  and  C_6
REMARK    4  A    between atoms: N_5  and  C_9
REMARK    5  A    between atoms: C_6  and  C_7
REMARK    6  A    between atoms: C_7  and  N_8
REMARK    7  A    between atoms: N_12  and  C_13
REMARK    8  A    between atoms: C_13  and  C_14
REMARK    9  A    between atoms: C_14  and  C_15
REMARK                            x       y       z     vdW  Elec       q    Type
REMARK                         _______ _______ _______ _____ _____    ______ ____
ROOT
ATOM      1  C   UNL     1       5.503   4.012  17.714  0.00  0.00    +0.000 C 
ATOM      2  C   UNL     1       4.199   3.228  17.502  0.00  0.00    +0.000 C 
ATOM      3  C   UNL     1       2.966   4.083  17.787  0.00  0.00    +0.000 C 
ATOM      4  N   UNL     1       2.962   4.606  19.158  0.00  0.00    +0.000 NA
ATOM      5  C   UNL     1       4.203   5.341  19.438  0.00  0.00    +0.000 C 
ATOM      6  C   UNL     1       5.420   4.448  19.201  0.00  0.00    +0.000 C 
ENDROOT
BRANCH   1   9
ATOM      7  C   UNL     1       6.024   5.129  15.393  0.00  0.00    +0.000 C 
ATOM      8  O   UNL     1       6.102   6.176  14.735  0.00  0.00    +0.000 OA
ATOM      9  N   UNL     1       5.854   5.155  16.789  0.00  0.00    +0.000 N 
BRANCH   7  11
ATOM     10  C   UNL     1       5.703   3.755  13.195  0.00  0.00    +0.000 C 
ATOM     11  C   UNL     1       6.104   3.793  14.663  0.00  0.00    +0.000 C 
ENDBRANCH   7  11
BRANCH   9  12
ATOM     12  C   UNL     1       6.049   6.489  17.429  0.00  0.00    +0.000 C 
BRANCH  12  13
ATOM     13  C   UNL     1       7.520   6.914  17.666  0.00  0.00    +0.000 C 
BRANCH  13  14
ATOM     14  N   UNL     1       7.731   8.334  17.363  0.00  0.00    +0.000 NA
ATOM     15  H   UNL     1       7.824   8.453  16.353  0.00  0.00    +0.000 HD
ATOM     16  H   UNL     1       8.619   8.640  17.762  0.00  0.00    +0.000 HD
ENDBRANCH  13  14
ENDBRANCH  12  13
ENDBRANCH   9  12
ENDBRANCH   1   9
BRANCH   4  17
ATOM     17  C   UNL     1       1.808   5.505  19.365  0.00  0.00    +0.000 C 
BRANCH  17  18
ATOM     18  C   UNL     1       2.135   6.659  20.321  0.00  0.00    +0.000 C 
BRANCH  18  19
ATOM     19  C   UNL     1       1.748   7.985  19.731  0.00  0.00    +0.000 A 
ATOM     20  C   UNL     1       2.096   8.300  18.412  0.00  0.00    +0.000 A 
ATOM     21  C   UNL     1       1.753   9.538  17.873  0.00  0.00    +0.000 A 
ATOM     22  C   UNL     1       1.071  10.468  18.649  0.00  0.00    +0.000 A 
ATOM     23  C   UNL     1       0.731  10.166  19.966  0.00  0.00    +0.000 A 
ATOM     24  C   UNL     1       1.067   8.932  20.508  0.00  0.00    +0.000 A 
ENDBRANCH  18  19
ENDBRANCH  17  18
ENDBRANCH   4  17
TORSDOF 8
ENDMDL
MODEL 8
REMARK VINA RESULT:      -6.3      2.114      3.643
REMARK  Name = 
REMARK  9 active torsions:
REMARK  status: ('A' for Active; 'I' for Inactive)
REMARK    1  A    between atoms: C_1  and  C_2
REMARK    2  A    between atoms: C_2  and  C_3
REMARK    3  A    between atoms: N_5  and  C_6
REMARK    4  A    between atoms: N_5  and  C_9
REMARK    5  A    between atoms: C_6  and  C_7
REMARK    6  A    between atoms: C_7  and  N_8
REMARK    7  A    between atoms: N_12  and  C_13
REMARK    8  A    between atoms: C_13  and  C_14
REMARK    9  A    between atoms: C_14  and  C_15
REMARK                            x       y       z     vdW  Elec       q    Type
REMARK                         _______ _______ _______ _____ _____    ______ ____
ROOT
ATOM      1  C   UNL     1       4.220   5.182  17.442  0.00  0.00    +0.000 C 
ATOM      2  C   UNL     1       4.327   6.533  16.719  0.00  0.00    +0.000 C 
ATOM      3  C   UNL     1       3.800   7.683  17.574  0.00  0.00    +0.000 C 
ATOM      4  N   UNL     1       2.397   7.486  17.960  0.00  0.00    +0.000 NA
ATOM      5  C   UNL     1       2.219   6.190  18.629  0.00  0.00    +0.000 C 
ATOM      6  C   UNL     1       2.701   5.052  17.731  0.00  0.00    +0.000 C 
ENDROOT
BRANCH   1   9
ATOM      7  C   UNL     1       6.401   5.303  18.904  0.00  0.00    +0.000 C 
ATOM      8  O   UNL     1       6.907   5.196  20.029  0.00  0.00    +0.000 OA
ATOM      9  N   UNL     1       5.072   4.910  18.661  0.00  0.00    +0.000 N 
BRANCH   7  11
ATOM     10  C   UNL     1       7.726   7.320  17.905  0.00  0.00    +0.000 C 
ATOM     11  C   UNL     1       7.239   5.884  17.771  0.00  0.00    +0.000 C 
ENDBRANCH   7  11
BRANCH   9  12
ATOM     12  C   UNL     1       4.432   4.122  19.755  0.00  0.00    +0.000 C 
BRANCH  12  13
ATOM     13  C   UNL     1       4.716   2.599  19.744  0.00  0.00    +0.000 C 
BRANCH  13  14
ATOM     14  N   UNL     1       3.953   1.911  18.695  0.00  0.00    +0.000 NA
ATOM     15  H   UNL     1       3.047   1.629  19.068  0.00  0.00    +0.000 HD
ATOM     16  H   UNL     1       4.430   1.047  18.437  0.00  0.00    +0.000 HD
ENDBRANCH  13  14
ENDBRANCH  12  13
ENDBRANCH   9  12
ENDBRANCH   1   9
BRANCH   4  17
ATOM     17  C   UNL     1       1.954   8.566  18.865  0.00  0.00    +0.000 C 
BRANCH  17  18
ATOM     18  C   UNL     1       1.648   8.050  20.277  0.00  0.00    +0.000 C 
BRANCH  18  19
ATOM     19  C   UNL     1       0.774   9.010  21.033  0.00  0.00    +0.000 A 
ATOM     20  C   UNL     1       0.161  10.080  20.369  0.00  0.00    +0.000 A 
ATOM     21  C   UNL     1      -0.633  10.981  21.076  0.00  0.00    +0.000 A 
ATOM     22  C   UNL     1      -0.812  10.823  22.445  0.00  0.00    +0.000 A 
ATOM     23  C   UNL     1      -0.197   9.766  23.114  0.00  0.00    +0.000 A 
ATOM     24  C   UNL     1       0.594   8.864  22.415  0.00  0.00    +0.000 A 
ENDBRANCH  18  19
ENDBRANCH  17  18
ENDBRANCH   4  17
TORSDOF 8
ENDMDL
MODEL 9
REMARK VINA RESULT:      -6.2      2.229      3.628
REMARK  Name = 
REMARK  9 active torsions:
REMARK  status: ('A' for Active; 'I' for Inactive)
REMARK    1  A    between atoms: C_1  and  C_2
REMARK    2  A    between atoms: C_2  and  C_3
REMARK    3  A    between atoms: N_5  and  C_6
REMARK    4  A    between atoms: N_5  and  C_9
REMARK    5  A    between atoms: C_6  and  C_7
REMARK    6  A    between atoms: C_7  and  N_8
REMARK    7  A    between atoms: N_12  and  C_13
REMARK    8  A    between atoms: C_13  and  C_14
REMARK    9  A    between atoms: C_14  and  C_15
REMARK                            x       y       z     vdW  Elec       q    Type
REMARK                         _______ _______ _______ _____ _____    ______ ____
ROOT
ATOM      1  C   UNL     1       4.024   5.199  17.474  0.00  0.00    +0.000 C 
ATOM      2  C   UNL     1       4.204   6.565  16.793  0.00  0.00    +0.000 C 
ATOM      3  C   UNL     1       3.741   7.714  17.685  0.00  0.00    +0.000 C 
ATOM      4  N   UNL     1       2.331   7.582  18.070  0.00  0.00    +0.000 NA
ATOM      5  C   UNL     1       2.084   6.277  18.700  0.00  0.00    +0.000 C 
ATOM      6  C   UNL     1       2.501   5.143  17.765  0.00  0.00    +0.000 C 
ENDROOT
BRANCH   1   9
ATOM      7  C   UNL     1       6.230   5.093  18.899  0.00  0.00    +0.000 C 
ATOM      8  O   UNL     1       6.741   4.938  20.017  0.00  0.00    +0.000 OA
ATOM      9  N   UNL     1       4.862   4.844  18.680  0.00  0.00    +0.000 N 
BRANCH   7  11
ATOM     10  C   UNL     1       7.412   4.593  16.625  0.00  0.00    +0.000 C 
ATOM     11  C   UNL     1       7.107   5.574  17.748  0.00  0.00    +0.000 C 
ENDBRANCH   7  11
BRANCH   9  12
ATOM     12  C   UNL     1       4.160   4.135  19.790  0.00  0.00    +0.000 C 
BRANCH  12  13
ATOM     13  C   UNL     1       4.012   2.602  19.624  0.00  0.00    +0.000 C 
BRANCH  13  14
ATOM     14  N   UNL     1       5.147   1.879  20.210  0.00  0.00    +0.000 NA
ATOM     15  H   UNL     1       4.999   1.777  21.214  0.00  0.00    +0.000 HD
ATOM     16  H   UNL     1       5.995   2.436  20.109  0.00  0.00    +0.000 HD
ENDBRANCH  13  14
ENDBRANCH  12  13
ENDBRANCH   9  12
ENDBRANCH   1   9
BRANCH   4  17
ATOM     17  C   UNL     1       1.949   8.656  19.009  0.00  0.00    +0.000 C 
BRANCH  17  18
ATOM     18  C   UNL     1       1.502   8.104  20.370  0.00  0.00    +0.000 C 
BRANCH  18  19
ATOM     19  C   UNL     1       0.678   9.109  21.123  0.00  0.00    +0.000 A 
ATOM     20  C   UNL     1       0.447   8.949  22.495  0.00  0.00    +0.000 A 
ATOM     21  C   UNL     1      -0.334   9.871  23.187  0.00  0.00    +0.000 A 
ATOM     22  C   UNL     1      -0.894  10.950  22.513  0.00  0.00    +0.000 A 
ATOM     23  C   UNL     1      -0.678  11.111  21.146  0.00  0.00    +0.000 A 
ATOM     24  C   UNL     1       0.102  10.196  20.451  0.00  0.00    +0.000 A 
ENDBRANCH  18  19
ENDBRANCH  17  18
ENDBRANCH   4  17
TORSDOF 8
ENDMDL
