MODEL 1
REMARK VINA RESULT:      -8.1      0.000      0.000
REMARK  Name = 
REMARK  2 active torsions:
REMARK  status: ('A' for Active; 'I' for Inactive)
REMARK    1  A    between atoms: C_6  and  C_7
REMARK    2  A    between atoms: C_7  and  C_8
REMARK                            x       y       z     vdW  Elec       q    Type
REMARK                         _______ _______ _______ _____ _____    ______ ____
ROOT
ATOM      1  C   UNL     1       4.668   4.472  16.810  0.00  0.00    +0.000 C 
ENDROOT
BRANCH   1   2
ATOM      2  C   UNL     1       3.755   3.550  17.551  0.00  0.00    +0.000 A 
ATOM      3  C   UNL     1       3.670   2.183  17.366  0.00  0.00    +0.000 A 
ATOM      4  N   UNL     1       2.814   1.676  18.304  0.00  0.00    +0.000 N 
ATOM      5  C   UNL     1       2.324   2.687  19.096  0.00  0.00    +0.000 A 
ATOM      6  C   UNL     1       1.468   2.628  20.202  0.00  0.00    +0.000 A 
ATOM      7  C   UNL     1       1.143   3.831  20.835  0.00  0.00    +0.000 A 
ATOM      8  C   UNL     1       1.638   5.044  20.366  0.00  0.00    +0.000 A 
ATOM      9  C   UNL     1       2.492   5.085  19.259  0.00  0.00    +0.000 A 
ATOM     10  C   UNL     1       2.862   3.882  18.620  0.00  0.00    +0.000 A 
ATOM     11  H   UNL     1       2.596   0.697  18.425  0.00  0.00    +0.000 HD
ENDBRANCH   1   2
BRANCH   1  17
ATOM     12  O   UNL     1       7.514   5.475  20.155  0.00  0.00    +0.000 OA
ATOM     13  C   UNL     1       7.149   5.294  19.007  0.00  0.00    +0.000 C 
ATOM     14  N   UNL     1       7.472   6.053  17.936  0.00  0.00    +0.000 N 
ATOM     15  C   UNL     1       7.013   5.488  16.787  0.00  0.00    +0.000 C 
ATOM     16  O   UNL     1       7.285   5.897  15.669  0.00  0.00    +0.000 OA
ATOM     17  C   UNL     1       6.146   4.274  17.148  0.00  0.00    +0.000 C 
ATOM     18  N   UNL     1       6.363   4.252  18.582  0.00  0.00    +0.000 N 
ATOM     19  H   UNL     1       8.097   6.838  17.967  0.00  0.00    +0.000 HD
ATOM     20  H   UNL     1       6.072   3.523  19.223  0.00  0.00    +0.000 HD
ENDBRANCH   1  17
TORSDOF 2
ENDMDL
MODEL 2
REMARK VINA RESULT:      -8.0      1.860      2.965
REMARK  Name = 
REMARK  2 active torsions:
REMARK  status: ('A' for Active; 'I' for Inactive)
REMARK    1  A    between atoms: C_6  and  C_7
REMARK    2  A    between atoms: C_7  and  C_8
REMARK                            x       y       z     vdW  Elec       q    Type
REMARK                         _______ _______ _______ _____ _____    ______ ____
ROOT
ATOM      1  C   UNL     1       4.431   4.852  16.787  0.00  0.00    +0.000 C 
ENDROOT
BRANCH   1   2
ATOM      2  C   UNL     1       3.792   4.926  18.135  0.00  0.00    +0.000 A 
ATOM      3  C   UNL     1       4.087   5.854  19.115  0.00  0.00    +0.000 A 
ATOM      4  N   UNL     1       3.218   5.673  20.155  0.00  0.00    +0.000 N 
ATOM      5  C   UNL     1       2.362   4.633  19.882  0.00  0.00    +0.000 A 
ATOM      6  C   UNL     1       1.289   4.133  20.628  0.00  0.00    +0.000 A 
ATOM      7  C   UNL     1       0.571   3.060  20.092  0.00  0.00    +0.000 A 
ATOM      8  C   UNL     1       0.928   2.498  18.870  0.00  0.00    +0.000 A 
ATOM      9  C   UNL     1       2.003   3.010  18.137  0.00  0.00    +0.000 A 
ATOM     10  C   UNL     1       2.726   4.114  18.640  0.00  0.00    +0.000 A 
ATOM     11  H   UNL     1       3.181   6.240  20.990  0.00  0.00    +0.000 HD
ENDBRANCH   1   2
BRANCH   1  17
ATOM     12  O   UNL     1       7.817   5.360  13.860  0.00  0.00    +0.000 OA
ATOM     13  C   UNL     1       7.278   5.264  14.948  0.00  0.00    +0.000 C 
ATOM     14  N   UNL     1       7.738   4.566  16.010  0.00  0.00    +0.000 N 
ATOM     15  C   UNL     1       6.966   4.788  17.107  0.00  0.00    +0.000 C 
ATOM     16  O   UNL     1       7.240   4.389  18.228  0.00  0.00    +0.000 OA
ATOM     17  C   UNL     1       5.747   5.623  16.689  0.00  0.00    +0.000 C 
ATOM     18  N   UNL     1       6.107   5.883  15.308  0.00  0.00    +0.000 N 
ATOM     19  H   UNL     1       8.617   4.079  16.030  0.00  0.00    +0.000 HD
ATOM     20  H   UNL     1       5.636   6.517  14.673  0.00  0.00    +0.000 HD
ENDBRANCH   1  17
TORSDOF 2
ENDMDL
MODEL 3
REMARK VINA RESULT:      -8.0      1.198      1.312
REMARK  Name = 
REMARK  2 active torsions:
REMARK  status: ('A' for Active; 'I' for Inactive)
REMARK    1  A    between atoms: C_6  and  C_7
REMARK    2  A    between atoms: C_7  and  C_8
REMARK                            x       y       z     vdW  Elec       q    Type
REMARK                         _______ _______ _______ _____ _____    ______ ____
ROOT
ATOM      1  C   UNL     1       4.926   6.071  17.742  0.00  0.00    +0.000 C 
ENDROOT
BRANCH   1   2
ATOM      2  C   UNL     1       3.899   4.985  17.740  0.00  0.00    +0.000 A 
ATOM      3  C   UNL     1       3.829   3.946  16.832  0.00  0.00    +0.000 A 
ATOM      4  N   UNL     1       2.832   3.098  17.226  0.00  0.00    +0.000 N 
ATOM      5  C   UNL     1       2.235   3.566  18.372  0.00  0.00    +0.000 A 
ATOM      6  C   UNL     1       1.218   3.003  19.150  0.00  0.00    +0.000 A 
ATOM      7  C   UNL     1       0.811   3.703  20.290  0.00  0.00    +0.000 A 
ATOM      8  C   UNL     1       1.385   4.926  20.624  0.00  0.00    +0.000 A 
ATOM      9  C   UNL     1       2.402   5.474  19.834  0.00  0.00    +0.000 A 
ATOM     10  C   UNL     1       2.854   4.774  18.695  0.00  0.00    +0.000 A 
ATOM     11  H   UNL     1       2.587   2.232  16.766  0.00  0.00    +0.000 HD
ENDBRANCH   1   2
BRANCH   1  17
ATOM     12  O   UNL     1       8.212   5.184  20.693  0.00  0.00    +0.000 OA
ATOM     13  C   UNL     1       7.713   5.553  19.644  0.00  0.00    +0.000 C 
ATOM     14  N   UNL     1       8.072   6.642  18.928  0.00  0.00    +0.000 N 
ATOM     15  C   UNL     1       7.409   6.679  17.741  0.00  0.00    +0.000 C 
ATOM     16  O   UNL     1       7.647   7.480  16.850  0.00  0.00    +0.000 OA
ATOM     17  C   UNL     1       6.365   5.554  17.726  0.00  0.00    +0.000 C 
ATOM     18  N   UNL     1       6.707   4.902  18.975  0.00  0.00    +0.000 N 
ATOM     19  H   UNL     1       8.834   7.250  19.166  0.00  0.00    +0.000 HD
ATOM     20  H   UNL     1       6.346   4.017  19.311  0.00  0.00    +0.000 HD
ENDBRANCH   1  17
TORSDOF 2
ENDMDL
MODEL 4
REMARK VINA RESULT:      -7.9      1.231      1.951
REMARK  Name = 
REMARK  2 active torsions:
REMARK  status: ('A' for Active; 'I' for Inactive)
REMARK    1  A    between atoms: C_6  and  C_7
REMARK    2  A    between atoms: C_7  and  C_8
REMARK                            x       y       z     vdW  Elec       q    Type
REMARK                         _______ _______ _______ _____ _____    ______ ____
ROOT
ATOM      1  C   UNL     1       4.710   4.523  16.614  0.00  0.00    +0.000 C 
ENDROOT
BRANCH   1   2
ATOM      2  C   UNL     1       3.832   4.912  17.759  0.00  0.00    +0.000 A 
ATOM      3  C   UNL     1       3.644   6.198  18.229  0.00  0.00    +0.000 A 
ATOM      4  N   UNL     1       2.686   6.164  19.203  0.00  0.00    +0.000 N 
ATOM      5  C   UNL     1       2.247   4.875  19.393  0.00  0.00    +0.000 A 
ATOM      6  C   UNL     1       1.249   4.381  20.240  0.00  0.00    +0.000 A 
ATOM      7  C   UNL     1       1.000   3.006  20.216  0.00  0.00    +0.000 A 
ATOM      8  C   UNL     1       1.735   2.159  19.391  0.00  0.00    +0.000 A 
ATOM      9  C   UNL     1       2.729   2.670  18.550  0.00  0.00    +0.000 A 
ATOM     10  C   UNL     1       2.980   4.059  18.532  0.00  0.00    +0.000 A 
ATOM     11  H   UNL     1       2.323   6.969  19.692  0.00  0.00    +0.000 HD
ENDBRANCH   1   2
BRANCH   1  17
ATOM     12  O   UNL     1       7.415   5.421  20.102  0.00  0.00    +0.000 OA
ATOM     13  C   UNL     1       7.099   5.274  18.935  0.00  0.00    +0.000 C 
ATOM     14  N   UNL     1       7.466   6.063  17.901  0.00  0.00    +0.000 N 
ATOM     15  C   UNL     1       7.056   5.533  16.718  0.00  0.00    +0.000 C 
ATOM     16  O   UNL     1       7.374   5.974  15.624  0.00  0.00    +0.000 OA
ATOM     17  C   UNL     1       6.172   4.312  17.007  0.00  0.00    +0.000 C 
ATOM     18  N   UNL     1       6.329   4.247  18.448  0.00  0.00    +0.000 N 
ATOM     19  H   UNL     1       8.091   6.845  17.980  0.00  0.00    +0.000 HD
ATOM     20  H   UNL     1       6.011   3.501  19.054  0.00  0.00    +0.000 HD
ENDBRANCH   1  17
TORSDOF 2
ENDMDL
MODEL 5
REMARK VINA RESULT:      -7.7      1.537      2.320
REMARK  Name = 
REMARK  2 active torsions:
REMARK  status: ('A' for Active; 'I' for Inactive)
REMARK    1  A    between atoms: C_6  and  C_7
REMARK    2  A    between atoms: C_7  and  C_8
REMARK                            x       y       z     vdW  Elec       q    Type
REMARK                         _______ _______ _______ _____ _____    ______ ____
ROOT
ATOM      1  C   UNL     1       4.671   6.226  17.642  0.00  0.00    +0.000 C 
ENDROOT
BRANCH   1   2
ATOM      2  C   UNL     1       3.594   5.698  18.533  0.00  0.00    +0.000 A 
ATOM      3  C   UNL     1       2.972   6.401  19.547  0.00  0.00    +0.000 A 
ATOM      4  N   UNL     1       1.966   5.625  20.053  0.00  0.00    +0.000 N 
ATOM      5  C   UNL     1       1.923   4.418  19.398  0.00  0.00    +0.000 A 
ATOM      6  C   UNL     1       1.034   3.347  19.546  0.00  0.00    +0.000 A 
ATOM      7  C   UNL     1       1.220   2.232  18.724  0.00  0.00    +0.000 A 
ATOM      8  C   UNL     1       2.266   2.184  17.807  0.00  0.00    +0.000 A 
ATOM      9  C   UNL     1       3.145   3.264  17.672  0.00  0.00    +0.000 A 
ATOM     10  C   UNL     1       2.961   4.415  18.468  0.00  0.00    +0.000 A 
ATOM     11  H   UNL     1       1.323   5.906  20.779  0.00  0.00    +0.000 HD
ENDBRANCH   1   2
BRANCH   1  17
ATOM     12  O   UNL     1       7.914   5.360  20.647  0.00  0.00    +0.000 OA
ATOM     13  C   UNL     1       7.426   5.579  19.552  0.00  0.00    +0.000 C 
ATOM     14  N   UNL     1       7.943   6.377  18.592  0.00  0.00    +0.000 N 
ATOM     15  C   UNL     1       7.219   6.283  17.444  0.00  0.00    +0.000 C 
ATOM     16  O   UNL     1       7.549   6.794  16.385  0.00  0.00    +0.000 OA
ATOM     17  C   UNL     1       5.974   5.429  17.717  0.00  0.00    +0.000 C 
ATOM     18  N   UNL     1       6.267   5.019  19.077  0.00  0.00    +0.000 N 
ATOM     19  H   UNL     1       8.826   6.849  18.663  0.00  0.00    +0.000 HD
ATOM     20  H   UNL     1       5.761   4.329  19.619  0.00  0.00    +0.000 HD
ENDBRANCH   1  17
TORSDOF 2
ENDMDL
MODEL 6
REMARK VINA RESULT:      -7.7      3.118      6.032
REMARK  Name = 
REMARK  2 active torsions:
REMARK  status: ('A' for Active; 'I' for Inactive)
REMARK    1  A    between atoms: C_6  and  C_7
REMARK    2  A    between atoms: C_7  and  C_8
REMARK                            x       y       z     vdW  Elec       q    Type
REMARK                         _______ _______ _______ _____ _____    ______ ____
ROOT
ATOM      1  C   UNL     1       4.487   4.204  16.650  0.00  0.00    +0.000 C 
ENDROOT
BRANCH   1   2
ATOM      2  C   UNL     1       5.609   4.714  15.805  0.00  0.00    +0.000 A 
ATOM      3  C   UNL     1       6.629   5.541  16.236  0.00  0.00    +0.000 A 
ATOM      4  N   UNL     1       7.522   5.691  15.211  0.00  0.00    +0.000 N 
ATOM      5  C   UNL     1       7.101   4.987  14.108  0.00  0.00    +0.000 A 
ATOM      6  C   UNL     1       7.718   4.814  12.864  0.00  0.00    +0.000 A 
ATOM      7  C   UNL     1       7.060   4.022  11.919  0.00  0.00    +0.000 A 
ATOM      8  C   UNL     1       5.825   3.446  12.201  0.00  0.00    +0.000 A 
ATOM      9  C   UNL     1       5.222   3.630  13.450  0.00  0.00    +0.000 A 
ATOM     10  C   UNL     1       5.880   4.399  14.435  0.00  0.00    +0.000 A 
ATOM     11  H   UNL     1       8.384   6.213  15.262  0.00  0.00    +0.000 HD
ENDBRANCH   1   2
BRANCH   1  17
ATOM     12  O   UNL     1       4.917   1.842  20.461  0.00  0.00    +0.000 OA
ATOM     13  C   UNL     1       4.565   2.761  19.743  0.00  0.00    +0.000 C 
ATOM     14  N   UNL     1       3.360   3.373  19.759  0.00  0.00    +0.000 N 
ATOM     15  C   UNL     1       3.354   4.449  18.928  0.00  0.00    +0.000 C 
ATOM     16  O   UNL     1       2.437   5.254  18.859  0.00  0.00    +0.000 OA
ATOM     17  C   UNL     1       4.673   4.472  18.143  0.00  0.00    +0.000 C 
ATOM     18  N   UNL     1       5.352   3.371  18.799  0.00  0.00    +0.000 N 
ATOM     19  H   UNL     1       2.626   3.160  20.410  0.00  0.00    +0.000 HD
ATOM     20  H   UNL     1       6.323   3.107  18.680  0.00  0.00    +0.000 HD
ENDBRANCH   1  17
TORSDOF 2
ENDMDL
MODEL 7
REMARK VINA RESULT:      -7.7      2.079      3.172
REMARK  Name = 
REMARK  2 active torsions:
REMARK  status: ('A' for Active; 'I' for Inactive)
REMARK    1  A    between atoms: C_6  and  C_7
REMARK    2  A    between atoms: C_7  and  C_8
REMARK                            x       y       z     vdW  Elec       q    Type
REMARK                         _______ _______ _______ _____ _____    ______ ____
ROOT
ATOM      1  C   UNL     1       5.470   4.035  17.423  0.00  0.00    +0.000 C 
ENDROOT
BRANCH   1   2
ATOM      2  C   UNL     1       4.483   4.421  18.476  0.00  0.00    +0.000 A 
ATOM      3  C   UNL     1       4.559   5.544  19.277  0.00  0.00    +0.000 A 
ATOM      4  N   UNL     1       3.418   5.612  20.029  0.00  0.00    +0.000 N 
ATOM      5  C   UNL     1       2.597   4.547  19.745  0.00  0.00    +0.000 A 
ATOM      6  C   UNL     1       1.322   4.241  20.232  0.00  0.00    +0.000 A 
ATOM      7  C   UNL     1       0.705   3.083  19.751  0.00  0.00    +0.000 A 
ATOM      8  C   UNL     1       1.350   2.254  18.837  0.00  0.00    +0.000 A 
ATOM      9  C   UNL     1       2.625   2.576  18.361  0.00  0.00    +0.000 A 
ATOM     10  C   UNL     1       3.258   3.756  18.806  0.00  0.00    +0.000 A 
ATOM     11  H   UNL     1       3.190   6.354  20.675  0.00  0.00    +0.000 HD
ENDBRANCH   1   2
BRANCH   1  17
ATOM     12  O   UNL     1       6.536   3.916  13.048  0.00  0.00    +0.000 OA
ATOM     13  C   UNL     1       6.438   4.386  14.168  0.00  0.00    +0.000 C 
ATOM     14  N   UNL     1       7.371   5.125  14.810  0.00  0.00    +0.000 N 
ATOM     15  C   UNL     1       6.881   5.607  15.983  0.00  0.00    +0.000 C 
ATOM     16  O   UNL     1       7.469   6.412  16.689  0.00  0.00    +0.000 OA
ATOM     17  C   UNL     1       5.497   4.991  16.229  0.00  0.00    +0.000 C 
ATOM     18  N   UNL     1       5.335   4.277  14.977  0.00  0.00    +0.000 N 
ATOM     19  H   UNL     1       8.244   5.409  14.404  0.00  0.00    +0.000 HD
ATOM     20  H   UNL     1       4.492   3.821  14.649  0.00  0.00    +0.000 HD
ENDBRANCH   1  17
TORSDOF 2
ENDMDL
MODEL 8
REMARK VINA RESULT:      -7.6      2.804      4.036
REMARK  Name = 
REMARK  2 active torsions:
REMARK  status: ('A' for Active; 'I' for Inactive)
REMARK    1  A    between atoms: C_6  and  C_7
REMARK    2  A    between atoms: C_7  and  C_8
REMARK                            x       y       z     vdW  Elec       q    Type
REMARK                         _______ _______ _______ _____ _____    ______ ____
ROOT
ATOM      1  C   UNL     1       3.979   5.657  17.394  0.00  0.00    +0.000 C 
ENDROOT
BRANCH   1   2
ATOM      2  C   UNL     1       3.165   6.171  18.537  0.00  0.00    +0.000 A 
ATOM      3  C   UNL     1       3.023   5.554  19.765  0.00  0.00    +0.000 A 
ATOM      4  N   UNL     1       2.303   6.382  20.581  0.00  0.00    +0.000 N 
ATOM      5  C   UNL     1       1.959   7.530  19.908  0.00  0.00    +0.000 A 
ATOM      6  C   UNL     1       1.275   8.665  20.359  0.00  0.00    +0.000 A 
ATOM      7  C   UNL     1       1.074   9.705  19.447  0.00  0.00    +0.000 A 
ATOM      8  C   UNL     1       1.521   9.603  18.132  0.00  0.00    +0.000 A 
ATOM      9  C   UNL     1       2.203   8.461  17.699  0.00  0.00    +0.000 A 
ATOM     10  C   UNL     1       2.447   7.408  18.608  0.00  0.00    +0.000 A 
ATOM     11  H   UNL     1       2.084   6.199  21.550  0.00  0.00    +0.000 HD
ENDBRANCH   1   2
BRANCH   1  17
ATOM     12  O   UNL     1       7.711   5.240  14.907  0.00  0.00    +0.000 OA
ATOM     13  C   UNL     1       7.029   5.249  15.917  0.00  0.00    +0.000 C 
ATOM     14  N   UNL     1       7.103   4.369  16.940  0.00  0.00    +0.000 N 
ATOM     15  C   UNL     1       6.300   4.755  17.967  0.00  0.00    +0.000 C 
ATOM     16  O   UNL     1       6.284   4.213  19.062  0.00  0.00    +0.000 OA
ATOM     17  C   UNL     1       5.471   5.965  17.517  0.00  0.00    +0.000 C 
ATOM     18  N   UNL     1       6.074   6.188  16.216  0.00  0.00    +0.000 N 
ATOM     19  H   UNL     1       7.774   3.624  16.998  0.00  0.00    +0.000 HD
ATOM     20  H   UNL     1       5.915   6.982  15.608  0.00  0.00    +0.000 HD
ENDBRANCH   1  17
TORSDOF 2
ENDMDL
MODEL 9
REMARK VINA RESULT:      -7.6      1.059      1.111
REMARK  Name = 
REMARK  2 active torsions:
REMARK  status: ('A' for Active; 'I' for Inactive)
REMARK    1  A    between atoms: C_6  and  C_7
REMARK    2  A    between atoms: C_7  and  C_8
REMARK                            x       y       z     vdW  Elec       q    Type
REMARK                         _______ _______ _______ _____ _____    ______ ____
ROOT
ATOM      1  C   UNL     1       4.431   4.432  16.746  0.00  0.00    +0.000 C 
ENDROOT
BRANCH   1   2
ATOM      2  C   UNL     1       3.637   3.484  17.585  0.00  0.00    +0.000 A 
ATOM      3  C   UNL     1       3.633   2.108  17.459  0.00  0.00    +0.000 A 
ATOM      4  N   UNL     1       2.880   1.586  18.474  0.00  0.00    +0.000 N 
ATOM      5  C   UNL     1       2.377   2.596  19.260  0.00  0.00    +0.000 A 
ATOM      6  C   UNL     1       1.605   2.528  20.425  0.00  0.00    +0.000 A 
ATOM      7  C   UNL     1       1.241   3.733  21.033  0.00  0.00    +0.000 A 
ATOM      8  C   UNL     1       1.618   4.955  20.483  0.00  0.00    +0.000 A 
ATOM      9  C   UNL     1       2.390   5.004  19.318  0.00  0.00    +0.000 A 
ATOM     10  C   UNL     1       2.797   3.802  18.701  0.00  0.00    +0.000 A 
ATOM     11  H   UNL     1       2.739   0.601  18.648  0.00  0.00    +0.000 HD
ENDBRANCH   1   2
BRANCH   1  17
ATOM     12  O   UNL     1       7.771   7.148  18.072  0.00  0.00    +0.000 OA
ATOM     13  C   UNL     1       7.233   6.253  17.445  0.00  0.00    +0.000 C 
ATOM     14  N   UNL     1       7.407   5.979  16.133  0.00  0.00    +0.000 N 
ATOM     15  C   UNL     1       6.768   4.828  15.791  0.00  0.00    +0.000 C 
ATOM     16  O   UNL     1       6.877   4.284  14.702  0.00  0.00    +0.000 OA
ATOM     17  C   UNL     1       5.938   4.351  16.990  0.00  0.00    +0.000 C 
ATOM     18  N   UNL     1       6.368   5.327  17.973  0.00  0.00    +0.000 N 
ATOM     19  H   UNL     1       8.047   6.467  15.533  0.00  0.00    +0.000 HD
ATOM     20  H   UNL     1       6.162   5.313  18.965  0.00  0.00    +0.000 HD
ENDBRANCH   1  17
TORSDOF 2
ENDMDL
