MODEL 1
REMARK VINA RESULT:      -7.0      0.000      0.000
REMARK  Name = 
REMARK  4 active torsions:
REMARK  status: ('A' for Active; 'I' for Inactive)
REMARK    1  A    between atoms: N_1  and  C_2
REMARK    2  A    between atoms: C_8  and  C_9
REMARK    3  A    between atoms: C_10  and  C_11
REMARK    4  A    between atoms: N_13  and  O_14
REMARK                            x       y       z     vdW  Elec       q    Type
REMARK                         _______ _______ _______ _____ _____    ______ ____
ROOT
ATOM      1  C   UNL     1       4.630   3.779  18.725  0.00  0.00    +0.000 A 
ATOM      2  C   UNL     1       3.760   3.380  19.754  0.00  0.00    +0.000 A 
ATOM      3  C   UNL     1       2.415   3.135  19.490  0.00  0.00    +0.000 A 
ATOM      4 CL   UNL     1       1.390   2.558  20.746  0.00  0.00    +0.000 Cl
ATOM      5  C   UNL     1       1.901   3.336  18.216  0.00  0.00    +0.000 A 
ATOM      6  C   UNL     1       2.743   3.790  17.196  0.00  0.00    +0.000 A 
ATOM      7  C   UNL     1       4.110   4.037  17.433  0.00  0.00    +0.000 A 
ENDROOT
BRANCH   1   8
ATOM      8  N   UNL     1       5.986   3.995  19.052  0.00  0.00    +0.000 N 
ATOM      9  H   UNL     1       6.633   3.733  18.313  0.00  0.00    +0.000 HD
ATOM     10  H   UNL     1       6.137   4.957  19.348  0.00  0.00    +0.000 HD
ENDBRANCH   1   8
BRANCH   7  11
ATOM     11  C   UNL     1       4.912   4.479  16.270  0.00  0.00    +0.000 C 
ATOM     12  C   UNL     1       5.825   3.730  15.643  0.00  0.00    +0.000 C 
BRANCH  12  13
ATOM     13  C   UNL     1       6.563   4.253  14.458  0.00  0.00    +0.000 C 
ATOM     14  O   UNL     1       6.388   3.852  13.311  0.00  0.00    +0.000 OA
ATOM     15  N   UNL     1       7.485   5.215  14.787  0.00  0.00    +0.000 N 
ATOM     16  H   UNL     1       7.688   5.538  15.726  0.00  0.00    +0.000 HD
BRANCH  15  17
ATOM     17  O   UNL     1       8.278   5.736  13.741  0.00  0.00    +0.000 OA
ATOM     18  H   UNL     1       7.708   6.453  13.384  0.00  0.00    +0.000 HD
ENDBRANCH  15  17
ENDBRANCH  12  13
ENDBRANCH   7  11
TORSDOF 4
ENDMDL
MODEL 2
REMARK VINA RESULT:      -6.7      0.974      1.319
REMARK  Name = 
REMARK  4 active torsions:
REMARK  status: ('A' for Active; 'I' for Inactive)
REMARK    1  A    between atoms: N_1  and  C_2
REMARK    2  A    between atoms: C_8  and  C_9
REMARK    3  A    between atoms: C_10  and  C_11
REMARK    4  A    between atoms: N_13  and  O_14
REMARK                            x       y       z     vdW  Elec       q    Type
REMARK                         _______ _______ _______ _____ _____    ______ ____
ROOT
ATOM      1  C   UNL     1       4.530   3.867  18.710  0.00  0.00    +0.000 A 
ATOM      2  C   UNL     1       3.552   3.963  19.715  0.00  0.00    +0.000 A 
ATOM      3  C   UNL     1       2.199   3.886  19.398  0.00  0.00    +0.000 A 
ATOM      4 CL   UNL     1       1.025   3.913  20.656  0.00  0.00    +0.000 Cl
ATOM      5  C   UNL     1       1.792   3.772  18.075  0.00  0.00    +0.000 A 
ATOM      6  C   UNL     1       2.753   3.735  17.059  0.00  0.00    +0.000 A 
ATOM      7  C   UNL     1       4.129   3.801  17.352  0.00  0.00    +0.000 A 
ENDROOT
BRANCH   1   8
ATOM      8  N   UNL     1       5.885   3.934  19.096  0.00  0.00    +0.000 N 
ATOM      9  H   UNL     1       6.033   4.377  20.000  0.00  0.00    +0.000 HD
ATOM     10  H   UNL     1       6.317   3.014  19.064  0.00  0.00    +0.000 HD
ENDBRANCH   1   8
BRANCH   7  11
ATOM     11  C   UNL     1       5.054   3.717  16.200  0.00  0.00    +0.000 C 
ATOM     12  C   UNL     1       5.589   4.770  15.572  0.00  0.00    +0.000 C 
BRANCH  12  13
ATOM     13  C   UNL     1       6.538   4.584  14.437  0.00  0.00    +0.000 C 
ATOM     14  O   UNL     1       7.524   5.290  14.246  0.00  0.00    +0.000 OA
ATOM     15  N   UNL     1       6.179   3.552  13.606  0.00  0.00    +0.000 N 
ATOM     16  H   UNL     1       5.351   2.978  13.707  0.00  0.00    +0.000 HD
BRANCH  15  17
ATOM     17  O   UNL     1       6.983   3.329  12.467  0.00  0.00    +0.000 OA
ATOM     18  H   UNL     1       6.323   3.038  11.800  0.00  0.00    +0.000 HD
ENDBRANCH  15  17
ENDBRANCH  12  13
ENDBRANCH   7  11
TORSDOF 4
ENDMDL
MODEL 3
REMARK VINA RESULT:      -6.6      1.369      1.451
REMARK  Name = 
REMARK  4 active torsions:
REMARK  status: ('A' for Active; 'I' for Inactive)
REMARK    1  A    between atoms: N_1  and  C_2
REMARK    2  A    between atoms: C_8  and  C_9
REMARK    3  A    between atoms: C_10  and  C_11
REMARK    4  A    between atoms: N_13  and  O_14
REMARK                            x       y       z     vdW  Elec       q    Type
REMARK                         _______ _______ _______ _____ _____    ______ ____
ROOT
ATOM      1  C   UNL     1       3.606   2.675  18.059  0.00  0.00    +0.000 A 
ATOM      2  C   UNL     1       2.614   2.830  19.041  0.00  0.00    +0.000 A 
ATOM      3  C   UNL     1       2.034   4.074  19.274  0.00  0.00    +0.000 A 
ATOM      4 CL   UNL     1       0.756   4.220  20.417  0.00  0.00    +0.000 Cl
ATOM      5  C   UNL     1       2.470   5.194  18.577  0.00  0.00    +0.000 A 
ATOM      6  C   UNL     1       3.499   5.064  17.639  0.00  0.00    +0.000 A 
ATOM      7  C   UNL     1       4.096   3.816  17.377  0.00  0.00    +0.000 A 
ENDROOT
BRANCH   1   8
ATOM      8  N   UNL     1       4.143   1.385  17.858  0.00  0.00    +0.000 N 
ATOM      9  H   UNL     1       4.176   1.102  16.882  0.00  0.00    +0.000 HD
ATOM     10  H   UNL     1       5.058   1.302  18.295  0.00  0.00    +0.000 HD
ENDBRANCH   1   8
BRANCH   7  11
ATOM     11  C   UNL     1       5.150   3.794  16.338  0.00  0.00    +0.000 C 
ATOM     12  C   UNL     1       5.253   4.674  15.336  0.00  0.00    +0.000 C 
BRANCH  12  13
ATOM     13  C   UNL     1       6.371   4.588  14.353  0.00  0.00    +0.000 C 
ATOM     14  O   UNL     1       6.432   3.751  13.457  0.00  0.00    +0.000 OA
ATOM     15  N   UNL     1       7.346   5.529  14.571  0.00  0.00    +0.000 N 
ATOM     16  H   UNL     1       7.352   6.206  15.325  0.00  0.00    +0.000 HD
BRANCH  15  17
ATOM     17  O   UNL     1       8.478   5.496  13.727  0.00  0.00    +0.000 OA
ATOM     18  H   UNL     1       8.292   6.231  13.101  0.00  0.00    +0.000 HD
ENDBRANCH  15  17
ENDBRANCH  12  13
ENDBRANCH   7  11
TORSDOF 4
ENDMDL
MODEL 4
REMARK VINA RESULT:      -6.5      1.778      1.866
REMARK  Name = 
REMARK  4 active torsions:
REMARK  status: ('A' for Active; 'I' for Inactive)
REMARK    1  A    between atoms: N_1  and  C_2
REMARK    2  A    between atoms: C_8  and  C_9
REMARK    3  A    between atoms: C_10  and  C_11
REMARK    4  A    between atoms: N_13  and  O_14
REMARK                            x       y       z     vdW  Elec       q    Type
REMARK                         _______ _______ _______ _____ _____    ______ ____
ROOT
ATOM      1  C   UNL     1       4.679   4.662  18.671  0.00  0.00    +0.000 A 
ATOM      2  C   UNL     1       3.743   4.855  19.701  0.00  0.00    +0.000 A 
ATOM      3  C   UNL     1       2.767   5.842  19.596  0.00  0.00    +0.000 A 
ATOM      4 CL   UNL     1       1.575   5.998  20.827  0.00  0.00    +0.000 Cl
ATOM      5  C   UNL     1       2.739   6.690  18.496  0.00  0.00    +0.000 A 
ATOM      6  C   UNL     1       3.702   6.547  17.492  0.00  0.00    +0.000 A 
ATOM      7  C   UNL     1       4.695   5.551  17.568  0.00  0.00    +0.000 A 
ENDROOT
BRANCH   1   8
ATOM      8  N   UNL     1       5.633   3.634  18.828  0.00  0.00    +0.000 N 
ATOM      9  H   UNL     1       5.685   3.264  19.773  0.00  0.00    +0.000 HD
ATOM     10  H   UNL     1       5.478   2.891  18.151  0.00  0.00    +0.000 HD
ENDBRANCH   1   8
BRANCH   7  11
ATOM     11  C   UNL     1       5.638   5.471  16.430  0.00  0.00    +0.000 C 
ATOM     12  C   UNL     1       5.559   4.582  15.434  0.00  0.00    +0.000 C 
BRANCH  12  13
ATOM     13  C   UNL     1       6.540   4.599  14.312  0.00  0.00    +0.000 C 
ATOM     14  O   UNL     1       6.474   3.861  13.333  0.00  0.00    +0.000 OA
ATOM     15  N   UNL     1       7.548   5.511  14.500  0.00  0.00    +0.000 N 
ATOM     16  H   UNL     1       7.660   6.104  15.314  0.00  0.00    +0.000 HD
BRANCH  15  17
ATOM     17  O   UNL     1       8.563   5.566  13.518  0.00  0.00    +0.000 OA
ATOM     18  H   UNL     1       9.333   5.185  13.994  0.00  0.00    +0.000 HD
ENDBRANCH  15  17
ENDBRANCH  12  13
ENDBRANCH   7  11
TORSDOF 4
ENDMDL
MODEL 5
REMARK VINA RESULT:      -6.5      1.477      1.571
REMARK  Name = 
REMARK  4 active torsions:
REMARK  status: ('A' for Active; 'I' for Inactive)
REMARK    1  A    between atoms: N_1  and  C_2
REMARK    2  A    between atoms: C_8  and  C_9
REMARK    3  A    between atoms: C_10  and  C_11
REMARK    4  A    between atoms: N_13  and  O_14
REMARK                            x       y       z     vdW  Elec       q    Type
REMARK                         _______ _______ _______ _____ _____    ______ ____
ROOT
ATOM      1  C   UNL     1       3.295   5.714  17.984  0.00  0.00    +0.000 A 
ATOM      2  C   UNL     1       2.374   5.345  18.978  0.00  0.00    +0.000 A 
ATOM      3  C   UNL     1       2.102   4.003  19.232  0.00  0.00    +0.000 A 
ATOM      4 CL   UNL     1       1.041   3.576  20.517  0.00  0.00    +0.000 Cl
ATOM      5  C   UNL     1       2.696   3.009  18.466  0.00  0.00    +0.000 A 
ATOM      6  C   UNL     1       3.570   3.364  17.433  0.00  0.00    +0.000 A 
ATOM      7  C   UNL     1       3.870   4.713  17.161  0.00  0.00    +0.000 A 
ENDROOT
BRANCH   1   8
ATOM      8  N   UNL     1       3.541   7.089  17.785  0.00  0.00    +0.000 N 
ATOM      9  H   UNL     1       3.729   7.600  18.644  0.00  0.00    +0.000 HD
ATOM     10  H   UNL     1       4.283   7.229  17.104  0.00  0.00    +0.000 HD
ENDBRANCH   1   8
BRANCH   7  11
ATOM     11  C   UNL     1       4.835   4.967  16.069  0.00  0.00    +0.000 C 
ATOM     12  C   UNL     1       5.641   4.045  15.531  0.00  0.00    +0.000 C 
BRANCH  12  13
ATOM     13  C   UNL     1       6.560   4.390  14.410  0.00  0.00    +0.000 C 
ATOM     14  O   UNL     1       6.540   3.839  13.313  0.00  0.00    +0.000 OA
ATOM     15  N   UNL     1       7.458   5.374  14.741  0.00  0.00    +0.000 N 
ATOM     16  H   UNL     1       7.535   5.818  15.648  0.00  0.00    +0.000 HD
BRANCH  15  17
ATOM     17  O   UNL     1       8.413   5.735  13.765  0.00  0.00    +0.000 OA
ATOM     18  H   UNL     1       8.458   4.925  13.209  0.00  0.00    +0.000 HD
ENDBRANCH  15  17
ENDBRANCH  12  13
ENDBRANCH   7  11
TORSDOF 4
ENDMDL
MODEL 6
REMARK VINA RESULT:      -6.4      1.383      1.588
REMARK  Name = 
REMARK  4 active torsions:
REMARK  status: ('A' for Active; 'I' for Inactive)
REMARK    1  A    between atoms: N_1  and  C_2
REMARK    2  A    between atoms: C_8  and  C_9
REMARK    3  A    between atoms: C_10  and  C_11
REMARK    4  A    between atoms: N_13  and  O_14
REMARK                            x       y       z     vdW  Elec       q    Type
REMARK                         _______ _______ _______ _____ _____    ______ ____
ROOT
ATOM      1  C   UNL     1       4.059   3.386  19.241  0.00  0.00    +0.000 A 
ATOM      2  C   UNL     1       3.304   2.986  20.356  0.00  0.00    +0.000 A 
ATOM      3  C   UNL     1       1.942   3.264  20.427  0.00  0.00    +0.000 A 
ATOM      4 CL   UNL     1       1.020   2.683  21.759  0.00  0.00    +0.000 Cl
ATOM      5  C   UNL     1       1.320   3.994  19.422  0.00  0.00    +0.000 A 
ATOM      6  C   UNL     1       2.072   4.450  18.335  0.00  0.00    +0.000 A 
ATOM      7  C   UNL     1       3.450   4.174  18.232  0.00  0.00    +0.000 A 
ENDROOT
BRANCH   1   8
ATOM      8  N   UNL     1       5.432   3.059  19.219  0.00  0.00    +0.000 N 
ATOM      9  H   UNL     1       5.665   2.315  18.567  0.00  0.00    +0.000 HD
ATOM     10  H   UNL     1       5.998   3.886  19.049  0.00  0.00    +0.000 HD
ENDBRANCH   1   8
BRANCH   7  11
ATOM     11  C   UNL     1       4.135   4.675  17.021  0.00  0.00    +0.000 C 
ATOM     12  C   UNL     1       5.204   5.480  17.026  0.00  0.00    +0.000 C 
BRANCH  12  13
ATOM     13  C   UNL     1       5.847   5.908  15.750  0.00  0.00    +0.000 C 
ATOM     14  O   UNL     1       5.339   6.697  14.959  0.00  0.00    +0.000 OA
ATOM     15  N   UNL     1       7.060   5.303  15.536  0.00  0.00    +0.000 N 
ATOM     16  H   UNL     1       7.489   4.615  16.143  0.00  0.00    +0.000 HD
BRANCH  15  17
ATOM     17  O   UNL     1       7.726   5.599  14.326  0.00  0.00    +0.000 OA
ATOM     18  H   UNL     1       8.129   4.733  14.093  0.00  0.00    +0.000 HD
ENDBRANCH  15  17
ENDBRANCH  12  13
ENDBRANCH   7  11
TORSDOF 4
ENDMDL
MODEL 7
REMARK VINA RESULT:      -6.3      1.712      2.033
REMARK  Name = 
REMARK  4 active torsions:
REMARK  status: ('A' for Active; 'I' for Inactive)
REMARK    1  A    between atoms: N_1  and  C_2
REMARK    2  A    between atoms: C_8  and  C_9
REMARK    3  A    between atoms: C_10  and  C_11
REMARK    4  A    between atoms: N_13  and  O_14
REMARK                            x       y       z     vdW  Elec       q    Type
REMARK                         _______ _______ _______ _____ _____    ______ ____
ROOT
ATOM      1  C   UNL     1       3.719   3.363  18.082  0.00  0.00    +0.000 A 
ATOM      2  C   UNL     1       3.003   3.673  19.251  0.00  0.00    +0.000 A 
ATOM      3  C   UNL     1       2.628   4.985  19.527  0.00  0.00    +0.000 A 
ATOM      4 CL   UNL     1       1.672   5.325  20.917  0.00  0.00    +0.000 Cl
ATOM      5  C   UNL     1       3.006   6.017  18.678  0.00  0.00    +0.000 A 
ATOM      6  C   UNL     1       3.770   5.731  17.542  0.00  0.00    +0.000 A 
ATOM      7  C   UNL     1       4.155   4.411  17.234  0.00  0.00    +0.000 A 
ENDROOT
BRANCH   1   8
ATOM      8  N   UNL     1       4.055   2.013  17.850  0.00  0.00    +0.000 N 
ATOM      9  H   UNL     1       4.975   1.754  18.195  0.00  0.00    +0.000 HD
ATOM     10  H   UNL     1       3.337   1.393  18.218  0.00  0.00    +0.000 HD
ENDBRANCH   1   8
BRANCH   7  11
ATOM     11  C   UNL     1       4.930   4.224  15.987  0.00  0.00    +0.000 C 
ATOM     12  C   UNL     1       6.015   4.930  15.649  0.00  0.00    +0.000 C 
BRANCH  12  13
ATOM     13  C   UNL     1       6.750   4.646  14.383  0.00  0.00    +0.000 C 
ATOM     14  O   UNL     1       7.695   5.315  13.975  0.00  0.00    +0.000 OA
ATOM     15  N   UNL     1       6.239   3.570  13.701  0.00  0.00    +0.000 N 
ATOM     16  H   UNL     1       5.434   3.023  13.983  0.00  0.00    +0.000 HD
BRANCH  15  17
ATOM     17  O   UNL     1       6.830   3.253  12.458  0.00  0.00    +0.000 OA
ATOM     18  H   UNL     1       7.643   2.772  12.730  0.00  0.00    +0.000 HD
ENDBRANCH  15  17
ENDBRANCH  12  13
ENDBRANCH   7  11
TORSDOF 4
ENDMDL
MODEL 8
REMARK VINA RESULT:      -6.3      1.866      2.096
REMARK  Name = 
REMARK  4 active torsions:
REMARK  status: ('A' for Active; 'I' for Inactive)
REMARK    1  A    between atoms: N_1  and  C_2
REMARK    2  A    between atoms: C_8  and  C_9
REMARK    3  A    between atoms: C_10  and  C_11
REMARK    4  A    between atoms: N_13  and  O_14
REMARK                            x       y       z     vdW  Elec       q    Type
REMARK                         _______ _______ _______ _____ _____    ______ ____
ROOT
ATOM      1  C   UNL     1       2.875   5.099  17.895  0.00  0.00    +0.000 A 
ATOM      2  C   UNL     1       1.730   4.391  18.297  0.00  0.00    +0.000 A 
ATOM      3  C   UNL     1       1.721   2.999  18.299  0.00  0.00    +0.000 A 
ATOM      4 CL   UNL     1       0.340   2.155  18.883  0.00  0.00    +0.000 Cl
ATOM      5  C   UNL     1       2.826   2.289  17.849  0.00  0.00    +0.000 A 
ATOM      6  C   UNL     1       3.951   2.981  17.391  0.00  0.00    +0.000 A 
ATOM      7  C   UNL     1       3.991   4.389  17.386  0.00  0.00    +0.000 A 
ENDROOT
BRANCH   1   8
ATOM      8  N   UNL     1       2.828   6.509  17.932  0.00  0.00    +0.000 N 
ATOM      9  H   UNL     1       2.663   6.938  17.025  0.00  0.00    +0.000 HD
ATOM     10  H   UNL     1       2.150   6.831  18.618  0.00  0.00    +0.000 HD
ENDBRANCH   1   8
BRANCH   7  11
ATOM     11  C   UNL     1       5.247   5.013  16.913  0.00  0.00    +0.000 C 
ATOM     12  C   UNL     1       5.813   4.782  15.724  0.00  0.00    +0.000 C 
BRANCH  12  13
ATOM     13  C   UNL     1       7.066   5.483  15.322  0.00  0.00    +0.000 C 
ATOM     14  O   UNL     1       7.695   6.238  16.059  0.00  0.00    +0.000 OA
ATOM     15  N   UNL     1       7.432   5.221  14.026  0.00  0.00    +0.000 N 
ATOM     16  H   UNL     1       6.914   4.641  13.375  0.00  0.00    +0.000 HD
BRANCH  15  17
ATOM     17  O   UNL     1       8.576   5.883  13.529  0.00  0.00    +0.000 OA
ATOM     18  H   UNL     1       9.177   5.134  13.323  0.00  0.00    +0.000 HD
ENDBRANCH  15  17
ENDBRANCH  12  13
ENDBRANCH   7  11
TORSDOF 4
ENDMDL
MODEL 9
REMARK VINA RESULT:      -6.3      1.309      1.625
REMARK  Name = 
REMARK  4 active torsions:
REMARK  status: ('A' for Active; 'I' for Inactive)
REMARK    1  A    between atoms: N_1  and  C_2
REMARK    2  A    between atoms: C_8  and  C_9
REMARK    3  A    between atoms: C_10  and  C_11
REMARK    4  A    between atoms: N_13  and  O_14
REMARK                            x       y       z     vdW  Elec       q    Type
REMARK                         _______ _______ _______ _____ _____    ______ ____
ROOT
ATOM      1  C   UNL     1       4.029   3.064  19.090  0.00  0.00    +0.000 A 
ATOM      2  C   UNL     1       2.789   2.789  19.692  0.00  0.00    +0.000 A 
ATOM      3  C   UNL     1       1.611   3.301  19.154  0.00  0.00    +0.000 A 
ATOM      4 CL   UNL     1       0.098   2.874  19.854  0.00  0.00    +0.000 Cl
ATOM      5  C   UNL     1       1.649   4.139  18.047  0.00  0.00    +0.000 A 
ATOM      6  C   UNL     1       2.882   4.468  17.474  0.00  0.00    +0.000 A 
ATOM      7  C   UNL     1       4.088   3.958  17.992  0.00  0.00    +0.000 A 
ENDROOT
BRANCH   1   8
ATOM      8  N   UNL     1       5.186   2.503  19.672  0.00  0.00    +0.000 N 
ATOM      9  H   UNL     1       6.014   3.085  19.583  0.00  0.00    +0.000 HD
ATOM     10  H   UNL     1       5.017   2.252  20.643  0.00  0.00    +0.000 HD
ENDBRANCH   1   8
BRANCH   7  11
ATOM     11  C   UNL     1       5.328   4.345  17.283  0.00  0.00    +0.000 C 
ATOM     12  C   UNL     1       5.437   5.387  16.450  0.00  0.00    +0.000 C 
BRANCH  12  13
ATOM     13  C   UNL     1       6.740   5.718  15.805  0.00  0.00    +0.000 C 
ATOM     14  O   UNL     1       7.628   6.367  16.349  0.00  0.00    +0.000 OA
ATOM     15  N   UNL     1       6.833   5.244  14.520  0.00  0.00    +0.000 N 
ATOM     16  H   UNL     1       6.104   4.745  14.023  0.00  0.00    +0.000 HD
BRANCH  15  17
ATOM     17  O   UNL     1       8.007   5.554  13.799  0.00  0.00    +0.000 OA
ATOM     18  H   UNL     1       8.621   5.837  14.513  0.00  0.00    +0.000 HD
ENDBRANCH  15  17
ENDBRANCH  12  13
ENDBRANCH   7  11
TORSDOF 4
ENDMDL
