MODEL 1
REMARK VINA RESULT:      -6.9      0.000      0.000
REMARK  Name = 
REMARK  8 active torsions:
REMARK  status: ('A' for Active; 'I' for Inactive)
REMARK    1  A    between atoms: C_1  and  C_2
REMARK    2  A    between atoms: C_2  and  C_3
REMARK    3  A    between atoms: C_3  and  C_4
REMARK    4  A    between atoms: C_4  and  C_5
REMARK    5  A    between atoms: C_5  and  C_6
REMARK    6  A    between atoms: C_6  and  N_7
REMARK    7  A    between atoms: C_12  and  C_13
REMARK    8  A    between atoms: N_17  and  C_18
REMARK                            x       y       z     vdW  Elec       q    Type
REMARK                         _______ _______ _______ _____ _____    ______ ____
ROOT
ATOM      1  N   UNL     1       6.374   5.620  16.880  0.00  0.00    +0.000 N 
ATOM      2  C   UNL     1       7.260   6.574  17.357  0.00  0.00    +0.000 C 
ATOM      3  O   UNL     1       7.671   7.547  16.723  0.00  0.00    +0.000 OA
ATOM      4  C   UNL     1       7.752   6.275  18.753  0.00  0.00    +0.000 C 
ATOM      5  S   UNL     1       6.666   5.010  19.428  0.00  0.00    +0.000 S 
ATOM      6  C   UNL     1       5.964   4.602  17.819  0.00  0.00    +0.000 C 
ENDROOT
BRANCH   6   7
ATOM      7  C   UNL     1       4.461   4.427  17.902  0.00  0.00    +0.000 C 
ATOM      8  C   UNL     1       3.883   3.338  17.364  0.00  0.00    +0.000 C 
ATOM      9  C   UNL     1       2.409   3.113  17.371  0.00  0.00    +0.000 C 
ATOM     10  C   UNL     1       1.567   4.266  17.933  0.00  0.00    +0.000 C 
ATOM     11  N   UNL     1       2.215   5.247  18.799  0.00  0.00    +0.000 NA
ATOM     12  C   UNL     1       1.870   5.119  20.205  0.00  0.00    +0.000 C 
ATOM     13  C   UNL     1       3.635   5.514  18.559  0.00  0.00    +0.000 C 
ENDBRANCH   6   7
BRANCH   1  14
ATOM     14  C   UNL     1       5.843   5.623  15.513  0.00  0.00    +0.000 C 
BRANCH  14  15
ATOM     15  C   UNL     1       6.598   4.731  14.524  0.00  0.00    +0.000 C 
BRANCH  15  16
ATOM     16  C   UNL     1       5.641   3.917  13.652  0.00  0.00    +0.000 C 
BRANCH  16  17
ATOM     17  C   UNL     1       6.340   3.463  12.370  0.00  0.00    +0.000 C 
BRANCH  17  19
ATOM     18  C   UNL     1       6.408   1.276  11.133  0.00  0.00    +0.000 C 
ATOM     19  C   UNL     1       5.524   2.409  11.622  0.00  0.00    +0.000 C 
ENDBRANCH  17  19
ENDBRANCH  16  17
ENDBRANCH  15  16
ENDBRANCH  14  15
ENDBRANCH   1  14
TORSDOF 6
ENDMDL
MODEL 2
REMARK VINA RESULT:      -6.4      3.106      6.523
REMARK  Name = 
REMARK  8 active torsions:
REMARK  status: ('A' for Active; 'I' for Inactive)
REMARK    1  A    between atoms: C_1  and  C_2
REMARK    2  A    between atoms: C_2  and  C_3
REMARK    3  A    between atoms: C_3  and  C_4
REMARK    4  A    between atoms: C_4  and  C_5
REMARK    5  A    between atoms: C_5  and  C_6
REMARK    6  A    between atoms: C_6  and  N_7
REMARK    7  A    between atoms: C_12  and  C_13
REMARK    8  A    between atoms: N_17  and  C_18
REMARK                            x       y       z     vdW  Elec       q    Type
REMARK                         _______ _______ _______ _____ _____    ______ ____
ROOT
ATOM      1  N   UNL     1       3.262   4.279  19.243  0.00  0.00    +0.000 N 
ATOM      2  C   UNL     1       2.015   3.676  19.308  0.00  0.00    +0.000 C 
ATOM      3  O   UNL     1       0.959   4.247  19.585  0.00  0.00    +0.000 OA
ATOM      4  C   UNL     1       2.068   2.186  19.066  0.00  0.00    +0.000 C 
ATOM      5  S   UNL     1       3.685   1.830  18.364  0.00  0.00    +0.000 S 
ATOM      6  C   UNL     1       4.358   3.436  18.825  0.00  0.00    +0.000 C 
ENDROOT
BRANCH   6   7
ATOM      7  C   UNL     1       5.182   4.033  17.701  0.00  0.00    +0.000 C 
ATOM      8  C   UNL     1       4.703   4.027  16.444  0.00  0.00    +0.000 C 
ATOM      9  C   UNL     1       5.468   4.559  15.280  0.00  0.00    +0.000 C 
ATOM     10  C   UNL     1       6.900   5.017  15.584  0.00  0.00    +0.000 C 
ATOM     11  N   UNL     1       7.256   5.329  16.965  0.00  0.00    +0.000 NA
ATOM     12  C   UNL     1       7.395   6.749  17.237  0.00  0.00    +0.000 C 
ATOM     13  C   UNL     1       6.555   4.590  18.018  0.00  0.00    +0.000 C 
ENDBRANCH   6   7
BRANCH   1  14
ATOM     14  C   UNL     1       3.492   5.693  19.554  0.00  0.00    +0.000 C 
BRANCH  14  15
ATOM     15  C   UNL     1       3.137   6.669  18.429  0.00  0.00    +0.000 C 
BRANCH  15  16
ATOM     16  C   UNL     1       2.234   7.799  18.924  0.00  0.00    +0.000 C 
BRANCH  16  17
ATOM     17  C   UNL     1       1.808   8.694  17.759  0.00  0.00    +0.000 C 
BRANCH  17  19
ATOM     18  C   UNL     1      -0.080  10.161  18.533  0.00  0.00    +0.000 C 
ATOM     19  C   UNL     1       1.406  10.090  18.234  0.00  0.00    +0.000 C 
ENDBRANCH  17  19
ENDBRANCH  16  17
ENDBRANCH  15  16
ENDBRANCH  14  15
ENDBRANCH   1  14
TORSDOF 6
ENDMDL
MODEL 3
REMARK VINA RESULT:      -6.3      2.679      5.668
REMARK  Name = 
REMARK  8 active torsions:
REMARK  status: ('A' for Active; 'I' for Inactive)
REMARK    1  A    between atoms: C_1  and  C_2
REMARK    2  A    between atoms: C_2  and  C_3
REMARK    3  A    between atoms: C_3  and  C_4
REMARK    4  A    between atoms: C_4  and  C_5
REMARK    5  A    between atoms: C_5  and  C_6
REMARK    6  A    between atoms: C_6  and  N_7
REMARK    7  A    between atoms: C_12  and  C_13
REMARK    8  A    between atoms: N_17  and  C_18
REMARK                            x       y       z     vdW  Elec       q    Type
REMARK                         _______ _______ _______ _____ _____    ______ ____
ROOT
ATOM      1  N   UNL     1       6.632   5.797  17.208  0.00  0.00    +0.000 N 
ATOM      2  C   UNL     1       7.260   4.612  16.853  0.00  0.00    +0.000 C 
ATOM      3  O   UNL     1       8.329   4.207  17.311  0.00  0.00    +0.000 OA
ATOM      4  C   UNL     1       6.528   3.860  15.767  0.00  0.00    +0.000 C 
ATOM      5  S   UNL     1       4.887   4.586  15.646  0.00  0.00    +0.000 S 
ATOM      6  C   UNL     1       5.343   6.042  16.603  0.00  0.00    +0.000 C 
ENDROOT
BRANCH   6   7
ATOM      7  C   UNL     1       4.265   6.403  17.606  0.00  0.00    +0.000 C 
ATOM      8  C   UNL     1       3.522   7.510  17.421  0.00  0.00    +0.000 C 
ATOM      9  C   UNL     1       2.470   7.952  18.382  0.00  0.00    +0.000 C 
ATOM     10  C   UNL     1       2.359   7.123  19.668  0.00  0.00    +0.000 C 
ATOM     11  N   UNL     1       2.914   5.773  19.680  0.00  0.00    +0.000 NA
ATOM     12  C   UNL     1       1.916   4.719  19.640  0.00  0.00    +0.000 C 
ATOM     13  C   UNL     1       4.076   5.521  18.823  0.00  0.00    +0.000 C 
ENDBRANCH   6   7
BRANCH   1  14
ATOM     14  C   UNL     1       7.200   6.761  18.155  0.00  0.00    +0.000 C 
BRANCH  14  15
ATOM     15  C   UNL     1       7.604   8.106  17.546  0.00  0.00    +0.000 C 
BRANCH  15  16
ATOM     16  C   UNL     1       8.517   8.899  18.481  0.00  0.00    +0.000 C 
BRANCH  16  17
ATOM     17  C   UNL     1       8.918  10.228  17.838  0.00  0.00    +0.000 C 
BRANCH  17  19
ATOM     18  C   UNL     1       9.389  10.648  20.270  0.00  0.00    +0.000 C 
ATOM     19  C   UNL     1       9.332  11.262  18.884  0.00  0.00    +0.000 C 
ENDBRANCH  17  19
ENDBRANCH  16  17
ENDBRANCH  15  16
ENDBRANCH  14  15
ENDBRANCH   1  14
TORSDOF 6
ENDMDL
MODEL 4
REMARK VINA RESULT:      -6.3      1.114      1.841
REMARK  Name = 
REMARK  8 active torsions:
REMARK  status: ('A' for Active; 'I' for Inactive)
REMARK    1  A    between atoms: C_1  and  C_2
REMARK    2  A    between atoms: C_2  and  C_3
REMARK    3  A    between atoms: C_3  and  C_4
REMARK    4  A    between atoms: C_4  and  C_5
REMARK    5  A    between atoms: C_5  and  C_6
REMARK    6  A    between atoms: C_6  and  N_7
REMARK    7  A    between atoms: C_12  and  C_13
REMARK    8  A    between atoms: N_17  and  C_18
REMARK                            x       y       z     vdW  Elec       q    Type
REMARK                         _______ _______ _______ _____ _____    ______ ____
ROOT
ATOM      1  N   UNL     1       6.202   5.800  17.365  0.00  0.00    +0.000 N 
ATOM      2  C   UNL     1       7.081   6.862  17.514  0.00  0.00    +0.000 C 
ATOM      3  O   UNL     1       7.162   7.834  16.762  0.00  0.00    +0.000 OA
ATOM      4  C   UNL     1       8.016   6.691  18.687  0.00  0.00    +0.000 C 
ATOM      5  S   UNL     1       7.345   5.365  19.700  0.00  0.00    +0.000 S 
ATOM      6  C   UNL     1       6.224   4.800  18.407  0.00  0.00    +0.000 C 
ENDROOT
BRANCH   6   7
ATOM      7  C   UNL     1       4.851   4.483  18.967  0.00  0.00    +0.000 C 
ATOM      8  C   UNL     1       4.103   5.466  19.503  0.00  0.00    +0.000 C 
ATOM      9  C   UNL     1       2.761   5.227  20.108  0.00  0.00    +0.000 C 
ATOM     10  C   UNL     1       2.324   3.759  20.188  0.00  0.00    +0.000 C 
ATOM     11  N   UNL     1       2.974   2.787  19.313  0.00  0.00    +0.000 NA
ATOM     12  C   UNL     1       2.148   2.337  18.207  0.00  0.00    +0.000 C 
ATOM     13  C   UNL     1       4.367   3.048  18.945  0.00  0.00    +0.000 C 
ENDBRANCH   6   7
BRANCH   1  14
ATOM     14  C   UNL     1       5.272   5.674  16.238  0.00  0.00    +0.000 C 
BRANCH  14  15
ATOM     15  C   UNL     1       5.302   4.321  15.523  0.00  0.00    +0.000 C 
BRANCH  15  16
ATOM     16  C   UNL     1       6.194   4.357  14.281  0.00  0.00    +0.000 C 
BRANCH  16  17
ATOM     17  C   UNL     1       5.455   3.779  13.073  0.00  0.00    +0.000 C 
BRANCH  17  19
ATOM     18  C   UNL     1       5.800   1.924  11.414  0.00  0.00    +0.000 C 
ATOM     19  C   UNL     1       6.416   3.147  12.068  0.00  0.00    +0.000 C 
ENDBRANCH  17  19
ENDBRANCH  16  17
ENDBRANCH  15  16
ENDBRANCH  14  15
ENDBRANCH   1  14
TORSDOF 6
ENDMDL
MODEL 5
REMARK VINA RESULT:      -6.3      2.967      6.777
REMARK  Name = 
REMARK  8 active torsions:
REMARK  status: ('A' for Active; 'I' for Inactive)
REMARK    1  A    between atoms: C_1  and  C_2
REMARK    2  A    between atoms: C_2  and  C_3
REMARK    3  A    between atoms: C_3  and  C_4
REMARK    4  A    between atoms: C_4  and  C_5
REMARK    5  A    between atoms: C_5  and  C_6
REMARK    6  A    between atoms: C_6  and  N_7
REMARK    7  A    between atoms: C_12  and  C_13
REMARK    8  A    between atoms: N_17  and  C_18
REMARK                            x       y       z     vdW  Elec       q    Type
REMARK                         _______ _______ _______ _____ _____    ______ ____
ROOT
ATOM      1  N   UNL     1       3.265   4.284  19.265  0.00  0.00    +0.000 N 
ATOM      2  C   UNL     1       2.022   3.675  19.336  0.00  0.00    +0.000 C 
ATOM      3  O   UNL     1       0.965   4.239  19.622  0.00  0.00    +0.000 OA
ATOM      4  C   UNL     1       2.081   2.187  19.087  0.00  0.00    +0.000 C 
ATOM      5  S   UNL     1       3.695   1.842  18.373  0.00  0.00    +0.000 S 
ATOM      6  C   UNL     1       4.363   3.449  18.836  0.00  0.00    +0.000 C 
ENDROOT
BRANCH   6   7
ATOM      7  C   UNL     1       5.176   4.055  17.709  0.00  0.00    +0.000 C 
ATOM      8  C   UNL     1       4.690   4.046  16.454  0.00  0.00    +0.000 C 
ATOM      9  C   UNL     1       5.445   4.587  15.287  0.00  0.00    +0.000 C 
ATOM     10  C   UNL     1       6.875   5.057  15.585  0.00  0.00    +0.000 C 
ATOM     11  N   UNL     1       7.234   5.371  16.965  0.00  0.00    +0.000 NA
ATOM     12  C   UNL     1       7.363   6.791  17.238  0.00  0.00    +0.000 C 
ATOM     13  C   UNL     1       6.545   4.624  18.020  0.00  0.00    +0.000 C 
ENDBRANCH   6   7
BRANCH   1  14
ATOM     14  C   UNL     1       3.490   5.699  19.580  0.00  0.00    +0.000 C 
BRANCH  14  15
ATOM     15  C   UNL     1       3.092   6.679  18.474  0.00  0.00    +0.000 C 
BRANCH  15  16
ATOM     16  C   UNL     1       2.163   7.775  18.997  0.00  0.00    +0.000 C 
BRANCH  16  17
ATOM     17  C   UNL     1       1.854   7.554  20.479  0.00  0.00    +0.000 C 
BRANCH  17  19
ATOM     18  C   UNL     1       0.790   9.802  20.121  0.00  0.00    +0.000 C 
ATOM     19  C   UNL     1       0.841   8.569  21.005  0.00  0.00    +0.000 C 
ENDBRANCH  17  19
ENDBRANCH  16  17
ENDBRANCH  15  16
ENDBRANCH  14  15
ENDBRANCH   1  14
TORSDOF 6
ENDMDL
MODEL 6
REMARK VINA RESULT:      -6.3      2.579      5.313
REMARK  Name = 
REMARK  8 active torsions:
REMARK  status: ('A' for Active; 'I' for Inactive)
REMARK    1  A    between atoms: C_1  and  C_2
REMARK    2  A    between atoms: C_2  and  C_3
REMARK    3  A    between atoms: C_3  and  C_4
REMARK    4  A    between atoms: C_4  and  C_5
REMARK    5  A    between atoms: C_5  and  C_6
REMARK    6  A    between atoms: C_6  and  N_7
REMARK    7  A    between atoms: C_12  and  C_13
REMARK    8  A    between atoms: N_17  and  C_18
REMARK                            x       y       z     vdW  Elec       q    Type
REMARK                         _______ _______ _______ _____ _____    ______ ____
ROOT
ATOM      1  N   UNL     1       6.359   5.299  17.689  0.00  0.00    +0.000 N 
ATOM      2  C   UNL     1       7.106   4.462  16.875  0.00  0.00    +0.000 C 
ATOM      3  O   UNL     1       8.287   4.161  17.053  0.00  0.00    +0.000 OA
ATOM      4  C   UNL     1       6.342   3.983  15.664  0.00  0.00    +0.000 C 
ATOM      5  S   UNL     1       4.606   4.346  15.966  0.00  0.00    +0.000 S 
ATOM      6  C   UNL     1       4.967   5.458  17.337  0.00  0.00    +0.000 C 
ENDROOT
BRANCH   6   7
ATOM      7  C   UNL     1       4.021   5.226  18.499  0.00  0.00    +0.000 C 
ATOM      8  C   UNL     1       3.191   6.209  18.892  0.00  0.00    +0.000 C 
ATOM      9  C   UNL     1       2.259   6.072  20.049  0.00  0.00    +0.000 C 
ATOM     10  C   UNL     1       2.384   4.767  20.847  0.00  0.00    +0.000 C 
ATOM     11  N   UNL     1       3.019   3.617  20.210  0.00  0.00    +0.000 NA
ATOM     12  C   UNL     1       2.094   2.570  19.813  0.00  0.00    +0.000 C 
ATOM     13  C   UNL     1       4.062   3.894  19.219  0.00  0.00    +0.000 C 
ENDBRANCH   6   7
BRANCH   1  14
ATOM     14  C   UNL     1       6.908   5.985  18.863  0.00  0.00    +0.000 C 
BRANCH  14  15
ATOM     15  C   UNL     1       8.007   7.007  18.560  0.00  0.00    +0.000 C 
BRANCH  15  16
ATOM     16  C   UNL     1       7.500   8.133  17.659  0.00  0.00    +0.000 C 
BRANCH  16  17
ATOM     17  C   UNL     1       8.461   9.323  17.695  0.00  0.00    +0.000 C 
BRANCH  17  19
ATOM     18  C   UNL     1       9.420  11.052  19.245  0.00  0.00    +0.000 C 
ATOM     19  C   UNL     1       8.946   9.617  19.114  0.00  0.00    +0.000 C 
ENDBRANCH  17  19
ENDBRANCH  16  17
ENDBRANCH  15  16
ENDBRANCH  14  15
ENDBRANCH   1  14
TORSDOF 6
ENDMDL
MODEL 7
REMARK VINA RESULT:      -6.2      3.299      5.888
REMARK  Name = 
REMARK  8 active torsions:
REMARK  status: ('A' for Active; 'I' for Inactive)
REMARK    1  A    between atoms: C_1  and  C_2
REMARK    2  A    between atoms: C_2  and  C_3
REMARK    3  A    between atoms: C_3  and  C_4
REMARK    4  A    between atoms: C_4  and  C_5
REMARK    5  A    between atoms: C_5  and  C_6
REMARK    6  A    between atoms: C_6  and  N_7
REMARK    7  A    between atoms: C_12  and  C_13
REMARK    8  A    between atoms: N_17  and  C_18
REMARK                            x       y       z     vdW  Elec       q    Type
REMARK                         _______ _______ _______ _____ _____    ______ ____
ROOT
ATOM      1  N   UNL     1       2.354   6.305  19.580  0.00  0.00    +0.000 N 
ATOM      2  C   UNL     1       1.926   7.498  20.141  0.00  0.00    +0.000 C 
ATOM      3  O   UNL     1       1.626   7.663  21.324  0.00  0.00    +0.000 OA
ATOM      4  C   UNL     1       1.787   8.609  19.128  0.00  0.00    +0.000 C 
ATOM      5  S   UNL     1       2.643   8.069  17.642  0.00  0.00    +0.000 S 
ATOM      6  C   UNL     1       2.727   6.353  18.184  0.00  0.00    +0.000 C 
ENDROOT
BRANCH   6   7
ATOM      7  C   UNL     1       4.090   5.752  17.903  0.00  0.00    +0.000 C 
ATOM      8  C   UNL     1       4.234   4.854  16.911  0.00  0.00    +0.000 C 
ATOM      9  C   UNL     1       5.532   4.190  16.599  0.00  0.00    +0.000 C 
ATOM     10  C   UNL     1       6.686   4.509  17.558  0.00  0.00    +0.000 C 
ATOM     11  N   UNL     1       6.598   5.711  18.382  0.00  0.00    +0.000 NA
ATOM     12  C   UNL     1       7.468   6.792  17.950  0.00  0.00    +0.000 C 
ATOM     13  C   UNL     1       5.259   6.151  18.780  0.00  0.00    +0.000 C 
ENDBRANCH   6   7
BRANCH   1  14
ATOM     14  C   UNL     1       2.458   5.050  20.331  0.00  0.00    +0.000 C 
BRANCH  14  15
ATOM     15  C   UNL     1       1.143   4.284  20.495  0.00  0.00    +0.000 C 
BRANCH  15  16
ATOM     16  C   UNL     1       1.315   2.795  20.194  0.00  0.00    +0.000 C 
BRANCH  16  17
ATOM     17  C   UNL     1       0.946   2.496  18.740  0.00  0.00    +0.000 C 
BRANCH  17  19
ATOM     18  C   UNL     1       3.342   1.737  18.745  0.00  0.00    +0.000 C 
ATOM     19  C   UNL     1       2.182   2.211  17.888  0.00  0.00    +0.000 C 
ENDBRANCH  17  19
ENDBRANCH  16  17
ENDBRANCH  15  16
ENDBRANCH  14  15
ENDBRANCH   1  14
TORSDOF 6
ENDMDL
MODEL 8
REMARK VINA RESULT:      -6.1      2.821      6.587
REMARK  Name = 
REMARK  8 active torsions:
REMARK  status: ('A' for Active; 'I' for Inactive)
REMARK    1  A    between atoms: C_1  and  C_2
REMARK    2  A    between atoms: C_2  and  C_3
REMARK    3  A    between atoms: C_3  and  C_4
REMARK    4  A    between atoms: C_4  and  C_5
REMARK    5  A    between atoms: C_5  and  C_6
REMARK    6  A    between atoms: C_6  and  N_7
REMARK    7  A    between atoms: C_12  and  C_13
REMARK    8  A    between atoms: N_17  and  C_18
REMARK                            x       y       z     vdW  Elec       q    Type
REMARK                         _______ _______ _______ _____ _____    ______ ____
ROOT
ATOM      1  N   UNL     1       2.802   4.784  18.147  0.00  0.00    +0.000 N 
ATOM      2  C   UNL     1       1.879   3.901  17.609  0.00  0.00    +0.000 C 
ATOM      3  O   UNL     1       0.776   4.208  17.155  0.00  0.00    +0.000 OA
ATOM      4  C   UNL     1       2.327   2.461  17.688  0.00  0.00    +0.000 C 
ATOM      5  S   UNL     1       4.085   2.483  18.070  0.00  0.00    +0.000 S 
ATOM      6  C   UNL     1       4.068   4.218  18.552  0.00  0.00    +0.000 C 
ENDROOT
BRANCH   6   7
ATOM      7  C   UNL     1       5.267   4.958  17.992  0.00  0.00    +0.000 C 
ATOM      8  C   UNL     1       6.260   5.344  18.815  0.00  0.00    +0.000 C 
ATOM      9  C   UNL     1       7.452   6.108  18.347  0.00  0.00    +0.000 C 
ATOM     10  C   UNL     1       7.427   6.535  16.874  0.00  0.00    +0.000 C 
ATOM     11  N   UNL     1       6.540   5.826  15.956  0.00  0.00    +0.000 NA
ATOM     12  C   UNL     1       7.223   4.921  15.049  0.00  0.00    +0.000 C 
ATOM     13  C   UNL     1       5.299   5.283  16.513  0.00  0.00    +0.000 C 
ENDBRANCH   6   7
BRANCH   1  14
ATOM     14  C   UNL     1       2.554   6.222  18.292  0.00  0.00    +0.000 C 
BRANCH  14  15
ATOM     15  C   UNL     1       2.480   6.723  19.737  0.00  0.00    +0.000 C 
BRANCH  15  16
ATOM     16  C   UNL     1       1.457   5.937  20.557  0.00  0.00    +0.000 C 
BRANCH  16  17
ATOM     17  C   UNL     1       2.147   4.835  21.361  0.00  0.00    +0.000 C 
BRANCH  17  19
ATOM     18  C   UNL     1       2.371   2.338  21.539  0.00  0.00    +0.000 C 
ATOM     19  C   UNL     1       1.441   3.489  21.202  0.00  0.00    +0.000 C 
ENDBRANCH  17  19
ENDBRANCH  16  17
ENDBRANCH  15  16
ENDBRANCH  14  15
ENDBRANCH   1  14
TORSDOF 6
ENDMDL
MODEL 9
REMARK VINA RESULT:      -6.1      1.023      1.030
REMARK  Name = 
REMARK  8 active torsions:
REMARK  status: ('A' for Active; 'I' for Inactive)
REMARK    1  A    between atoms: C_1  and  C_2
REMARK    2  A    between atoms: C_2  and  C_3
REMARK    3  A    between atoms: C_3  and  C_4
REMARK    4  A    between atoms: C_4  and  C_5
REMARK    5  A    between atoms: C_5  and  C_6
REMARK    6  A    between atoms: C_6  and  N_7
REMARK    7  A    between atoms: C_12  and  C_13
REMARK    8  A    between atoms: N_17  and  C_18
REMARK                            x       y       z     vdW  Elec       q    Type
REMARK                         _______ _______ _______ _____ _____    ______ ____
ROOT
ATOM      1  N   UNL     1       5.574   4.922  16.813  0.00  0.00    +0.000 N 
ATOM      2  C   UNL     1       6.276   6.108  16.959  0.00  0.00    +0.000 C 
ATOM      3  O   UNL     1       6.457   6.945  16.074  0.00  0.00    +0.000 OA
ATOM      4  C   UNL     1       6.885   6.266  18.332  0.00  0.00    +0.000 C 
ATOM      5  S   UNL     1       6.104   5.041  19.393  0.00  0.00    +0.000 S 
ATOM      6  C   UNL     1       5.418   4.119  18.004  0.00  0.00    +0.000 C 
ENDROOT
BRANCH   6   7
ATOM      7  C   UNL     1       3.984   3.706  18.270  0.00  0.00    +0.000 C 
ATOM      8  C   UNL     1       3.611   2.427  18.082  0.00  0.00    +0.000 C 
ATOM      9  C   UNL     1       2.212   1.951  18.285  0.00  0.00    +0.000 C 
ATOM     10  C   UNL     1       1.184   3.041  18.616  0.00  0.00    +0.000 C 
ATOM     11  N   UNL     1       1.663   4.316  19.142  0.00  0.00    +0.000 NA
ATOM     12  C   UNL     1       1.413   4.506  20.560  0.00  0.00    +0.000 C 
ATOM     13  C   UNL     1       2.990   4.761  18.708  0.00  0.00    +0.000 C 
ENDBRANCH   6   7
BRANCH   1  14
ATOM     14  C   UNL     1       4.987   4.482  15.543  0.00  0.00    +0.000 C 
BRANCH  14  15
ATOM     15  C   UNL     1       5.963   3.800  14.581  0.00  0.00    +0.000 C 
BRANCH  15  16
ATOM     16  C   UNL     1       5.686   4.184  13.127  0.00  0.00    +0.000 C 
BRANCH  16  17
ATOM     17  C   UNL     1       6.515   3.318  12.177  0.00  0.00    +0.000 C 
BRANCH  17  19
ATOM     18  C   UNL     1       6.633   1.108  10.987  0.00  0.00    +0.000 C 
ATOM     19  C   UNL     1       5.725   2.112  11.673  0.00  0.00    +0.000 C 
ENDBRANCH  17  19
ENDBRANCH  16  17
ENDBRANCH  15  16
ENDBRANCH  14  15
ENDBRANCH   1  14
TORSDOF 6
ENDMDL
