MODEL 1
REMARK VINA RESULT:      -7.1      0.000      0.000
REMARK  Name = 
REMARK  3 active torsions:
REMARK  status: ('A' for Active; 'I' for Inactive)
REMARK    1  A    between atoms: N_1  and  C_2
REMARK    2  A    between atoms: C_7  and  N_8
REMARK    3  A    between atoms: C_21  and  N_22
REMARK                            x       y       z     vdW  Elec       q    Type
REMARK                         _______ _______ _______ _____ _____    ______ ____
ROOT
ATOM      1  C   UNL     1      -1.171  12.827  19.336  0.00  0.00    +0.000 C 
ATOM      2  C   UNL     1       0.299  12.354  19.207  0.00  0.00    +0.000 C 
ATOM      3  N   UNL     1       0.334  10.977  19.722  0.00  0.00    +0.000 N 
ATOM      4  C   UNL     1       1.226  10.091  19.114  0.00  0.00    +0.000 A 
ATOM      5  C   UNL     1       1.297   8.768  19.532  0.00  0.00    +0.000 A 
ATOM      6  C   UNL     1       2.107   7.875  18.848  0.00  0.00    +0.000 A 
ATOM      7  N   UNL     1       2.855   8.312  17.821  0.00  0.00    +0.000 NA
ATOM      8  C   UNL     1       2.794   9.618  17.531  0.00  0.00    +0.000 A 
ATOM      9  N   UNL     1       2.016  10.529  18.125  0.00  0.00    +0.000 NA
ATOM     10  C   UNL     1      -1.035  10.490  19.975  0.00  0.00    +0.000 C 
ATOM     11  C   UNL     1      -1.976  11.514  19.315  0.00  0.00    +0.000 C 
ENDROOT
BRANCH   6  12
ATOM     12  N   UNL     1       2.126   6.504  19.166  0.00  0.00    +0.000 N 
ATOM     13  C   UNL     1       1.900   6.123  20.579  0.00  0.00    +0.000 C 
ATOM     14  C   UNL     1       2.069   4.641  20.973  0.00  0.00    +0.000 C 
ATOM     15  C   UNL     1       2.802   3.836  19.981  0.00  0.00    +0.000 A 
ATOM     16  N   UNL     1       3.117   2.550  20.162  0.00  0.00    +0.000 NA
ATOM     17  O   UNL     1       3.770   2.173  18.993  0.00  0.00    +0.000 OA
ATOM     18  C   UNL     1       3.829   3.237  18.148  0.00  0.00    +0.000 A 
ATOM     19  C   UNL     1       3.226   4.315  18.738  0.00  0.00    +0.000 A 
ATOM     20  C   UNL     1       3.015   5.707  18.301  0.00  0.00    +0.000 C 
ENDBRANCH   6  12
BRANCH  11  21
ATOM     21  N   UNL     1      -2.458  11.103  17.989  0.00  0.00    +0.000 N 
ATOM     22  C   UNL     1      -1.895  10.033  17.198  0.00  0.00    +0.000 C 
ATOM     23  C   UNL     1      -2.608  10.192  15.870  0.00  0.00    +0.000 C 
ATOM     24  C   UNL     1      -4.001  10.665  16.268  0.00  0.00    +0.000 C 
ATOM     25  C   UNL     1      -3.758  11.383  17.573  0.00  0.00    +0.000 C 
ATOM     26  O   UNL     1      -4.585  12.049  18.178  0.00  0.00    +0.000 OA
ENDBRANCH  11  21
BRANCH   1  27
ATOM     27  N   UNL     1      -1.417  13.612  20.563  0.00  0.00    +0.000 NA
ATOM     28  H   UNL     1      -1.922  13.030  21.233  0.00  0.00    +0.000 HD
ATOM     29  H   UNL     1      -2.040  14.390  20.348  0.00  0.00    +0.000 HD
ENDBRANCH   1  27
TORSDOF 3
ENDMDL
MODEL 2
REMARK VINA RESULT:      -7.1      1.031      1.514
REMARK  Name = 
REMARK  3 active torsions:
REMARK  status: ('A' for Active; 'I' for Inactive)
REMARK    1  A    between atoms: N_1  and  C_2
REMARK    2  A    between atoms: C_7  and  N_8
REMARK    3  A    between atoms: C_21  and  N_22
REMARK                            x       y       z     vdW  Elec       q    Type
REMARK                         _______ _______ _______ _____ _____    ______ ____
ROOT
ATOM      1  C   UNL     1      -0.858  12.482  19.647  0.00  0.00    +0.000 C 
ATOM      2  C   UNL     1       0.595  11.998  19.410  0.00  0.00    +0.000 C 
ATOM      3  N   UNL     1       0.631  10.588  19.826  0.00  0.00    +0.000 N 
ATOM      4  C   UNL     1       1.475   9.733  19.114  0.00  0.00    +0.000 A 
ATOM      5  C   UNL     1       1.544   8.384  19.436  0.00  0.00    +0.000 A 
ATOM      6  C   UNL     1       2.302   7.529  18.651  0.00  0.00    +0.000 A 
ATOM      7  N   UNL     1       3.004   8.025  17.619  0.00  0.00    +0.000 NA
ATOM      8  C   UNL     1       2.952   9.348  17.423  0.00  0.00    +0.000 A 
ATOM      9  N   UNL     1       2.222  10.227  18.118  0.00  0.00    +0.000 NA
ATOM     10  C   UNL     1      -0.732  10.105  20.116  0.00  0.00    +0.000 C 
ATOM     11  C   UNL     1      -1.686  11.185  19.577  0.00  0.00    +0.000 C 
ENDROOT
BRANCH   6  12
ATOM     12  N   UNL     1       2.312   6.139  18.874  0.00  0.00    +0.000 N 
ATOM     13  C   UNL     1       1.793   5.267  17.796  0.00  0.00    +0.000 C 
ATOM     14  C   UNL     1       1.654   3.756  18.080  0.00  0.00    +0.000 C 
ATOM     15  C   UNL     1       1.697   3.408  19.510  0.00  0.00    +0.000 A 
ATOM     16  N   UNL     1       1.523   2.166  19.972  0.00  0.00    +0.000 NA
ATOM     17  O   UNL     1       1.666   2.275  21.351  0.00  0.00    +0.000 OA
ATOM     18  C   UNL     1       1.920   3.570  21.677  0.00  0.00    +0.000 A 
ATOM     19  C   UNL     1       1.946   4.325  20.535  0.00  0.00    +0.000 A 
ATOM     20  C   UNL     1       2.156   5.763  20.291  0.00  0.00    +0.000 C 
ENDBRANCH   6  12
BRANCH  11  21
ATOM     21  N   UNL     1      -2.243  10.874  18.253  0.00  0.00    +0.000 N 
ATOM     22  C   UNL     1      -1.766   9.826  17.380  0.00  0.00    +0.000 C 
ATOM     23  C   UNL     1      -2.525  10.095  16.096  0.00  0.00    +0.000 C 
ATOM     24  C   UNL     1      -3.875  10.609  16.581  0.00  0.00    +0.000 C 
ATOM     25  C   UNL     1      -3.543  11.238  17.911  0.00  0.00    +0.000 C 
ATOM     26  O   UNL     1      -4.311  11.906  18.588  0.00  0.00    +0.000 OA
ENDBRANCH  11  21
BRANCH   1  27
ATOM     27  N   UNL     1      -1.026  13.183  20.936  0.00  0.00    +0.000 NA
ATOM     28  H   UNL     1      -1.801  13.843  20.856  0.00  0.00    +0.000 HD
ATOM     29  H   UNL     1      -0.200  13.751  21.123  0.00  0.00    +0.000 HD
ENDBRANCH   1  27
TORSDOF 3
ENDMDL
MODEL 3
REMARK VINA RESULT:      -6.9      2.387      3.783
REMARK  Name = 
REMARK  3 active torsions:
REMARK  status: ('A' for Active; 'I' for Inactive)
REMARK    1  A    between atoms: N_1  and  C_2
REMARK    2  A    between atoms: C_7  and  N_8
REMARK    3  A    between atoms: C_21  and  N_22
REMARK                            x       y       z     vdW  Elec       q    Type
REMARK                         _______ _______ _______ _____ _____    ______ ____
ROOT
ATOM      1  C   UNL     1      -1.786  13.285  20.235  0.00  0.00    +0.000 C 
ATOM      2  C   UNL     1      -1.569  12.089  21.197  0.00  0.00    +0.000 C 
ATOM      3  N   UNL     1      -1.043  10.990  20.374  0.00  0.00    +0.000 N 
ATOM      4  C   UNL     1      -0.124  10.126  20.973  0.00  0.00    +0.000 A 
ATOM      5  C   UNL     1       0.433   9.079  20.250  0.00  0.00    +0.000 A 
ATOM      6  C   UNL     1       1.424   8.298  20.825  0.00  0.00    +0.000 A 
ATOM      7  N   UNL     1       1.796   8.531  22.095  0.00  0.00    +0.000 NA
ATOM      8  C   UNL     1       1.155   9.504  22.754  0.00  0.00    +0.000 A 
ATOM      9  N   UNL     1       0.215  10.314  22.256  0.00  0.00    +0.000 NA
ATOM     10  C   UNL     1      -0.730  11.472  19.015  0.00  0.00    +0.000 C 
ATOM     11  C   UNL     1      -0.797  13.008  19.087  0.00  0.00    +0.000 C 
ENDROOT
BRANCH   6  12
ATOM     12  N   UNL     1       2.093   7.299  20.093  0.00  0.00    +0.000 N 
ATOM     13  C   UNL     1       2.418   7.586  18.678  0.00  0.00    +0.000 C 
ATOM     14  C   UNL     1       3.012   6.450  17.819  0.00  0.00    +0.000 C 
ATOM     15  C   UNL     1       2.838   5.107  18.397  0.00  0.00    +0.000 A 
ATOM     16  N   UNL     1       3.216   3.984  17.780  0.00  0.00    +0.000 NA
ATOM     17  O   UNL     1       2.900   2.962  18.670  0.00  0.00    +0.000 OA
ATOM     18  C   UNL     1       2.344   3.497  19.790  0.00  0.00    +0.000 A 
ATOM     19  C   UNL     1       2.285   4.859  19.657  0.00  0.00    +0.000 A 
ATOM     20  C   UNL     1       1.775   5.928  20.533  0.00  0.00    +0.000 C 
ENDBRANCH   6  12
BRANCH  11  21
ATOM     21  N   UNL     1       0.517  13.650  19.231  0.00  0.00    +0.000 N 
ATOM     22  C   UNL     1       1.779  12.949  19.286  0.00  0.00    +0.000 C 
ATOM     23  C   UNL     1       2.752  14.049  19.658  0.00  0.00    +0.000 C 
ATOM     24  C   UNL     1       2.193  15.276  18.948  0.00  0.00    +0.000 C 
ATOM     25  C   UNL     1       0.715  14.981  18.871  0.00  0.00    +0.000 C 
ATOM     26  O   UNL     1      -0.144  15.768  18.503  0.00  0.00    +0.000 OA
ENDBRANCH  11  21
BRANCH   1  27
ATOM     27  N   UNL     1      -3.180  13.392  19.757  0.00  0.00    +0.000 NA
ATOM     28  H   UNL     1      -3.810  13.102  20.506  0.00  0.00    +0.000 HD
ATOM     29  H   UNL     1      -3.329  12.726  18.998  0.00  0.00    +0.000 HD
ENDBRANCH   1  27
TORSDOF 3
ENDMDL
MODEL 4
REMARK VINA RESULT:      -6.8      3.601      5.231
REMARK  Name = 
REMARK  3 active torsions:
REMARK  status: ('A' for Active; 'I' for Inactive)
REMARK    1  A    between atoms: N_1  and  C_2
REMARK    2  A    between atoms: C_7  and  N_8
REMARK    3  A    between atoms: C_21  and  N_22
REMARK                            x       y       z     vdW  Elec       q    Type
REMARK                         _______ _______ _______ _____ _____    ______ ____
ROOT
ATOM      1  C   UNL     1      -3.909  14.749  23.918  0.00  0.00    +0.000 C 
ATOM      2  C   UNL     1      -2.636  14.897  23.045  0.00  0.00    +0.000 C 
ATOM      3  N   UNL     1      -2.033  13.558  22.967  0.00  0.00    +0.000 N 
ATOM      4  C   UNL     1      -1.388  13.216  21.777  0.00  0.00    +0.000 A 
ATOM      5  C   UNL     1      -0.815  11.960  21.623  0.00  0.00    +0.000 A 
ATOM      6  C   UNL     1      -0.276  11.598  20.398  0.00  0.00    +0.000 A 
ATOM      7  N   UNL     1      -0.266  12.486  19.390  0.00  0.00    +0.000 NA
ATOM      8  C   UNL     1      -0.761  13.704  19.642  0.00  0.00    +0.000 A 
ATOM      9  N   UNL     1      -1.323  14.113  20.784  0.00  0.00    +0.000 NA
ATOM     10  C   UNL     1      -2.938  12.554  23.558  0.00  0.00    +0.000 C 
ATOM     11  C   UNL     1      -4.289  13.266  23.751  0.00  0.00    +0.000 C 
ENDROOT
BRANCH   6  12
ATOM     12  N   UNL     1       0.215  10.300  20.164  0.00  0.00    +0.000 N 
ATOM     13  C   UNL     1       0.488   9.445  21.342  0.00  0.00    +0.000 C 
ATOM     14  C   UNL     1       1.168   8.079  21.112  0.00  0.00    +0.000 C 
ATOM     15  C   UNL     1       1.809   7.941  19.794  0.00  0.00    +0.000 A 
ATOM     16  N   UNL     1       2.512   6.867  19.424  0.00  0.00    +0.000 NA
ATOM     17  O   UNL     1       2.911   7.132  18.119  0.00  0.00    +0.000 OA
ATOM     18  C   UNL     1       2.440   8.352  17.743  0.00  0.00    +0.000 A 
ATOM     19  C   UNL     1       1.735   8.901  18.780  0.00  0.00    +0.000 A 
ATOM     20  C   UNL     1       1.031  10.185  18.941  0.00  0.00    +0.000 C 
ENDBRANCH   6  12
BRANCH  11  21
ATOM     21  N   UNL     1      -5.260  12.990  22.684  0.00  0.00    +0.000 N 
ATOM     22  C   UNL     1      -4.920  12.560  21.346  0.00  0.00    +0.000 C 
ATOM     23  C   UNL     1      -6.250  12.646  20.624  0.00  0.00    +0.000 C 
ATOM     24  C   UNL     1      -7.263  12.254  21.693  0.00  0.00    +0.000 C 
ATOM     25  C   UNL     1      -6.584  12.672  22.974  0.00  0.00    +0.000 C 
ATOM     26  O   UNL     1      -7.105  12.676  24.080  0.00  0.00    +0.000 OA
ENDBRANCH  11  21
BRANCH   1  27
ATOM     27  N   UNL     1      -3.680  15.111  25.331  0.00  0.00    +0.000 NA
ATOM     28  H   UNL     1      -3.114  14.386  25.773  0.00  0.00    +0.000 HD
ATOM     29  H   UNL     1      -4.571  15.107  25.830  0.00  0.00    +0.000 HD
ENDBRANCH   1  27
TORSDOF 3
ENDMDL
MODEL 5
REMARK VINA RESULT:      -6.6      3.136      8.662
REMARK  Name = 
REMARK  3 active torsions:
REMARK  status: ('A' for Active; 'I' for Inactive)
REMARK    1  A    between atoms: N_1  and  C_2
REMARK    2  A    between atoms: C_7  and  N_8
REMARK    3  A    between atoms: C_21  and  N_22
REMARK                            x       y       z     vdW  Elec       q    Type
REMARK                         _______ _______ _______ _____ _____    ______ ____
ROOT
ATOM      1  C   UNL     1       4.740   3.748  17.880  0.00  0.00    +0.000 C 
ATOM      2  C   UNL     1       3.449   4.516  17.500  0.00  0.00    +0.000 C 
ATOM      3  N   UNL     1       3.033   5.243  18.709  0.00  0.00    +0.000 N 
ATOM      4  C   UNL     1       2.425   6.488  18.529  0.00  0.00    +0.000 A 
ATOM      5  C   UNL     1       2.027   7.241  19.626  0.00  0.00    +0.000 A 
ATOM      6  C   UNL     1       1.526   8.519  19.434  0.00  0.00    +0.000 A 
ATOM      7  N   UNL     1       1.383   8.994  18.186  0.00  0.00    +0.000 NA
ATOM      8  C   UNL     1       1.711   8.177  17.178  0.00  0.00    +0.000 A 
ATOM      9  N   UNL     1       2.227   6.948  17.287  0.00  0.00    +0.000 NA
ATOM     10  C   UNL     1       4.073   5.143  19.750  0.00  0.00    +0.000 C 
ATOM     11  C   UNL     1       5.317   4.568  19.049  0.00  0.00    +0.000 C 
ENDROOT
BRANCH   6  12
ATOM     12  N   UNL     1       1.214   9.359  20.520  0.00  0.00    +0.000 N 
ATOM     13  C   UNL     1       0.544   8.749  21.690  0.00  0.00    +0.000 C 
ATOM     14  C   UNL     1       0.057   9.679  22.822  0.00  0.00    +0.000 C 
ATOM     15  C   UNL     1      -0.023  11.098  22.440  0.00  0.00    +0.000 A 
ATOM     16  N   UNL     1      -0.488  12.055  23.248  0.00  0.00    +0.000 NA
ATOM     17  O   UNL     1      -0.366  13.232  22.518  0.00  0.00    +0.000 OA
ATOM     18  C   UNL     1       0.165  12.951  21.298  0.00  0.00    +0.000 A 
ATOM     19  C   UNL     1       0.397  11.605  21.206  0.00  0.00    +0.000 A 
ATOM     20  C   UNL     1       0.935  10.753  20.130  0.00  0.00    +0.000 C 
ENDBRANCH   6  12
BRANCH  11  21
ATOM     21  N   UNL     1       6.303   5.587  18.666  0.00  0.00    +0.000 N 
ATOM     22  C   UNL     1       6.034   6.717  17.805  0.00  0.00    +0.000 C 
ATOM     23  C   UNL     1       7.417   7.291  17.572  0.00  0.00    +0.000 C 
ATOM     24  C   UNL     1       8.132   7.048  18.895  0.00  0.00    +0.000 C 
ATOM     25  C   UNL     1       7.437   5.824  19.439  0.00  0.00    +0.000 C 
ATOM     26  O   UNL     1       7.789   5.191  20.423  0.00  0.00    +0.000 OA
ENDBRANCH  11  21
BRANCH   1  27
ATOM     27  N   UNL     1       4.482   2.343  18.257  0.00  0.00    +0.000 NA
ATOM     28  H   UNL     1       5.035   2.115  19.084  0.00  0.00    +0.000 HD
ATOM     29  H   UNL     1       4.824   1.727  17.519  0.00  0.00    +0.000 HD
ENDBRANCH   1  27
TORSDOF 3
ENDMDL
MODEL 6
REMARK VINA RESULT:      -6.6      6.543     10.419
REMARK  Name = 
REMARK  3 active torsions:
REMARK  status: ('A' for Active; 'I' for Inactive)
REMARK    1  A    between atoms: N_1  and  C_2
REMARK    2  A    between atoms: C_7  and  N_8
REMARK    3  A    between atoms: C_21  and  N_22
REMARK                            x       y       z     vdW  Elec       q    Type
REMARK                         _______ _______ _______ _____ _____    ______ ____
ROOT
ATOM      1  C   UNL     1      10.271  14.209  17.816  0.00  0.00    +0.000 C 
ATOM      2  C   UNL     1       9.263  15.384  17.753  0.00  0.00    +0.000 C 
ATOM      3  N   UNL     1       7.951  14.785  17.467  0.00  0.00    +0.000 N 
ATOM      4  C   UNL     1       6.832  15.395  18.039  0.00  0.00    +0.000 A 
ATOM      5  C   UNL     1       5.563  14.871  17.832  0.00  0.00    +0.000 A 
ATOM      6  C   UNL     1       4.477  15.422  18.494  0.00  0.00    +0.000 A 
ATOM      7  N   UNL     1       4.658  16.490  19.288  0.00  0.00    +0.000 NA
ATOM      8  C   UNL     1       5.897  16.989  19.372  0.00  0.00    +0.000 A 
ATOM      9  N   UNL     1       6.994  16.493  18.789  0.00  0.00    +0.000 NA
ATOM     10  C   UNL     1       8.032  13.315  17.543  0.00  0.00    +0.000 C 
ATOM     11  C   UNL     1       9.393  13.000  18.189  0.00  0.00    +0.000 C 
ENDROOT
BRANCH   6  12
ATOM     12  N   UNL     1       3.192  14.856  18.400  0.00  0.00    +0.000 N 
ATOM     13  C   UNL     1       2.050  15.656  18.899  0.00  0.00    +0.000 C 
ATOM     14  C   UNL     1       0.657  14.993  18.946  0.00  0.00    +0.000 C 
ATOM     15  C   UNL     1       0.687  13.525  18.845  0.00  0.00    +0.000 A 
ATOM     16  N   UNL     1      -0.402  12.757  18.938  0.00  0.00    +0.000 NA
ATOM     17  O   UNL     1       0.061  11.456  18.764  0.00  0.00    +0.000 OA
ATOM     18  C   UNL     1       1.407  11.480  18.575  0.00  0.00    +0.000 A 
ATOM     19  C   UNL     1       1.846  12.776  18.620  0.00  0.00    +0.000 A 
ATOM     20  C   UNL     1       3.183  13.384  18.497  0.00  0.00    +0.000 C 
ENDBRANCH   6  12
BRANCH  11  21
ATOM     21  N   UNL     1       9.312  12.713  19.628  0.00  0.00    +0.000 N 
ATOM     22  C   UNL     1       8.759  13.606  20.621  0.00  0.00    +0.000 C 
ATOM     23  C   UNL     1       9.128  12.923  21.922  0.00  0.00    +0.000 C 
ATOM     24  C   UNL     1       9.033  11.440  21.586  0.00  0.00    +0.000 C 
ATOM     25  C   UNL     1       9.330  11.406  20.107  0.00  0.00    +0.000 C 
ATOM     26  O   UNL     1       9.503  10.392  19.446  0.00  0.00    +0.000 OA
ENDBRANCH  11  21
BRANCH   1  27
ATOM     27  N   UNL     1      10.992  14.002  16.542  0.00  0.00    +0.000 NA
ATOM     28  H   UNL     1      11.250  13.018  16.463  0.00  0.00    +0.000 HD
ATOM     29  H   UNL     1      11.872  14.517  16.564  0.00  0.00    +0.000 HD
ENDBRANCH   1  27
TORSDOF 3
ENDMDL
MODEL 7
REMARK VINA RESULT:      -6.6      2.819      4.201
REMARK  Name = 
REMARK  3 active torsions:
REMARK  status: ('A' for Active; 'I' for Inactive)
REMARK    1  A    between atoms: N_1  and  C_2
REMARK    2  A    between atoms: C_7  and  N_8
REMARK    3  A    between atoms: C_21  and  N_22
REMARK                            x       y       z     vdW  Elec       q    Type
REMARK                         _______ _______ _______ _____ _____    ______ ____
ROOT
ATOM      1  C   UNL     1      -3.733  14.635  22.481  0.00  0.00    +0.000 C 
ATOM      2  C   UNL     1      -2.391  14.666  21.708  0.00  0.00    +0.000 C 
ATOM      3  N   UNL     1      -1.807  13.323  21.845  0.00  0.00    +0.000 N 
ATOM      4  C   UNL     1      -1.070  12.833  20.764  0.00  0.00    +0.000 A 
ATOM      5  C   UNL     1      -0.509  11.564  20.812  0.00  0.00    +0.000 A 
ATOM      6  C   UNL     1       0.125  11.051  19.691  0.00  0.00    +0.000 A 
ATOM      7  N   UNL     1       0.234  11.808  18.587  0.00  0.00    +0.000 NA
ATOM      8  C   UNL     1      -0.259  13.052  18.646  0.00  0.00    +0.000 A 
ATOM      9  N   UNL     1      -0.907  13.601  19.678  0.00  0.00    +0.000 NA
ATOM     10  C   UNL     1      -2.775  12.405  22.474  0.00  0.00    +0.000 C 
ATOM     11  C   UNL     1      -4.124  13.145  22.464  0.00  0.00    +0.000 C 
ENDROOT
BRANCH   6  12
ATOM     12  N   UNL     1       0.610   9.730  19.659  0.00  0.00    +0.000 N 
ATOM     13  C   UNL     1       0.797   9.034  20.952  0.00  0.00    +0.000 C 
ATOM     14  C   UNL     1       1.470   7.646  20.946  0.00  0.00    +0.000 C 
ATOM     15  C   UNL     1       2.190   7.333  19.700  0.00  0.00    +0.000 A 
ATOM     16  N   UNL     1       2.899   6.216  19.518  0.00  0.00    +0.000 NA
ATOM     17  O   UNL     1       3.383   6.307  18.217  0.00  0.00    +0.000 OA
ATOM     18  C   UNL     1       2.954   7.470  17.658  0.00  0.00    +0.000 A 
ATOM     19  C   UNL     1       2.194   8.154  18.567  0.00  0.00    +0.000 A 
ATOM     20  C   UNL     1       1.499   9.452  18.516  0.00  0.00    +0.000 C 
ENDBRANCH   6  12
BRANCH  11  21
ATOM     21  N   UNL     1      -5.008  12.747  21.359  0.00  0.00    +0.000 N 
ATOM     22  C   UNL     1      -4.561  12.359  20.041  0.00  0.00    +0.000 C 
ATOM     23  C   UNL     1      -5.859  12.277  19.263  0.00  0.00    +0.000 C 
ATOM     24  C   UNL     1      -6.860  11.766  20.292  0.00  0.00    +0.000 C 
ATOM     25  C   UNL     1      -6.294  12.269  21.597  0.00  0.00    +0.000 C 
ATOM     26  O   UNL     1      -6.858  12.211  22.680  0.00  0.00    +0.000 OA
ENDBRANCH  11  21
BRANCH   1  27
ATOM     27  N   UNL     1      -3.618  15.165  23.855  0.00  0.00    +0.000 NA
ATOM     28  H   UNL     1      -3.418  16.165  23.808  0.00  0.00    +0.000 HD
ATOM     29  H   UNL     1      -2.809  14.744  24.313  0.00  0.00    +0.000 HD
ENDBRANCH   1  27
TORSDOF 3
ENDMDL
MODEL 8
REMARK VINA RESULT:      -6.6      3.065      4.809
REMARK  Name = 
REMARK  3 active torsions:
REMARK  status: ('A' for Active; 'I' for Inactive)
REMARK    1  A    between atoms: N_1  and  C_2
REMARK    2  A    between atoms: C_7  and  N_8
REMARK    3  A    between atoms: C_21  and  N_22
REMARK                            x       y       z     vdW  Elec       q    Type
REMARK                         _______ _______ _______ _____ _____    ______ ____
ROOT
ATOM      1  C   UNL     1       0.098  14.583  19.614  0.00  0.00    +0.000 C 
ATOM      2  C   UNL     1      -0.474  13.344  20.348  0.00  0.00    +0.000 C 
ATOM      3  N   UNL     1       0.080  12.167  19.661  0.00  0.00    +0.000 N 
ATOM      4  C   UNL     1       0.356  11.042  20.442  0.00  0.00    +0.000 A 
ATOM      5  C   UNL     1       0.902   9.903  19.866  0.00  0.00    +0.000 A 
ATOM      6  C   UNL     1       1.271   8.837  20.672  0.00  0.00    +0.000 A 
ATOM      7  N   UNL     1       1.047   8.898  21.995  0.00  0.00    +0.000 NA
ATOM      8  C   UNL     1       0.440   9.995  22.464  0.00  0.00    +0.000 A 
ATOM      9  N   UNL     1       0.086  11.072  21.754  0.00  0.00    +0.000 NA
ATOM     10  C   UNL     1       1.106  12.580  18.685  0.00  0.00    +0.000 C 
ATOM     11  C   UNL     1       1.405  14.059  18.987  0.00  0.00    +0.000 C 
ENDROOT
BRANCH   6  12
ATOM     12  N   UNL     1       1.928   7.708  20.146  0.00  0.00    +0.000 N 
ATOM     13  C   UNL     1       2.280   7.726  18.708  0.00  0.00    +0.000 C 
ATOM     14  C   UNL     1       2.861   6.441  18.081  0.00  0.00    +0.000 C 
ATOM     15  C   UNL     1       2.649   5.229  18.890  0.00  0.00    +0.000 A 
ATOM     16  N   UNL     1       3.010   4.006  18.494  0.00  0.00    +0.000 NA
ATOM     17  O   UNL     1       2.658   3.170  19.549  0.00  0.00    +0.000 OA
ATOM     18  C   UNL     1       2.098   3.910  20.542  0.00  0.00    +0.000 A 
ATOM     19  C   UNL     1       2.071   5.226  20.164  0.00  0.00    +0.000 A 
ATOM     20  C   UNL     1       1.573   6.447  20.822  0.00  0.00    +0.000 C 
ENDBRANCH   6  12
BRANCH  11  21
ATOM     21  N   UNL     1       2.610  14.264  19.803  0.00  0.00    +0.000 N 
ATOM     22  C   UNL     1       2.928  13.532  21.007  0.00  0.00    +0.000 C 
ATOM     23  C   UNL     1       4.129  14.285  21.543  0.00  0.00    +0.000 C 
ATOM     24  C   UNL     1       4.865  14.726  20.284  0.00  0.00    +0.000 C 
ATOM     25  C   UNL     1       3.759  14.838  19.264  0.00  0.00    +0.000 C 
ATOM     26  O   UNL     1       3.878  15.306  18.141  0.00  0.00    +0.000 OA
ENDBRANCH  11  21
BRANCH   1  27
ATOM     27  N   UNL     1      -0.827  15.127  18.599  0.00  0.00    +0.000 NA
ATOM     28  H   UNL     1      -0.536  14.803  17.676  0.00  0.00    +0.000 HD
ATOM     29  H   UNL     1      -0.742  16.144  18.575  0.00  0.00    +0.000 HD
ENDBRANCH   1  27
TORSDOF 3
ENDMDL
MODEL 9
REMARK VINA RESULT:      -6.5      3.216      5.196
REMARK  Name = 
REMARK  3 active torsions:
REMARK  status: ('A' for Active; 'I' for Inactive)
REMARK    1  A    between atoms: N_1  and  C_2
REMARK    2  A    between atoms: C_7  and  N_8
REMARK    3  A    between atoms: C_21  and  N_22
REMARK                            x       y       z     vdW  Elec       q    Type
REMARK                         _______ _______ _______ _____ _____    ______ ____
ROOT
ATOM      1  C   UNL     1       0.042  15.484  19.413  0.00  0.00    +0.000 C 
ATOM      2  C   UNL     1      -0.687  14.229  19.958  0.00  0.00    +0.000 C 
ATOM      3  N   UNL     1      -0.011  13.069  19.359  0.00  0.00    +0.000 N 
ATOM      4  C   UNL     1       0.080  11.911  20.135  0.00  0.00    +0.000 A 
ATOM      5  C   UNL     1       0.725  10.784  19.643  0.00  0.00    +0.000 A 
ATOM      6  C   UNL     1       0.902   9.682  20.465  0.00  0.00    +0.000 A 
ATOM      7  N   UNL     1       0.401   9.698  21.712  0.00  0.00    +0.000 NA
ATOM      8  C   UNL     1      -0.280  10.789  22.084  0.00  0.00    +0.000 A 
ATOM      9  N   UNL     1      -0.464  11.897  21.359  0.00  0.00    +0.000 NA
ATOM     10  C   UNL     1       1.204  13.498  18.641  0.00  0.00    +0.000 C 
ATOM     11  C   UNL     1       1.446  14.960  19.059  0.00  0.00    +0.000 C 
ENDROOT
BRANCH   6  12
ATOM     12  N   UNL     1       1.645   8.562  20.047  0.00  0.00    +0.000 N 
ATOM     13  C   UNL     1       2.010   8.475  18.615  0.00  0.00    +0.000 C 
ATOM     14  C   UNL     1       2.689   7.185  18.109  0.00  0.00    +0.000 C 
ATOM     15  C   UNL     1       2.557   6.039  19.024  0.00  0.00    +0.000 A 
ATOM     16  N   UNL     1       3.010   4.814  18.742  0.00  0.00    +0.000 NA
ATOM     17  O   UNL     1       2.709   4.053  19.867  0.00  0.00    +0.000 OA
ATOM     18  C   UNL     1       2.086   4.838  20.787  0.00  0.00    +0.000 A 
ATOM     19  C   UNL     1       1.968   6.108  20.290  0.00  0.00    +0.000 A 
ATOM     20  C   UNL     1       1.376   7.344  20.833  0.00  0.00    +0.000 C 
ENDBRANCH   6  12
BRANCH  11  21
ATOM     21  N   UNL     1       2.451  15.112  20.120  0.00  0.00    +0.000 N 
ATOM     22  C   UNL     1       2.997  14.027  20.905  0.00  0.00    +0.000 C 
ATOM     23  C   UNL     1       3.792  14.758  21.969  0.00  0.00    +0.000 C 
ATOM     24  C   UNL     1       4.331  15.980  21.236  0.00  0.00    +0.000 C 
ATOM     25  C   UNL     1       3.298  16.216  20.162  0.00  0.00    +0.000 C 
ATOM     26  O   UNL     1       3.256  17.191  19.425  0.00  0.00    +0.000 OA
ENDBRANCH  11  21
BRANCH   1  27
ATOM     27  N   UNL     1      -0.640  16.083  18.248  0.00  0.00    +0.000 NA
ATOM     28  H   UNL     1      -1.544  16.452  18.546  0.00  0.00    +0.000 HD
ATOM     29  H   UNL     1      -0.851  15.353  17.567  0.00  0.00    +0.000 HD
ENDBRANCH   1  27
TORSDOF 3
ENDMDL
