MODEL 1
REMARK VINA RESULT:      -6.5      0.000      0.000
REMARK  Name = 
REMARK  3 active torsions:
REMARK  status: ('A' for Active; 'I' for Inactive)
REMARK    1  A    between atoms: C_2  and  C_3
REMARK    2  A    between atoms: C_3  and  N_4
REMARK    3  A    between atoms: C_6  and  C_7
REMARK                            x       y       z     vdW  Elec       q    Type
REMARK                         _______ _______ _______ _____ _____    ______ ____
ROOT
ATOM      1  C   UNL     1       4.304   3.584  19.665  0.00  0.00    +0.000 C 
ENDROOT
BRANCH   1   3
ATOM      2  O   UNL     1       3.032   1.921  18.514  0.00  0.00    +0.000 OA
ATOM      3  C   UNL     1       3.926   2.776  18.440  0.00  0.00    +0.000 C 
ATOM      4  N   UNL     1       4.479   3.007  17.217  0.00  0.00    +0.000 N 
ATOM      5  C   UNL     1       5.513   3.855  16.962  0.00  0.00    +0.000 A 
ATOM      6  N   UNL     1       6.329   4.407  17.816  0.00  0.00    +0.000 NA
ATOM      7  C   UNL     1       7.175   5.265  17.144  0.00  0.00    +0.000 A 
ATOM      8  C   UNL     1       6.992   5.325  15.778  0.00  0.00    +0.000 A 
ATOM      9  S   UNL     1       5.757   4.224  15.316  0.00  0.00    +0.000 S 
ATOM     10  H   UNL     1       4.050   2.538  16.430  0.00  0.00    +0.000 HD
ENDBRANCH   1   3
BRANCH   1  11
ATOM     11  N   UNL     1       3.395   4.693  19.842  0.00  0.00    +0.000 N 
ATOM     12  C   UNL     1       3.384   5.878  19.162  0.00  0.00    +0.000 A 
ATOM     13  C   UNL     1       2.340   6.574  19.719  0.00  0.00    +0.000 A 
ATOM     14  N   UNL     1       1.743   5.801  20.680  0.00  0.00    +0.000 NA
ATOM     15  N   UNL     1       2.387   4.639  20.734  0.00  0.00    +0.000 NA
BRANCH  13  16
ATOM     16  C   UNL     1       1.906   7.954  19.359  0.00  0.00    +0.000 A 
ATOM     17  C   UNL     1       2.106   8.521  18.118  0.00  0.00    +0.000 A 
ATOM     18  C   UNL     1       1.595   9.852  18.044  0.00  0.00    +0.000 A 
ATOM     19  C   UNL     1       1.023  10.249  19.232  0.00  0.00    +0.000 A 
ATOM     20  S   UNL     1       1.097   9.022  20.421  0.00  0.00    +0.000 S 
ENDBRANCH  13  16
ENDBRANCH   1  11
TORSDOF 3
ENDMDL
MODEL 2
REMARK VINA RESULT:      -6.5      1.051      1.145
REMARK  Name = 
REMARK  3 active torsions:
REMARK  status: ('A' for Active; 'I' for Inactive)
REMARK    1  A    between atoms: C_2  and  C_3
REMARK    2  A    between atoms: C_3  and  N_4
REMARK    3  A    between atoms: C_6  and  C_7
REMARK                            x       y       z     vdW  Elec       q    Type
REMARK                         _______ _______ _______ _____ _____    ______ ____
ROOT
ATOM      1  C   UNL     1       3.975   3.465  19.749  0.00  0.00    +0.000 C 
ENDROOT
BRANCH   1   3
ATOM      2  O   UNL     1       3.384   2.427  17.680  0.00  0.00    +0.000 OA
ATOM      3  C   UNL     1       4.168   3.181  18.272  0.00  0.00    +0.000 C 
ATOM      4  N   UNL     1       5.137   3.792  17.535  0.00  0.00    +0.000 N 
ATOM      5  C   UNL     1       6.120   4.593  18.027  0.00  0.00    +0.000 A 
ATOM      6  N   UNL     1       6.493   4.739  19.269  0.00  0.00    +0.000 NA
ATOM      7  C   UNL     1       7.467   5.714  19.338  0.00  0.00    +0.000 A 
ATOM      8  C   UNL     1       7.829   6.273  18.130  0.00  0.00    +0.000 A 
ATOM      9  S   UNL     1       6.961   5.508  16.861  0.00  0.00    +0.000 S 
ATOM     10  H   UNL     1       5.086   3.670  16.533  0.00  0.00    +0.000 HD
ENDBRANCH   1   3
BRANCH   1  11
ATOM     11  N   UNL     1       3.154   4.640  19.936  0.00  0.00    +0.000 N 
ATOM     12  C   UNL     1       3.162   5.789  19.197  0.00  0.00    +0.000 A 
ATOM     13  C   UNL     1       2.212   6.579  19.795  0.00  0.00    +0.000 A 
ATOM     14  N   UNL     1       1.647   5.894  20.839  0.00  0.00    +0.000 NA
ATOM     15  N   UNL     1       2.219   4.696  20.905  0.00  0.00    +0.000 NA
BRANCH  13  16
ATOM     16  C   UNL     1       1.837   7.965  19.397  0.00  0.00    +0.000 A 
ATOM     17  C   UNL     1       2.133   8.515  18.168  0.00  0.00    +0.000 A 
ATOM     18  C   UNL     1       1.661   9.858  18.050  0.00  0.00    +0.000 A 
ATOM     19  C   UNL     1       1.023  10.281  19.195  0.00  0.00    +0.000 A 
ATOM     20  S   UNL     1       0.988   9.063  20.396  0.00  0.00    +0.000 S 
ENDBRANCH  13  16
ENDBRANCH   1  11
TORSDOF 3
ENDMDL
MODEL 3
REMARK VINA RESULT:      -6.5      3.792      7.040
REMARK  Name = 
REMARK  3 active torsions:
REMARK  status: ('A' for Active; 'I' for Inactive)
REMARK    1  A    between atoms: C_2  and  C_3
REMARK    2  A    between atoms: C_3  and  N_4
REMARK    3  A    between atoms: C_6  and  C_7
REMARK                            x       y       z     vdW  Elec       q    Type
REMARK                         _______ _______ _______ _____ _____    ______ ____
ROOT
ATOM      1  C   UNL     1       7.532   4.596  17.598  0.00  0.00    +0.000 C 
ENDROOT
BRANCH   1   3
ATOM      2  O   UNL     1       7.710   6.893  18.231  0.00  0.00    +0.000 OA
ATOM      3  C   UNL     1       7.042   5.851  18.292  0.00  0.00    +0.000 C 
ATOM      4  N   UNL     1       5.838   5.910  18.925  0.00  0.00    +0.000 N 
ATOM      5  C   UNL     1       5.007   4.854  19.146  0.00  0.00    +0.000 A 
ATOM      6  N   UNL     1       5.276   3.583  19.040  0.00  0.00    +0.000 NA
ATOM      7  C   UNL     1       4.126   2.855  19.269  0.00  0.00    +0.000 A 
ATOM      8  C   UNL     1       3.005   3.602  19.569  0.00  0.00    +0.000 A 
ATOM      9  S   UNL     1       3.423   5.267  19.623  0.00  0.00    +0.000 S 
ATOM     10  H   UNL     1       5.522   6.826  19.213  0.00  0.00    +0.000 HD
ENDBRANCH   1   3
BRANCH   1  11
ATOM     11  N   UNL     1       7.208   4.634  16.191  0.00  0.00    +0.000 N 
ATOM     12  C   UNL     1       6.482   3.723  15.478  0.00  0.00    +0.000 A 
ATOM     13  C   UNL     1       6.481   4.222  14.199  0.00  0.00    +0.000 A 
ATOM     14  N   UNL     1       7.166   5.408  14.176  0.00  0.00    +0.000 NA
ATOM     15  N   UNL     1       7.592   5.662  15.410  0.00  0.00    +0.000 NA
BRANCH  13  16
ATOM     16  C   UNL     1       5.847   3.593  13.005  0.00  0.00    +0.000 A 
ATOM     17  C   UNL     1       4.566   3.876  12.580  0.00  0.00    +0.000 A 
ATOM     18  C   UNL     1       4.209   3.133  11.414  0.00  0.00    +0.000 A 
ATOM     19  C   UNL     1       5.231   2.311  10.995  0.00  0.00    +0.000 A 
ATOM     20  S   UNL     1       6.611   2.444  11.996  0.00  0.00    +0.000 S 
ENDBRANCH  13  16
ENDBRANCH   1  11
TORSDOF 3
ENDMDL
MODEL 4
REMARK VINA RESULT:      -6.4      4.556      6.076
REMARK  Name = 
REMARK  3 active torsions:
REMARK  status: ('A' for Active; 'I' for Inactive)
REMARK    1  A    between atoms: C_2  and  C_3
REMARK    2  A    between atoms: C_3  and  N_4
REMARK    3  A    between atoms: C_6  and  C_7
REMARK                            x       y       z     vdW  Elec       q    Type
REMARK                         _______ _______ _______ _____ _____    ______ ____
ROOT
ATOM      1  C   UNL     1       7.559   5.446  18.300  0.00  0.00    +0.000 C 
ENDROOT
BRANCH   1   3
ATOM      2  O   UNL     1       7.831   4.623  16.074  0.00  0.00    +0.000 OA
ATOM      3  C   UNL     1       7.044   4.856  17.002  0.00  0.00    +0.000 C 
ATOM      4  N   UNL     1       5.744   4.488  16.836  0.00  0.00    +0.000 N 
ATOM      5  C   UNL     1       4.734   4.727  17.717  0.00  0.00    +0.000 A 
ATOM      6  N   UNL     1       4.732   5.540  18.737  0.00  0.00    +0.000 NA
ATOM      7  C   UNL     1       3.537   5.412  19.415  0.00  0.00    +0.000 A 
ATOM      8  C   UNL     1       2.644   4.511  18.874  0.00  0.00    +0.000 A 
ATOM      9  S   UNL     1       3.302   3.847  17.433  0.00  0.00    +0.000 S 
ATOM     10  H   UNL     1       5.527   3.954  16.005  0.00  0.00    +0.000 HD
ENDBRANCH   1   3
BRANCH   1  11
ATOM     11  N   UNL     1       7.778   6.867  18.160  0.00  0.00    +0.000 N 
ATOM     12  C   UNL     1       8.568   7.670  18.934  0.00  0.00    +0.000 A 
ATOM     13  C   UNL     1       8.414   8.919  18.387  0.00  0.00    +0.000 A 
ATOM     14  N   UNL     1       7.576   8.840  17.305  0.00  0.00    +0.000 NA
ATOM     15  N   UNL     1       7.206   7.570  17.163  0.00  0.00    +0.000 NA
BRANCH  13  16
ATOM     16  C   UNL     1       9.042  10.181  18.874  0.00  0.00    +0.000 A 
ATOM     17  C   UNL     1       9.349  10.422  20.196  0.00  0.00    +0.000 A 
ATOM     18  C   UNL     1       9.940  11.708  20.386  0.00  0.00    +0.000 A 
ATOM     19  C   UNL     1      10.061  12.399  19.200  0.00  0.00    +0.000 A 
ATOM     20  S   UNL     1       9.473  11.496  17.871  0.00  0.00    +0.000 S 
ENDBRANCH  13  16
ENDBRANCH   1  11
TORSDOF 3
ENDMDL
MODEL 5
REMARK VINA RESULT:      -6.4      3.516      7.103
REMARK  Name = 
REMARK  3 active torsions:
REMARK  status: ('A' for Active; 'I' for Inactive)
REMARK    1  A    between atoms: C_2  and  C_3
REMARK    2  A    between atoms: C_3  and  N_4
REMARK    3  A    between atoms: C_6  and  C_7
REMARK                            x       y       z     vdW  Elec       q    Type
REMARK                         _______ _______ _______ _____ _____    ______ ____
ROOT
ATOM      1  C   UNL     1       6.342   5.778  17.266  0.00  0.00    +0.000 C 
ENDROOT
BRANCH   1   3
ATOM      2  O   UNL     1       7.892   4.435  18.491  0.00  0.00    +0.000 OA
ATOM      3  C   UNL     1       6.702   4.688  18.255  0.00  0.00    +0.000 C 
ATOM      4  N   UNL     1       5.759   4.014  18.970  0.00  0.00    +0.000 N 
ATOM      5  C   UNL     1       4.413   4.113  18.797  0.00  0.00    +0.000 A 
ATOM      6  N   UNL     1       3.768   4.643  17.795  0.00  0.00    +0.000 NA
ATOM      7  C   UNL     1       2.414   4.611  18.060  0.00  0.00    +0.000 A 
ATOM      8  C   UNL     1       2.061   4.029  19.260  0.00  0.00    +0.000 A 
ATOM      9  S   UNL     1       3.470   3.451  20.053  0.00  0.00    +0.000 S 
ATOM     10  H   UNL     1       6.096   3.426  19.721  0.00  0.00    +0.000 HD
ENDBRANCH   1   3
BRANCH   1  11
ATOM     11  N   UNL     1       6.539   5.319  15.910  0.00  0.00    +0.000 N 
ATOM     12  C   UNL     1       5.713   4.520  15.172  0.00  0.00    +0.000 A 
ATOM     13  C   UNL     1       6.365   4.380  13.972  0.00  0.00    +0.000 A 
ATOM     14  N   UNL     1       7.529   5.104  14.003  0.00  0.00    +0.000 NA
ATOM     15  N   UNL     1       7.616   5.693  15.192  0.00  0.00    +0.000 NA
BRANCH  13  16
ATOM     16  C   UNL     1       5.907   3.574  12.805  0.00  0.00    +0.000 A 
ATOM     17  C   UNL     1       4.624   3.613  12.304  0.00  0.00    +0.000 A 
ATOM     18  C   UNL     1       4.454   2.741  11.186  0.00  0.00    +0.000 A 
ATOM     19  C   UNL     1       5.616   2.069  10.877  0.00  0.00    +0.000 A 
ATOM     20  S   UNL     1       6.900   2.496  11.924  0.00  0.00    +0.000 S 
ENDBRANCH  13  16
ENDBRANCH   1  11
TORSDOF 3
ENDMDL
MODEL 6
REMARK VINA RESULT:      -6.3      1.843      2.193
REMARK  Name = 
REMARK  3 active torsions:
REMARK  status: ('A' for Active; 'I' for Inactive)
REMARK    1  A    between atoms: C_2  and  C_3
REMARK    2  A    between atoms: C_3  and  N_4
REMARK    3  A    between atoms: C_6  and  C_7
REMARK                            x       y       z     vdW  Elec       q    Type
REMARK                         _______ _______ _______ _____ _____    ______ ____
ROOT
ATOM      1  C   UNL     1       3.180   4.500  19.158  0.00  0.00    +0.000 C 
ENDROOT
BRANCH   1   3
ATOM      2  O   UNL     1       1.624   3.547  17.615  0.00  0.00    +0.000 OA
ATOM      3  C   UNL     1       2.791   3.909  17.816  0.00  0.00    +0.000 C 
ATOM      4  N   UNL     1       3.666   3.830  16.776  0.00  0.00    +0.000 N 
ATOM      5  C   UNL     1       4.995   4.118  16.834  0.00  0.00    +0.000 A 
ATOM      6  N   UNL     1       5.739   4.272  17.895  0.00  0.00    +0.000 NA
ATOM      7  C   UNL     1       7.011   4.640  17.506  0.00  0.00    +0.000 A 
ATOM      8  C   UNL     1       7.208   4.734  16.144  0.00  0.00    +0.000 A 
ATOM      9  S   UNL     1       5.767   4.288  15.324  0.00  0.00    +0.000 S 
ATOM     10  H   UNL     1       3.278   3.579  15.877  0.00  0.00    +0.000 HD
ENDBRANCH   1   3
BRANCH   1  11
ATOM     11  N   UNL     1       2.709   5.862  19.268  0.00  0.00    +0.000 N 
ATOM     12  C   UNL     1       2.022   6.425  20.306  0.00  0.00    +0.000 A 
ATOM     13  C   UNL     1       1.812   7.720  19.905  0.00  0.00    +0.000 A 
ATOM     14  N   UNL     1       2.388   7.913  18.676  0.00  0.00    +0.000 NA
ATOM     15  N   UNL     1       2.953   6.769  18.302  0.00  0.00    +0.000 NA
BRANCH  13  16
ATOM     16  C   UNL     1       1.076   8.772  20.663  0.00  0.00    +0.000 A 
ATOM     17  C   UNL     1       0.981   8.800  22.038  0.00  0.00    +0.000 A 
ATOM     18  C   UNL     1       0.217   9.913  22.503  0.00  0.00    +0.000 A 
ATOM     19  C   UNL     1      -0.242  10.692  21.464  0.00  0.00    +0.000 A 
ATOM     20  S   UNL     1       0.254  10.087  19.943  0.00  0.00    +0.000 S 
ENDBRANCH  13  16
ENDBRANCH   1  11
TORSDOF 3
ENDMDL
MODEL 7
REMARK VINA RESULT:      -6.3      1.095      1.367
REMARK  Name = 
REMARK  3 active torsions:
REMARK  status: ('A' for Active; 'I' for Inactive)
REMARK    1  A    between atoms: C_2  and  C_3
REMARK    2  A    between atoms: C_3  and  N_4
REMARK    3  A    between atoms: C_6  and  C_7
REMARK                            x       y       z     vdW  Elec       q    Type
REMARK                         _______ _______ _______ _____ _____    ______ ____
ROOT
ATOM      1  C   UNL     1       4.205   3.228  19.625  0.00  0.00    +0.000 C 
ENDROOT
BRANCH   1   3
ATOM      2  O   UNL     1       3.327   1.997  17.775  0.00  0.00    +0.000 OA
ATOM      3  C   UNL     1       4.139   2.851  18.158  0.00  0.00    +0.000 C 
ATOM      4  N   UNL     1       4.891   3.477  17.211  0.00  0.00    +0.000 N 
ATOM      5  C   UNL     1       5.874   4.386  17.454  0.00  0.00    +0.000 A 
ATOM      6  N   UNL     1       6.461   4.652  18.588  0.00  0.00    +0.000 NA
ATOM      7  C   UNL     1       7.340   5.701  18.408  0.00  0.00    +0.000 A 
ATOM      8  C   UNL     1       7.414   6.195  17.123  0.00  0.00    +0.000 A 
ATOM      9  S   UNL     1       6.392   5.274  16.095  0.00  0.00    +0.000 S 
ATOM     10  H   UNL     1       4.662   3.277  16.247  0.00  0.00    +0.000 HD
ENDBRANCH   1   3
BRANCH   1  11
ATOM     11  N   UNL     1       3.225   4.245  19.932  0.00  0.00    +0.000 N 
ATOM     12  C   UNL     1       3.277   5.574  19.620  0.00  0.00    +0.000 A 
ATOM     13  C   UNL     1       2.117   6.087  20.144  0.00  0.00    +0.000 A 
ATOM     14  N   UNL     1       1.395   5.075  20.722  0.00  0.00    +0.000 NA
ATOM     15  N   UNL     1       2.077   3.943  20.569  0.00  0.00    +0.000 NA
BRANCH  13  16
ATOM     16  C   UNL     1       1.686   7.513  20.109  0.00  0.00    +0.000 A 
ATOM     17  C   UNL     1       1.148   8.178  21.191  0.00  0.00    +0.000 A 
ATOM     18  C   UNL     1       0.821   9.533  20.883  0.00  0.00    +0.000 A 
ATOM     19  C   UNL     1       1.121   9.851  19.577  0.00  0.00    +0.000 A 
ATOM     20  S   UNL     1       1.800   8.525  18.736  0.00  0.00    +0.000 S 
ENDBRANCH  13  16
ENDBRANCH   1  11
TORSDOF 3
ENDMDL
MODEL 8
REMARK VINA RESULT:      -6.2      1.677      2.031
REMARK  Name = 
REMARK  3 active torsions:
REMARK  status: ('A' for Active; 'I' for Inactive)
REMARK    1  A    between atoms: C_2  and  C_3
REMARK    2  A    between atoms: C_3  and  N_4
REMARK    3  A    between atoms: C_6  and  C_7
REMARK                            x       y       z     vdW  Elec       q    Type
REMARK                         _______ _______ _______ _____ _____    ______ ____
ROOT
ATOM      1  C   UNL     1       3.130   4.662  19.149  0.00  0.00    +0.000 C 
ENDROOT
BRANCH   1   3
ATOM      2  O   UNL     1       1.616   3.620  17.622  0.00  0.00    +0.000 OA
ATOM      3  C   UNL     1       2.780   3.986  17.838  0.00  0.00    +0.000 C 
ATOM      4  N   UNL     1       3.687   3.831  16.834  0.00  0.00    +0.000 N 
ATOM      5  C   UNL     1       5.016   4.113  16.917  0.00  0.00    +0.000 A 
ATOM      6  N   UNL     1       5.726   4.333  17.989  0.00  0.00    +0.000 NA
ATOM      7  C   UNL     1       7.013   4.664  17.619  0.00  0.00    +0.000 A 
ATOM      8  C   UNL     1       7.256   4.665  16.261  0.00  0.00    +0.000 A 
ATOM      9  S   UNL     1       5.838   4.176  15.425  0.00  0.00    +0.000 S 
ATOM     10  H   UNL     1       3.326   3.523  15.941  0.00  0.00    +0.000 HD
ENDBRANCH   1   3
BRANCH   1  11
ATOM     11  N   UNL     1       2.661   6.029  19.156  0.00  0.00    +0.000 N 
ATOM     12  C   UNL     1       2.018   6.685  20.167  0.00  0.00    +0.000 A 
ATOM     13  C   UNL     1       1.788   7.939  19.660  0.00  0.00    +0.000 A 
ATOM     14  N   UNL     1       2.310   8.019  18.395  0.00  0.00    +0.000 NA
ATOM     15  N   UNL     1       2.861   6.845  18.102  0.00  0.00    +0.000 NA
BRANCH  13  16
ATOM     16  C   UNL     1       1.083   9.056  20.351  0.00  0.00    +0.000 A 
ATOM     17  C   UNL     1       0.515  10.126  19.694  0.00  0.00    +0.000 A 
ATOM     18  C   UNL     1      -0.094  11.052  20.594  0.00  0.00    +0.000 A 
ATOM     19  C   UNL     1       0.033  10.652  21.906  0.00  0.00    +0.000 A 
ATOM     20  S   UNL     1       0.873   9.168  22.044  0.00  0.00    +0.000 S 
ENDBRANCH  13  16
ENDBRANCH   1  11
TORSDOF 3
ENDMDL
MODEL 9
REMARK VINA RESULT:      -6.2      2.451      3.122
REMARK  Name = 
REMARK  3 active torsions:
REMARK  status: ('A' for Active; 'I' for Inactive)
REMARK    1  A    between atoms: C_2  and  C_3
REMARK    2  A    between atoms: C_3  and  N_4
REMARK    3  A    between atoms: C_6  and  C_7
REMARK                            x       y       z     vdW  Elec       q    Type
REMARK                         _______ _______ _______ _____ _____    ______ ____
ROOT
ATOM      1  C   UNL     1       5.945   4.525  17.162  0.00  0.00    +0.000 C 
ENDROOT
BRANCH   1   3
ATOM      2  O   UNL     1       7.561   6.267  17.404  0.00  0.00    +0.000 OA
ATOM      3  C   UNL     1       6.975   5.501  16.628  0.00  0.00    +0.000 C 
ATOM      4  N   UNL     1       7.350   5.519  15.319  0.00  0.00    +0.000 N 
ATOM      5  C   UNL     1       6.771   4.799  14.319  0.00  0.00    +0.000 A 
ATOM      6  N   UNL     1       5.630   4.167  14.339  0.00  0.00    +0.000 NA
ATOM      7  C   UNL     1       5.463   3.496  13.146  0.00  0.00    +0.000 A 
ATOM      8  C   UNL     1       6.483   3.655  12.231  0.00  0.00    +0.000 A 
ATOM      9  S   UNL     1       7.661   4.731  12.867  0.00  0.00    +0.000 S 
ATOM     10  H   UNL     1       8.156   6.084  15.087  0.00  0.00    +0.000 HD
ENDBRANCH   1   3
BRANCH   1  11
ATOM     11  N   UNL     1       4.939   5.220  17.932  0.00  0.00    +0.000 N 
ATOM     12  C   UNL     1       4.268   6.360  17.591  0.00  0.00    +0.000 A 
ATOM     13  C   UNL     1       3.445   6.598  18.664  0.00  0.00    +0.000 A 
ATOM     14  N   UNL     1       3.614   5.605  19.593  0.00  0.00    +0.000 NA
ATOM     15  N   UNL     1       4.520   4.752  19.124  0.00  0.00    +0.000 NA
BRANCH  13  16
ATOM     16  C   UNL     1       2.510   7.748  18.822  0.00  0.00    +0.000 A 
ATOM     17  C   UNL     1       2.247   8.664  17.825  0.00  0.00    +0.000 A 
ATOM     18  C   UNL     1       1.317   9.663  18.243  0.00  0.00    +0.000 A 
ATOM     19  C   UNL     1       0.905   9.471  19.543  0.00  0.00    +0.000 A 
ATOM     20  S   UNL     1       1.631   8.091  20.248  0.00  0.00    +0.000 S 
ENDBRANCH  13  16
ENDBRANCH   1  11
TORSDOF 3
ENDMDL
