MODEL 1
REMARK VINA RESULT:      -8.9      0.000      0.000
REMARK  Name = 
REMARK  4 active torsions:
REMARK  status: ('A' for Active; 'I' for Inactive)
REMARK    1  A    between atoms: C_1  and  C_2
REMARK    2  A    between atoms: C_2  and  C_4
REMARK    3  A    between atoms: C_8  and  N_9
REMARK    4  A    between atoms: C_10  and  C_12
REMARK                            x       y       z     vdW  Elec       q    Type
REMARK                         _______ _______ _______ _____ _____    ______ ____
ROOT
ATOM      1  C   UNL     1       3.640   3.732  19.721  0.00  0.00    +0.000 A 
ATOM      2  C   UNL     1       3.446   2.544  20.412  0.00  0.00    +0.000 A 
ATOM      3  C   UNL     1       2.432   2.760  21.368  0.00  0.00    +0.000 A 
ATOM      4  C   UNL     1       2.007   4.058  21.223  0.00  0.00    +0.000 A 
ATOM      5  N   UNL     1       2.664   4.640  20.145  0.00  0.00    +0.000 N 
ATOM      6  C   UNL     1       2.386   5.895  19.585  0.00  0.00    +0.000 A 
ATOM      7  N   UNL     1       2.593   6.205  18.330  0.00  0.00    +0.000 NA
ATOM      8  N   UNL     1       2.272   7.529  18.089  0.00  0.00    +0.000 NA
ATOM      9  C   UNL     1       1.865   8.183  19.167  0.00  0.00    +0.000 A 
ATOM     10  N   UNL     1       1.607   9.527  19.221  0.00  0.00    +0.000 N 
ATOM     11  C   UNL     1       1.722  10.292  17.976  0.00  0.00    +0.000 C 
ATOM     12  C   UNL     1       2.135  11.730  18.295  0.00  0.00    +0.000 C 
ATOM     13  C   UNL     1       1.212  12.375  19.327  0.00  0.00    +0.000 C 
ATOM     14  C   UNL     1       1.060  11.491  20.561  0.00  0.00    +0.000 C 
ATOM     15  C   UNL     1       0.651  10.070  20.184  0.00  0.00    +0.000 C 
ATOM     16  S   UNL     1       1.758   7.134  20.551  0.00  0.00    +0.000 S 
ENDROOT
BRANCH   1  18
ATOM     17  N   UNL     1       4.498   4.031  17.496  0.00  0.00    +0.000 N 
ATOM     18  C   UNL     1       4.746   4.116  18.858  0.00  0.00    +0.000 C 
ATOM     19  O   UNL     1       5.821   4.436  19.347  0.00  0.00    +0.000 OA
ATOM     20  H   UNL     1       3.550   3.821  17.214  0.00  0.00    +0.000 HD
BRANCH  17  25
ATOM     21  C   UNL     1       6.047   4.108  14.113  0.00  0.00    +0.000 A 
ATOM     22  C   UNL     1       7.191   4.882  14.338  0.00  0.00    +0.000 A 
ATOM     23  C   UNL     1       7.461   5.354  15.614  0.00  0.00    +0.000 A 
ATOM     24  C   UNL     1       6.591   5.067  16.667  0.00  0.00    +0.000 A 
ATOM     25  C   UNL     1       5.428   4.314  16.464  0.00  0.00    +0.000 A 
ATOM     26  C   UNL     1       5.169   3.822  15.178  0.00  0.00    +0.000 A 
BRANCH  21  28
ATOM     27  C   UNL     1       6.870   3.144  11.863  0.00  0.00    +0.000 C 
ATOM     28  C   UNL     1       5.733   3.581  12.753  0.00  0.00    +0.000 C 
ATOM     29  O   UNL     1       4.563   3.507  12.382  0.00  0.00    +0.000 OA
ENDBRANCH  21  28
ENDBRANCH  17  25
ENDBRANCH   1  18
TORSDOF 3
ENDMDL
MODEL 2
REMARK VINA RESULT:      -7.9      4.663      7.309
REMARK  Name = 
REMARK  4 active torsions:
REMARK  status: ('A' for Active; 'I' for Inactive)
REMARK    1  A    between atoms: C_1  and  C_2
REMARK    2  A    between atoms: C_2  and  C_4
REMARK    3  A    between atoms: C_8  and  N_9
REMARK    4  A    between atoms: C_10  and  C_12
REMARK                            x       y       z     vdW  Elec       q    Type
REMARK                         _______ _______ _______ _____ _____    ______ ____
ROOT
ATOM      1  C   UNL     1      -0.155  10.561  22.213  0.00  0.00    +0.000 A 
ATOM      2  C   UNL     1      -1.267  10.423  23.033  0.00  0.00    +0.000 A 
ATOM      3  C   UNL     1      -1.748  11.714  23.332  0.00  0.00    +0.000 A 
ATOM      4  C   UNL     1      -0.944  12.610  22.668  0.00  0.00    +0.000 A 
ATOM      5  N   UNL     1      -0.025  11.916  21.890  0.00  0.00    +0.000 N 
ATOM      6  C   UNL     1       0.854  12.473  20.952  0.00  0.00    +0.000 A 
ATOM      7  N   UNL     1       1.300  11.843  19.893  0.00  0.00    +0.000 NA
ATOM      8  N   UNL     1       2.191  12.633  19.188  0.00  0.00    +0.000 NA
ATOM      9  C   UNL     1       2.414  13.813  19.747  0.00  0.00    +0.000 A 
ATOM     10  N   UNL     1       3.341  14.725  19.316  0.00  0.00    +0.000 N 
ATOM     11  C   UNL     1       4.098  14.403  18.103  0.00  0.00    +0.000 C 
ATOM     12  C   UNL     1       5.481  15.053  18.175  0.00  0.00    +0.000 C 
ATOM     13  C   UNL     1       5.395  16.550  18.464  0.00  0.00    +0.000 C 
ATOM     14  C   UNL     1       4.521  16.828  19.683  0.00  0.00    +0.000 C 
ATOM     15  C   UNL     1       3.157  16.155  19.559  0.00  0.00    +0.000 C 
ATOM     16  S   UNL     1       1.425  14.053  21.158  0.00  0.00    +0.000 S 
ENDROOT
BRANCH   1  18
ATOM     17  N   UNL     1       0.574   8.780  20.772  0.00  0.00    +0.000 N 
ATOM     18  C   UNL     1       0.857   9.573  21.875  0.00  0.00    +0.000 C 
ATOM     19  O   UNL     1       1.852   9.450  22.577  0.00  0.00    +0.000 OA
ATOM     20  H   UNL     1      -0.246   9.022  20.231  0.00  0.00    +0.000 HD
BRANCH  17  25
ATOM     21  C   UNL     1       2.018   5.376  20.363  0.00  0.00    +0.000 A 
ATOM     22  C   UNL     1       2.914   5.568  19.305  0.00  0.00    +0.000 A 
ATOM     23  C   UNL     1       3.057   6.830  18.748  0.00  0.00    +0.000 A 
ATOM     24  C   UNL     1       2.305   7.901  19.232  0.00  0.00    +0.000 A 
ATOM     25  C   UNL     1       1.385   7.730  20.274  0.00  0.00    +0.000 A 
ATOM     26  C   UNL     1       1.258   6.459  20.848  0.00  0.00    +0.000 A 
BRANCH  21  28
ATOM     27  C   UNL     1       1.042   2.987  20.253  0.00  0.00    +0.000 C 
ATOM     28  C   UNL     1       1.846   4.032  20.988  0.00  0.00    +0.000 C 
ATOM     29  O   UNL     1       2.361   3.796  22.079  0.00  0.00    +0.000 OA
ENDBRANCH  21  28
ENDBRANCH  17  25
ENDBRANCH   1  18
TORSDOF 3
ENDMDL
MODEL 3
REMARK VINA RESULT:      -7.5      4.611      7.778
REMARK  Name = 
REMARK  4 active torsions:
REMARK  status: ('A' for Active; 'I' for Inactive)
REMARK    1  A    between atoms: C_1  and  C_2
REMARK    2  A    between atoms: C_2  and  C_4
REMARK    3  A    between atoms: C_8  and  N_9
REMARK    4  A    between atoms: C_10  and  C_12
REMARK                            x       y       z     vdW  Elec       q    Type
REMARK                         _______ _______ _______ _____ _____    ______ ____
ROOT
ATOM      1  C   UNL     1      -0.769  11.727  21.203  0.00  0.00    +0.000 A 
ATOM      2  C   UNL     1      -1.764  11.706  22.171  0.00  0.00    +0.000 A 
ATOM      3  C   UNL     1      -1.538  12.786  23.049  0.00  0.00    +0.000 A 
ATOM      4  C   UNL     1      -0.434  13.460  22.586  0.00  0.00    +0.000 A 
ATOM      5  N   UNL     1      -0.011  12.887  21.392  0.00  0.00    +0.000 N 
ATOM      6  C   UNL     1       0.981  13.389  20.538  0.00  0.00    +0.000 A 
ATOM      7  N   UNL     1       1.009  13.191  19.244  0.00  0.00    +0.000 NA
ATOM      8  N   UNL     1       2.136  13.765  18.681  0.00  0.00    +0.000 NA
ATOM      9  C   UNL     1       2.934  14.346  19.563  0.00  0.00    +0.000 A 
ATOM     10  N   UNL     1       4.165  14.876  19.282  0.00  0.00    +0.000 N 
ATOM     11  C   UNL     1       4.607  14.862  17.884  0.00  0.00    +0.000 C 
ATOM     12  C   UNL     1       6.133  14.767  17.830  0.00  0.00    +0.000 C 
ATOM     13  C   UNL     1       6.803  15.850  18.673  0.00  0.00    +0.000 C 
ATOM     14  C   UNL     1       6.239  15.875  20.091  0.00  0.00    +0.000 C 
ATOM     15  C   UNL     1       4.715  15.967  20.084  0.00  0.00    +0.000 C 
ATOM     16  S   UNL     1       2.259  14.301  21.167  0.00  0.00    +0.000 S 
ENDROOT
BRANCH   1  18
ATOM     17  N   UNL     1       0.880  10.148  20.451  0.00  0.00    +0.000 N 
ATOM     18  C   UNL     1      -0.387  10.684  20.265  0.00  0.00    +0.000 C 
ATOM     19  O   UNL     1      -1.144  10.369  19.356  0.00  0.00    +0.000 OA
ATOM     20  H   UNL     1       1.385  10.439  21.277  0.00  0.00    +0.000 HD
BRANCH  17  25
ATOM     21  C   UNL     1       2.284   6.856  19.432  0.00  0.00    +0.000 A 
ATOM     22  C   UNL     1       2.628   7.091  18.097  0.00  0.00    +0.000 A 
ATOM     23  C   UNL     1       2.419   8.346  17.544  0.00  0.00    +0.000 A 
ATOM     24  C   UNL     1       1.860   9.367  18.313  0.00  0.00    +0.000 A 
ATOM     25  C   UNL     1       1.486   9.152  19.645  0.00  0.00    +0.000 A 
ATOM     26  C   UNL     1       1.717   7.889  20.206  0.00  0.00    +0.000 A 
BRANCH  21  28
ATOM     27  C   UNL     1       1.317   4.784  20.633  0.00  0.00    +0.000 C 
ATOM     28  C   UNL     1       2.503   5.518  20.057  0.00  0.00    +0.000 C 
ATOM     29  O   UNL     1       3.634   5.038  20.089  0.00  0.00    +0.000 OA
ENDBRANCH  21  28
ENDBRANCH  17  25
ENDBRANCH   1  18
TORSDOF 3
ENDMDL
MODEL 4
REMARK VINA RESULT:      -7.5      3.853      6.638
REMARK  Name = 
REMARK  4 active torsions:
REMARK  status: ('A' for Active; 'I' for Inactive)
REMARK    1  A    between atoms: C_1  and  C_2
REMARK    2  A    between atoms: C_2  and  C_4
REMARK    3  A    between atoms: C_8  and  N_9
REMARK    4  A    between atoms: C_10  and  C_12
REMARK                            x       y       z     vdW  Elec       q    Type
REMARK                         _______ _______ _______ _____ _____    ______ ____
ROOT
ATOM      1  C   UNL     1      -0.177  10.557  18.697  0.00  0.00    +0.000 A 
ATOM      2  C   UNL     1      -1.532  10.309  18.525  0.00  0.00    +0.000 A 
ATOM      3  C   UNL     1      -2.192  11.552  18.432  0.00  0.00    +0.000 A 
ATOM      4  C   UNL     1      -1.229  12.529  18.518  0.00  0.00    +0.000 A 
ATOM      5  N   UNL     1       0.026  11.935  18.574  0.00  0.00    +0.000 N 
ATOM      6  C   UNL     1       1.259  12.597  18.507  0.00  0.00    +0.000 A 
ATOM      7  N   UNL     1       2.359  12.064  18.035  0.00  0.00    +0.000 NA
ATOM      8  N   UNL     1       3.422  12.943  18.148  0.00  0.00    +0.000 NA
ATOM      9  C   UNL     1       3.104  14.091  18.726  0.00  0.00    +0.000 A 
ATOM     10  N   UNL     1       3.995  15.075  19.065  0.00  0.00    +0.000 N 
ATOM     11  C   UNL     1       5.400  14.874  18.700  0.00  0.00    +0.000 C 
ATOM     12  C   UNL     1       6.299  15.584  19.713  0.00  0.00    +0.000 C 
ATOM     13  C   UNL     1       5.915  17.053  19.888  0.00  0.00    +0.000 C 
ATOM     14  C   UNL     1       4.425  17.204  20.177  0.00  0.00    +0.000 C 
ATOM     15  C   UNL     1       3.577  16.474  19.138  0.00  0.00    +0.000 C 
ATOM     16  S   UNL     1       1.401  14.185  19.074  0.00  0.00    +0.000 S 
ENDROOT
BRANCH   1  18
ATOM     17  N   UNL     1       1.349   8.779  18.160  0.00  0.00    +0.000 N 
ATOM     18  C   UNL     1       0.869   9.645  19.132  0.00  0.00    +0.000 C 
ATOM     19  O   UNL     1       1.233   9.642  20.300  0.00  0.00    +0.000 OA
ATOM     20  H   UNL     1       1.021   8.923  17.214  0.00  0.00    +0.000 HD
BRANCH  17  25
ATOM     21  C   UNL     1       4.445   6.781  17.639  0.00  0.00    +0.000 A 
ATOM     22  C   UNL     1       4.380   5.868  18.698  0.00  0.00    +0.000 A 
ATOM     23  C   UNL     1       3.298   5.899  19.565  0.00  0.00    +0.000 A 
ATOM     24  C   UNL     1       2.284   6.842  19.390  0.00  0.00    +0.000 A 
ATOM     25  C   UNL     1       2.337   7.780  18.353  0.00  0.00    +0.000 A 
ATOM     26  C   UNL     1       3.420   7.733  17.466  0.00  0.00    +0.000 A 
BRANCH  21  28
ATOM     27  C   UNL     1       6.996   6.794  17.239  0.00  0.00    +0.000 C 
ATOM     28  C   UNL     1       5.593   6.769  16.686  0.00  0.00    +0.000 C 
ATOM     29  O   UNL     1       5.380   6.736  15.475  0.00  0.00    +0.000 OA
ENDBRANCH  21  28
ENDBRANCH  17  25
ENDBRANCH   1  18
TORSDOF 3
ENDMDL
MODEL 5
REMARK VINA RESULT:      -7.3      3.758      6.965
REMARK  Name = 
REMARK  4 active torsions:
REMARK  status: ('A' for Active; 'I' for Inactive)
REMARK    1  A    between atoms: C_1  and  C_2
REMARK    2  A    between atoms: C_2  and  C_4
REMARK    3  A    between atoms: C_8  and  N_9
REMARK    4  A    between atoms: C_10  and  C_12
REMARK                            x       y       z     vdW  Elec       q    Type
REMARK                         _______ _______ _______ _____ _____    ______ ____
ROOT
ATOM      1  C   UNL     1      -0.139  10.599  18.843  0.00  0.00    +0.000 A 
ATOM      2  C   UNL     1      -1.510  10.377  18.822  0.00  0.00    +0.000 A 
ATOM      3  C   UNL     1      -2.152  11.632  18.831  0.00  0.00    +0.000 A 
ATOM      4  C   UNL     1      -1.168  12.591  18.826  0.00  0.00    +0.000 A 
ATOM      5  N   UNL     1       0.074  11.976  18.726  0.00  0.00    +0.000 N 
ATOM      6  C   UNL     1       1.304  12.620  18.532  0.00  0.00    +0.000 A 
ATOM      7  N   UNL     1       2.332  12.081  17.926  0.00  0.00    +0.000 NA
ATOM      8  N   UNL     1       3.417  12.940  17.936  0.00  0.00    +0.000 NA
ATOM      9  C   UNL     1       3.188  14.079  18.570  0.00  0.00    +0.000 A 
ATOM     10  N   UNL     1       4.130  15.040  18.826  0.00  0.00    +0.000 N 
ATOM     11  C   UNL     1       5.481  14.825  18.298  0.00  0.00    +0.000 C 
ATOM     12  C   UNL     1       6.503  15.498  19.216  0.00  0.00    +0.000 C 
ATOM     13  C   UNL     1       6.169  16.967  19.465  0.00  0.00    +0.000 C 
ATOM     14  C   UNL     1       4.724  17.135  19.925  0.00  0.00    +0.000 C 
ATOM     15  C   UNL     1       3.750  16.444  18.975  0.00  0.00    +0.000 C 
ATOM     16  S   UNL     1       1.539  14.192  19.113  0.00  0.00    +0.000 S 
ENDROOT
BRANCH   1  18
ATOM     17  N   UNL     1       1.371   8.900  18.061  0.00  0.00    +0.000 N 
ATOM     18  C   UNL     1       0.932   9.661  19.135  0.00  0.00    +0.000 C 
ATOM     19  O   UNL     1       1.352   9.548  20.279  0.00  0.00    +0.000 OA
ATOM     20  H   UNL     1       0.996   9.132  17.151  0.00  0.00    +0.000 HD
BRANCH  17  25
ATOM     21  C   UNL     1       3.120   5.749  18.989  0.00  0.00    +0.000 A 
ATOM     22  C   UNL     1       4.283   5.827  18.215  0.00  0.00    +0.000 A 
ATOM     23  C   UNL     1       4.498   6.935  17.408  0.00  0.00    +0.000 A 
ATOM     24  C   UNL     1       3.555   7.963  17.361  0.00  0.00    +0.000 A 
ATOM     25  C   UNL     1       2.373   7.898  18.107  0.00  0.00    +0.000 A 
ATOM     26  C   UNL     1       2.168   6.787  18.937  0.00  0.00    +0.000 A 
BRANCH  21  28
ATOM     27  C   UNL     1       1.554   4.498  20.618  0.00  0.00    +0.000 C 
ATOM     28  C   UNL     1       2.863   4.573  19.871  0.00  0.00    +0.000 C 
ATOM     29  O   UNL     1       3.712   3.690  19.972  0.00  0.00    +0.000 OA
ENDBRANCH  21  28
ENDBRANCH  17  25
ENDBRANCH   1  18
TORSDOF 3
ENDMDL
MODEL 6
REMARK VINA RESULT:      -7.1      1.306      1.690
REMARK  Name = 
REMARK  4 active torsions:
REMARK  status: ('A' for Active; 'I' for Inactive)
REMARK    1  A    between atoms: C_1  and  C_2
REMARK    2  A    between atoms: C_2  and  C_4
REMARK    3  A    between atoms: C_8  and  N_9
REMARK    4  A    between atoms: C_10  and  C_12
REMARK                            x       y       z     vdW  Elec       q    Type
REMARK                         _______ _______ _______ _____ _____    ______ ____
ROOT
ATOM      1  C   UNL     1       3.038   3.365  19.861  0.00  0.00    +0.000 A 
ATOM      2  C   UNL     1       2.782   2.216  20.596  0.00  0.00    +0.000 A 
ATOM      3  C   UNL     1       1.850   2.544  21.602  0.00  0.00    +0.000 A 
ATOM      4  C   UNL     1       1.534   3.872  21.444  0.00  0.00    +0.000 A 
ATOM      5  N   UNL     1       2.173   4.366  20.314  0.00  0.00    +0.000 N 
ATOM      6  C   UNL     1       1.974   5.627  19.734  0.00  0.00    +0.000 A 
ATOM      7  N   UNL     1       2.132   5.887  18.460  0.00  0.00    +0.000 NA
ATOM      8  N   UNL     1       1.914   7.229  18.200  0.00  0.00    +0.000 NA
ATOM      9  C   UNL     1       1.632   7.941  19.280  0.00  0.00    +0.000 A 
ATOM     10  N   UNL     1       1.497   9.305  19.310  0.00  0.00    +0.000 N 
ATOM     11  C   UNL     1       1.604  10.026  18.039  0.00  0.00    +0.000 C 
ATOM     12  C   UNL     1       2.160  11.429  18.291  0.00  0.00    +0.000 C 
ATOM     13  C   UNL     1       1.361  12.178  19.356  0.00  0.00    +0.000 C 
ATOM     14  C   UNL     1       1.206  11.341  20.622  0.00  0.00    +0.000 C 
ATOM     15  C   UNL     1       0.651   9.954  20.311  0.00  0.00    +0.000 C 
ATOM     16  S   UNL     1       1.516   6.940  20.699  0.00  0.00    +0.000 S 
ENDROOT
BRANCH   1  18
ATOM     17  N   UNL     1       4.765   4.845  19.083  0.00  0.00    +0.000 N 
ATOM     18  C   UNL     1       4.120   3.627  18.925  0.00  0.00    +0.000 C 
ATOM     19  O   UNL     1       4.374   2.820  18.041  0.00  0.00    +0.000 OA
ATOM     20  H   UNL     1       4.513   5.397  19.892  0.00  0.00    +0.000 HD
BRANCH  17  25
ATOM     21  C   UNL     1       6.881   5.427  16.078  0.00  0.00    +0.000 A 
ATOM     22  C   UNL     1       7.842   6.317  16.570  0.00  0.00    +0.000 A 
ATOM     23  C   UNL     1       7.803   6.701  17.903  0.00  0.00    +0.000 A 
ATOM     24  C   UNL     1       6.805   6.211  18.746  0.00  0.00    +0.000 A 
ATOM     25  C   UNL     1       5.819   5.338  18.272  0.00  0.00    +0.000 A 
ATOM     26  C   UNL     1       5.873   4.935  16.932  0.00  0.00    +0.000 A 
BRANCH  21  28
ATOM     27  C   UNL     1       5.880   3.980  14.188  0.00  0.00    +0.000 C 
ATOM     28  C   UNL     1       6.900   4.990  14.651  0.00  0.00    +0.000 C 
ATOM     29  O   UNL     1       7.737   5.457  13.881  0.00  0.00    +0.000 OA
ENDBRANCH  21  28
ENDBRANCH  17  25
ENDBRANCH   1  18
TORSDOF 3
ENDMDL
MODEL 7
REMARK VINA RESULT:      -7.1      1.086      1.304
REMARK  Name = 
REMARK  4 active torsions:
REMARK  status: ('A' for Active; 'I' for Inactive)
REMARK    1  A    between atoms: C_1  and  C_2
REMARK    2  A    between atoms: C_2  and  C_4
REMARK    3  A    between atoms: C_8  and  N_9
REMARK    4  A    between atoms: C_10  and  C_12
REMARK                            x       y       z     vdW  Elec       q    Type
REMARK                         _______ _______ _______ _____ _____    ______ ____
ROOT
ATOM      1  C   UNL     1       2.964   4.951  18.983  0.00  0.00    +0.000 A 
ATOM      2  C   UNL     1       2.646   3.745  19.593  0.00  0.00    +0.000 A 
ATOM      3  C   UNL     1       1.728   4.013  20.629  0.00  0.00    +0.000 A 
ATOM      4  C   UNL     1       1.480   5.365  20.612  0.00  0.00    +0.000 A 
ATOM      5  N   UNL     1       2.149   5.942  19.540  0.00  0.00    +0.000 N 
ATOM      6  C   UNL     1       2.018   7.265  19.097  0.00  0.00    +0.000 A 
ATOM      7  N   UNL     1       2.194   7.650  17.857  0.00  0.00    +0.000 NA
ATOM      8  N   UNL     1       2.047   9.021  17.741  0.00  0.00    +0.000 NA
ATOM      9  C   UNL     1       1.797   9.630  18.890  0.00  0.00    +0.000 A 
ATOM     10  N   UNL     1       1.733  10.987  19.064  0.00  0.00    +0.000 N 
ATOM     11  C   UNL     1       1.882  11.832  17.875  0.00  0.00    +0.000 C 
ATOM     12  C   UNL     1       2.509  13.170  18.274  0.00  0.00    +0.000 C 
ATOM     13  C   UNL     1       1.744  13.843  19.412  0.00  0.00    +0.000 C 
ATOM     14  C   UNL     1       1.541  12.886  20.583  0.00  0.00    +0.000 C 
ATOM     15  C   UNL     1       0.917  11.570  20.128  0.00  0.00    +0.000 C 
ATOM     16  S   UNL     1       1.624   8.492  20.195  0.00  0.00    +0.000 S 
ENDROOT
BRANCH   1  18
ATOM     17  N   UNL     1       4.218   4.379  17.013  0.00  0.00    +0.000 N 
ATOM     18  C   UNL     1       4.062   5.254  18.079  0.00  0.00    +0.000 C 
ATOM     19  O   UNL     1       4.804   6.199  18.312  0.00  0.00    +0.000 OA
ATOM     20  H   UNL     1       3.502   3.677  16.887  0.00  0.00    +0.000 HD
BRANCH  17  25
ATOM     21  C   UNL     1       5.940   3.972  13.740  0.00  0.00    +0.000 A 
ATOM     22  C   UNL     1       7.171   4.591  13.983  0.00  0.00    +0.000 A 
ATOM     23  C   UNL     1       7.439   5.117  15.238  0.00  0.00    +0.000 A 
ATOM     24  C   UNL     1       6.482   5.040  16.251  0.00  0.00    +0.000 A 
ATOM     25  C   UNL     1       5.234   4.447  16.026  0.00  0.00    +0.000 A 
ATOM     26  C   UNL     1       4.975   3.897  14.764  0.00  0.00    +0.000 A 
BRANCH  21  28
ATOM     27  C   UNL     1       6.688   2.589  11.691  0.00  0.00    +0.000 C 
ATOM     28  C   UNL     1       5.626   3.390  12.402  0.00  0.00    +0.000 C 
ATOM     29  O   UNL     1       4.515   3.567  11.906  0.00  0.00    +0.000 OA
ENDBRANCH  21  28
ENDBRANCH  17  25
ENDBRANCH   1  18
TORSDOF 3
ENDMDL
MODEL 8
REMARK VINA RESULT:      -7.0      4.657      9.199
REMARK  Name = 
REMARK  4 active torsions:
REMARK  status: ('A' for Active; 'I' for Inactive)
REMARK    1  A    between atoms: C_1  and  C_2
REMARK    2  A    between atoms: C_2  and  C_4
REMARK    3  A    between atoms: C_8  and  N_9
REMARK    4  A    between atoms: C_10  and  C_12
REMARK                            x       y       z     vdW  Elec       q    Type
REMARK                         _______ _______ _______ _____ _____    ______ ____
ROOT
ATOM      1  C   UNL     1       0.268  10.016  20.752  0.00  0.00    +0.000 A 
ATOM      2  C   UNL     1       0.028  10.773  21.890  0.00  0.00    +0.000 A 
ATOM      3  C   UNL     1       0.479  10.037  23.005  0.00  0.00    +0.000 A 
ATOM      4  C   UNL     1       1.011   8.864  22.527  0.00  0.00    +0.000 A 
ATOM      5  N   UNL     1       0.987   8.879  21.137  0.00  0.00    +0.000 N 
ATOM      6  C   UNL     1       1.584   7.937  20.288  0.00  0.00    +0.000 A 
ATOM      7  N   UNL     1       2.019   8.203  19.082  0.00  0.00    +0.000 NA
ATOM      8  N   UNL     1       2.508   7.061  18.471  0.00  0.00    +0.000 NA
ATOM      9  C   UNL     1       2.399   5.971  19.215  0.00  0.00    +0.000 A 
ATOM     10  N   UNL     1       2.693   4.700  18.797  0.00  0.00    +0.000 N 
ATOM     11  C   UNL     1       3.237   4.538  17.445  0.00  0.00    +0.000 C 
ATOM     12  C   UNL     1       2.823   3.175  16.887  0.00  0.00    +0.000 C 
ATOM     13  C   UNL     1       3.189   2.034  17.835  0.00  0.00    +0.000 C 
ATOM     14  C   UNL     1       2.675   2.303  19.246  0.00  0.00    +0.000 C 
ATOM     15  C   UNL     1       3.114   3.675  19.750  0.00  0.00    +0.000 C 
ATOM     16  S   UNL     1       1.763   6.333  20.794  0.00  0.00    +0.000 S 
ENDROOT
BRANCH   1  18
ATOM     17  N   UNL     1      -1.648  10.284  19.326  0.00  0.00    +0.000 N 
ATOM     18  C   UNL     1      -0.266  10.189  19.411  0.00  0.00    +0.000 C 
ATOM     19  O   UNL     1       0.487  10.192  18.447  0.00  0.00    +0.000 OA
ATOM     20  H   UNL     1      -2.159  10.338  20.197  0.00  0.00    +0.000 HD
BRANCH  17  25
ATOM     21  C   UNL     1      -4.395  11.272  17.018  0.00  0.00    +0.000 A 
ATOM     22  C   UNL     1      -3.929  10.786  15.791  0.00  0.00    +0.000 A 
ATOM     23  C   UNL     1      -2.719  10.109  15.736  0.00  0.00    +0.000 A 
ATOM     24  C   UNL     1      -1.965   9.921  16.895  0.00  0.00    +0.000 A 
ATOM     25  C   UNL     1      -2.398  10.418  18.130  0.00  0.00    +0.000 A 
ATOM     26  C   UNL     1      -3.630  11.083  18.187  0.00  0.00    +0.000 A 
BRANCH  21  28
ATOM     27  C   UNL     1      -6.775  11.442  18.006  0.00  0.00    +0.000 C 
ATOM     28  C   UNL     1      -5.695  11.998  17.111  0.00  0.00    +0.000 C 
ATOM     29  O   UNL     1      -5.865  13.031  16.466  0.00  0.00    +0.000 OA
ENDBRANCH  21  28
ENDBRANCH  17  25
ENDBRANCH   1  18
TORSDOF 3
ENDMDL
MODEL 9
REMARK VINA RESULT:      -6.8      7.709     10.620
REMARK  Name = 
REMARK  4 active torsions:
REMARK  status: ('A' for Active; 'I' for Inactive)
REMARK    1  A    between atoms: C_1  and  C_2
REMARK    2  A    between atoms: C_2  and  C_4
REMARK    3  A    between atoms: C_8  and  N_9
REMARK    4  A    between atoms: C_10  and  C_12
REMARK                            x       y       z     vdW  Elec       q    Type
REMARK                         _______ _______ _______ _____ _____    ______ ____
ROOT
ATOM      1  C   UNL     1       1.833  15.883  20.471  0.00  0.00    +0.000 A 
ATOM      2  C   UNL     1       1.099  16.923  21.023  0.00  0.00    +0.000 A 
ATOM      3  C   UNL     1       1.953  18.038  21.149  0.00  0.00    +0.000 A 
ATOM      4  C   UNL     1       3.178  17.669  20.647  0.00  0.00    +0.000 A 
ATOM      5  N   UNL     1       3.094  16.382  20.128  0.00  0.00    +0.000 N 
ATOM      6  C   UNL     1       4.085  15.721  19.390  0.00  0.00    +0.000 A 
ATOM      7  N   UNL     1       3.844  14.802  18.488  0.00  0.00    +0.000 NA
ATOM      8  N   UNL     1       5.024  14.298  17.970  0.00  0.00    +0.000 NA
ATOM      9  C   UNL     1       6.111  14.823  18.513  0.00  0.00    +0.000 A 
ATOM     10  N   UNL     1       7.394  14.409  18.264  0.00  0.00    +0.000 N 
ATOM     11  C   UNL     1       7.585  13.350  17.269  0.00  0.00    +0.000 C 
ATOM     12  C   UNL     1       8.828  12.533  17.623  0.00  0.00    +0.000 C 
ATOM     13  C   UNL     1      10.058  13.417  17.821  0.00  0.00    +0.000 C 
ATOM     14  C   UNL     1       9.770  14.553  18.798  0.00  0.00    +0.000 C 
ATOM     15  C   UNL     1       8.520  15.332  18.397  0.00  0.00    +0.000 C 
ATOM     16  S   UNL     1       5.719  16.078  19.652  0.00  0.00    +0.000 S 
ENDROOT
BRANCH   1  18
ATOM     17  N   UNL     1       0.996  14.019  19.204  0.00  0.00    +0.000 N 
ATOM     18  C   UNL     1       1.508  14.467  20.414  0.00  0.00    +0.000 C 
ATOM     19  O   UNL     1       1.645  13.766  21.407  0.00  0.00    +0.000 OA
ATOM     20  H   UNL     1       0.995  14.677  18.435  0.00  0.00    +0.000 HD
BRANCH  17  25
ATOM     21  C   UNL     1      -1.253  11.174  18.372  0.00  0.00    +0.000 A 
ATOM     22  C   UNL     1      -0.349  10.109  18.286  0.00  0.00    +0.000 A 
ATOM     23  C   UNL     1       0.998  10.330  18.530  0.00  0.00    +0.000 A 
ATOM     24  C   UNL     1       1.453  11.610  18.850  0.00  0.00    +0.000 A 
ATOM     25  C   UNL     1       0.573  12.697  18.920  0.00  0.00    +0.000 A 
ATOM     26  C   UNL     1      -0.790  12.466  18.693  0.00  0.00    +0.000 A 
BRANCH  21  28
ATOM     27  C   UNL     1      -3.137   9.826  17.231  0.00  0.00    +0.000 C 
ATOM     28  C   UNL     1      -2.709  10.967  18.121  0.00  0.00    +0.000 C 
ATOM     29  O   UNL     1      -3.531  11.720  18.640  0.00  0.00    +0.000 OA
ENDBRANCH  21  28
ENDBRANCH  17  25
ENDBRANCH   1  18
TORSDOF 3
ENDMDL
