MODEL 1
REMARK VINA RESULT:      -8.9      0.000      0.000
REMARK  Name = 
REMARK  8 active torsions:
REMARK  status: ('A' for Active; 'I' for Inactive)
REMARK    1  A    between atoms: C_1  and  C_2
REMARK    2  A    between atoms: C_4  and  N_5
REMARK    3  A    between atoms: C_6  and  C_7
REMARK    4  A    between atoms: N_9  and  C_10
REMARK    5  A    between atoms: C_15  and  O_16
REMARK    6  A    between atoms: C_18  and  C_19
REMARK    7  A    between atoms: C_19  and  C_20
REMARK    8  A    between atoms: C_23  and  N_24
REMARK                            x       y       z     vdW  Elec       q    Type
REMARK                         _______ _______ _______ _____ _____    ______ ____
ROOT
ATOM      1  C   UNL     1       0.096   9.798  21.520  0.00  0.00    +0.000 C 
ATOM      2  C   UNL     1       0.898   8.894  20.620  0.00  0.00    +0.000 A 
ATOM      3  C   UNL     1       1.292   7.642  21.122  0.00  0.00    +0.000 A 
ATOM      4  C   UNL     1       2.026   6.729  20.352  0.00  0.00    +0.000 A 
ATOM      5  C   UNL     1       2.286   7.044  19.004  0.00  0.00    +0.000 A 
ATOM      6  C   UNL     1       1.945   8.313  18.505  0.00  0.00    +0.000 A 
ATOM      7  C   UNL     1       1.274   9.258  19.309  0.00  0.00    +0.000 A 
ENDROOT
BRANCH   5   8
ATOM      8  C   UNL     1       2.998   6.052  18.145  0.00  0.00    +0.000 C 
ATOM      9  O   UNL     1       2.412   5.059  17.717  0.00  0.00    +0.000 OA
ATOM     10  N   UNL     1       4.326   6.291  17.845  0.00  0.00    +0.000 N 
ATOM     11  H   UNL     1       4.794   7.093  18.244  0.00  0.00    +0.000 HD
BRANCH  10  12
ATOM     12  C   UNL     1       5.095   5.384  16.976  0.00  0.00    +0.000 C 
ATOM     13  C   UNL     1       5.294   6.018  15.598  0.00  0.00    +0.000 C 
ATOM     14  C   UNL     1       6.219   5.166  14.743  0.00  0.00    +0.000 C 
ATOM     15  O   UNL     1       7.478   5.025  15.394  0.00  0.00    +0.000 OA
ATOM     16  C   UNL     1       7.360   4.287  16.611  0.00  0.00    +0.000 C 
ATOM     17  C   UNL     1       6.443   4.981  17.623  0.00  0.00    +0.000 C 
BRANCH  17  18
ATOM     18  O   UNL     1       6.263   4.100  18.737  0.00  0.00    +0.000 OA
ATOM     19  H   UNL     1       5.782   3.305  18.423  0.00  0.00    +0.000 HD
ENDBRANCH  17  18
ENDBRANCH  10  12
ENDBRANCH   5   8
BRANCH   4  20
ATOM     20  N   UNL     1       2.260   5.448  20.890  0.00  0.00    +0.000 N 
ATOM     21  H   UNL     1       2.817   4.852  20.284  0.00  0.00    +0.000 HD
ATOM     22  H   UNL     1       1.379   4.988  21.151  0.00  0.00    +0.000 HD
ENDBRANCH   4  20
BRANCH   7  23
ATOM     23  C   UNL     1       0.938  10.618  18.715  0.00  0.00    +0.000 C 
BRANCH  23  24
ATOM     24  C   UNL     1      -0.530  10.923  18.477  0.00  0.00    +0.000 A 
ATOM     25  C   UNL     1      -1.373  10.070  17.753  0.00  0.00    +0.000 A 
ATOM     26  C   UNL     1      -2.742  10.328  17.652  0.00  0.00    +0.000 A 
ATOM     27  C   UNL     1      -3.296  11.456  18.266  0.00  0.00    +0.000 A 
ATOM     28  C   UNL     1      -2.454  12.353  18.935  0.00  0.00    +0.000 A 
ATOM     29  C   UNL     1      -1.085  12.081  19.040  0.00  0.00    +0.000 A 
BRANCH  27  30
ATOM     30  N   UNL     1      -4.703  11.674  18.249  0.00  0.00    +0.000 N 
ATOM     31  C   UNL     1      -5.492  12.006  17.165  0.00  0.00    +0.000 A 
ATOM     32  C   UNL     1      -6.789  12.073  17.608  0.00  0.00    +0.000 A 
ATOM     33  C   UNL     1      -6.707  11.768  18.973  0.00  0.00    +0.000 A 
ATOM     34  N   UNL     1      -5.457  11.524  19.370  0.00  0.00    +0.000 NA
ENDBRANCH  27  30
ENDBRANCH  23  24
ENDBRANCH   7  23
TORSDOF 7
ENDMDL
MODEL 2
REMARK VINA RESULT:      -8.6      0.469      1.141
REMARK  Name = 
REMARK  8 active torsions:
REMARK  status: ('A' for Active; 'I' for Inactive)
REMARK    1  A    between atoms: C_1  and  C_2
REMARK    2  A    between atoms: C_4  and  N_5
REMARK    3  A    between atoms: C_6  and  C_7
REMARK    4  A    between atoms: N_9  and  C_10
REMARK    5  A    between atoms: C_15  and  O_16
REMARK    6  A    between atoms: C_18  and  C_19
REMARK    7  A    between atoms: C_19  and  C_20
REMARK    8  A    between atoms: C_23  and  N_24
REMARK                            x       y       z     vdW  Elec       q    Type
REMARK                         _______ _______ _______ _____ _____    ______ ____
ROOT
ATOM      1  C   UNL     1       0.155   9.670  21.599  0.00  0.00    +0.000 C 
ATOM      2  C   UNL     1       0.955   8.797  20.668  0.00  0.00    +0.000 A 
ATOM      3  C   UNL     1       1.395   7.550  21.146  0.00  0.00    +0.000 A 
ATOM      4  C   UNL     1       2.130   6.665  20.346  0.00  0.00    +0.000 A 
ATOM      5  C   UNL     1       2.344   6.999  18.994  0.00  0.00    +0.000 A 
ATOM      6  C   UNL     1       1.956   8.264  18.519  0.00  0.00    +0.000 A 
ATOM      7  C   UNL     1       1.283   9.183  19.351  0.00  0.00    +0.000 A 
ENDROOT
BRANCH   5   8
ATOM      8  C   UNL     1       3.056   6.035  18.106  0.00  0.00    +0.000 C 
ATOM      9  O   UNL     1       2.478   5.041  17.668  0.00  0.00    +0.000 OA
ATOM     10  N   UNL     1       4.376   6.299  17.790  0.00  0.00    +0.000 N 
ATOM     11  H   UNL     1       4.838   7.101  18.196  0.00  0.00    +0.000 HD
BRANCH  10  12
ATOM     12  C   UNL     1       5.144   5.421  16.892  0.00  0.00    +0.000 C 
ATOM     13  C   UNL     1       5.325   6.090  15.527  0.00  0.00    +0.000 C 
ATOM     14  C   UNL     1       6.249   5.268  14.643  0.00  0.00    +0.000 C 
ATOM     15  O   UNL     1       7.515   5.121  15.279  0.00  0.00    +0.000 OA
ATOM     16  C   UNL     1       7.415   4.353  16.478  0.00  0.00    +0.000 C 
ATOM     17  C   UNL     1       6.502   5.014  17.516  0.00  0.00    +0.000 C 
BRANCH  17  18
ATOM     18  O   UNL     1       6.340   4.104  18.609  0.00  0.00    +0.000 OA
ATOM     19  H   UNL     1       7.136   4.166  19.180  0.00  0.00    +0.000 HD
ENDBRANCH  17  18
ENDBRANCH  10  12
ENDBRANCH   5   8
BRANCH   4  20
ATOM     20  N   UNL     1       2.412   5.385  20.864  0.00  0.00    +0.000 N 
ATOM     21  H   UNL     1       3.371   5.282  21.185  0.00  0.00    +0.000 HD
ATOM     22  H   UNL     1       2.168   4.649  20.190  0.00  0.00    +0.000 HD
ENDBRANCH   4  20
BRANCH   7  23
ATOM     23  C   UNL     1       0.896  10.540  18.781  0.00  0.00    +0.000 C 
BRANCH  23  24
ATOM     24  C   UNL     1      -0.585  10.873  18.742  0.00  0.00    +0.000 A 
ATOM     25  C   UNL     1      -1.151  11.899  19.509  0.00  0.00    +0.000 A 
ATOM     26  C   UNL     1      -2.495  12.250  19.362  0.00  0.00    +0.000 A 
ATOM     27  C   UNL     1      -3.307  11.568  18.448  0.00  0.00    +0.000 A 
ATOM     28  C   UNL     1      -2.771  10.495  17.726  0.00  0.00    +0.000 A 
ATOM     29  C   UNL     1      -1.421  10.158  17.872  0.00  0.00    +0.000 A 
BRANCH  27  30
ATOM     30  N   UNL     1      -4.651  11.981  18.223  0.00  0.00    +0.000 N 
ATOM     31  C   UNL     1      -5.540  12.496  19.146  0.00  0.00    +0.000 A 
ATOM     32  C   UNL     1      -6.700  12.793  18.475  0.00  0.00    +0.000 A 
ATOM     33  C   UNL     1      -6.437  12.430  17.147  0.00  0.00    +0.000 A 
ATOM     34  N   UNL     1      -5.206  11.943  16.983  0.00  0.00    +0.000 NA
ENDBRANCH  27  30
ENDBRANCH  23  24
ENDBRANCH   7  23
TORSDOF 7
ENDMDL
MODEL 3
REMARK VINA RESULT:      -7.7      3.756      5.348
REMARK  Name = 
REMARK  8 active torsions:
REMARK  status: ('A' for Active; 'I' for Inactive)
REMARK    1  A    between atoms: C_1  and  C_2
REMARK    2  A    between atoms: C_4  and  N_5
REMARK    3  A    between atoms: C_6  and  C_7
REMARK    4  A    between atoms: N_9  and  C_10
REMARK    5  A    between atoms: C_15  and  O_16
REMARK    6  A    between atoms: C_18  and  C_19
REMARK    7  A    between atoms: C_19  and  C_20
REMARK    8  A    between atoms: C_23  and  N_24
REMARK                            x       y       z     vdW  Elec       q    Type
REMARK                         _______ _______ _______ _____ _____    ______ ____
ROOT
ATOM      1  C   UNL     1      -0.165  10.101  21.518  0.00  0.00    +0.000 C 
ATOM      2  C   UNL     1       0.676   9.198  20.654  0.00  0.00    +0.000 A 
ATOM      3  C   UNL     1       1.065   7.954  21.181  0.00  0.00    +0.000 A 
ATOM      4  C   UNL     1       1.833   7.042  20.444  0.00  0.00    +0.000 A 
ATOM      5  C   UNL     1       2.135   7.348  19.102  0.00  0.00    +0.000 A 
ATOM      6  C   UNL     1       1.799   8.609  18.580  0.00  0.00    +0.000 A 
ATOM      7  C   UNL     1       1.091   9.554  19.353  0.00  0.00    +0.000 A 
ENDROOT
BRANCH   5   8
ATOM      8  C   UNL     1       2.885   6.355  18.276  0.00  0.00    +0.000 C 
ATOM      9  O   UNL     1       2.313   5.376  17.801  0.00  0.00    +0.000 OA
ATOM     10  N   UNL     1       4.232   6.578  18.062  0.00  0.00    +0.000 N 
ATOM     11  H   UNL     1       4.686   7.369  18.498  0.00  0.00    +0.000 HD
BRANCH  10  12
ATOM     12  C   UNL     1       5.040   5.670  17.230  0.00  0.00    +0.000 C 
ATOM     13  C   UNL     1       5.191   6.242  15.819  0.00  0.00    +0.000 C 
ATOM     14  C   UNL     1       6.152   5.398  14.997  0.00  0.00    +0.000 C 
ATOM     15  O   UNL     1       7.423   5.358  15.638  0.00  0.00    +0.000 OA
ATOM     16  C   UNL     1       7.358   4.680  16.892  0.00  0.00    +0.000 C 
ATOM     17  C   UNL     1       6.415   5.375  17.880  0.00  0.00    +0.000 C 
BRANCH  17  18
ATOM     18  O   UNL     1       6.295   4.544  19.039  0.00  0.00    +0.000 OA
ATOM     19  H   UNL     1       5.821   5.053  19.732  0.00  0.00    +0.000 HD
ENDBRANCH  17  18
ENDBRANCH  10  12
ENDBRANCH   5   8
BRANCH   4  20
ATOM     20  N   UNL     1       2.062   5.768  21.000  0.00  0.00    +0.000 N 
ATOM     21  H   UNL     1       2.971   5.680  21.446  0.00  0.00    +0.000 HD
ATOM     22  H   UNL     1       1.919   5.027  20.304  0.00  0.00    +0.000 HD
ENDBRANCH   4  20
BRANCH   7  23
ATOM     23  C   UNL     1       0.762  10.905  18.736  0.00  0.00    +0.000 C 
BRANCH  23  24
ATOM     24  C   UNL     1       1.716  12.049  19.034  0.00  0.00    +0.000 A 
ATOM     25  C   UNL     1       2.547  12.616  18.060  0.00  0.00    +0.000 A 
ATOM     26  C   UNL     1       3.327  13.739  18.345  0.00  0.00    +0.000 A 
ATOM     27  C   UNL     1       3.299  14.313  19.622  0.00  0.00    +0.000 A 
ATOM     28  C   UNL     1       2.525  13.715  20.623  0.00  0.00    +0.000 A 
ATOM     29  C   UNL     1       1.739  12.596  20.325  0.00  0.00    +0.000 A 
BRANCH  27  30
ATOM     30  N   UNL     1       4.015  15.513  19.893  0.00  0.00    +0.000 N 
ATOM     31  C   UNL     1       3.522  16.803  19.912  0.00  0.00    +0.000 A 
ATOM     32  C   UNL     1       4.559  17.632  20.260  0.00  0.00    +0.000 A 
ATOM     33  C   UNL     1       5.650  16.771  20.436  0.00  0.00    +0.000 A 
ATOM     34  N   UNL     1       5.335  15.493  20.220  0.00  0.00    +0.000 NA
ENDBRANCH  27  30
ENDBRANCH  23  24
ENDBRANCH   7  23
TORSDOF 7
ENDMDL
MODEL 4
REMARK VINA RESULT:      -7.3      3.479      4.913
REMARK  Name = 
REMARK  8 active torsions:
REMARK  status: ('A' for Active; 'I' for Inactive)
REMARK    1  A    between atoms: C_1  and  C_2
REMARK    2  A    between atoms: C_4  and  N_5
REMARK    3  A    between atoms: C_6  and  C_7
REMARK    4  A    between atoms: N_9  and  C_10
REMARK    5  A    between atoms: C_15  and  O_16
REMARK    6  A    between atoms: C_18  and  C_19
REMARK    7  A    between atoms: C_19  and  C_20
REMARK    8  A    between atoms: C_23  and  N_24
REMARK                            x       y       z     vdW  Elec       q    Type
REMARK                         _______ _______ _______ _____ _____    ______ ____
ROOT
ATOM      1  C   UNL     1      -0.333  10.344  21.138  0.00  0.00    +0.000 C 
ATOM      2  C   UNL     1       0.534   9.405  20.339  0.00  0.00    +0.000 A 
ATOM      3  C   UNL     1       1.072   8.284  20.994  0.00  0.00    +0.000 A 
ATOM      4  C   UNL     1       1.875   7.348  20.328  0.00  0.00    +0.000 A 
ATOM      5  C   UNL     1       2.061   7.490  18.938  0.00  0.00    +0.000 A 
ATOM      6  C   UNL     1       1.573   8.633  18.282  0.00  0.00    +0.000 A 
ATOM      7  C   UNL     1       0.829   9.612  18.975  0.00  0.00    +0.000 A 
ENDROOT
BRANCH   5   8
ATOM      8  C   UNL     1       2.847   6.461  18.196  0.00  0.00    +0.000 C 
ATOM      9  O   UNL     1       2.312   5.426  17.803  0.00  0.00    +0.000 OA
ATOM     10  N   UNL     1       4.186   6.713  17.965  0.00  0.00    +0.000 N 
ATOM     11  H   UNL     1       4.611   7.553  18.335  0.00  0.00    +0.000 HD
BRANCH  10  12
ATOM     12  C   UNL     1       5.029   5.771  17.210  0.00  0.00    +0.000 C 
ATOM     13  C   UNL     1       5.218   6.264  15.774  0.00  0.00    +0.000 C 
ATOM     14  C   UNL     1       6.212   5.387  15.030  0.00  0.00    +0.000 C 
ATOM     15  O   UNL     1       7.463   5.398  15.711  0.00  0.00    +0.000 OA
ATOM     16  C   UNL     1       7.366   4.790  16.998  0.00  0.00    +0.000 C 
ATOM     17  C   UNL     1       6.386   5.528  17.917  0.00  0.00    +0.000 C 
BRANCH  17  18
ATOM     18  O   UNL     1       6.239   4.762  19.117  0.00  0.00    +0.000 OA
ATOM     19  H   UNL     1       7.051   4.878  19.655  0.00  0.00    +0.000 HD
ENDBRANCH  17  18
ENDBRANCH  10  12
ENDBRANCH   5   8
BRANCH   4  20
ATOM     20  N   UNL     1       2.259   6.188  21.029  0.00  0.00    +0.000 N 
ATOM     21  H   UNL     1       1.876   5.333  20.635  0.00  0.00    +0.000 HD
ATOM     22  H   UNL     1       2.035   6.266  22.028  0.00  0.00    +0.000 HD
ENDBRANCH   4  20
BRANCH   7  23
ATOM     23  C   UNL     1       0.334  10.831  18.211  0.00  0.00    +0.000 C 
BRANCH  23  24
ATOM     24  C   UNL     1       0.963  12.168  18.566  0.00  0.00    +0.000 A 
ATOM     25  C   UNL     1       0.220  13.247  19.059  0.00  0.00    +0.000 A 
ATOM     26  C   UNL     1       0.850  14.421  19.481  0.00  0.00    +0.000 A 
ATOM     27  C   UNL     1       2.242  14.542  19.404  0.00  0.00    +0.000 A 
ATOM     28  C   UNL     1       2.990  13.497  18.849  0.00  0.00    +0.000 A 
ATOM     29  C   UNL     1       2.351  12.321  18.439  0.00  0.00    +0.000 A 
BRANCH  27  30
ATOM     30  N   UNL     1       2.899  15.695  19.920  0.00  0.00    +0.000 N 
ATOM     31  C   UNL     1       4.165  15.771  20.466  0.00  0.00    +0.000 A 
ATOM     32  C   UNL     1       4.394  17.085  20.789  0.00  0.00    +0.000 A 
ATOM     33  C   UNL     1       3.219  17.747  20.408  0.00  0.00    +0.000 A 
ATOM     34  N   UNL     1       2.313  16.921  19.882  0.00  0.00    +0.000 NA
ENDBRANCH  27  30
ENDBRANCH  23  24
ENDBRANCH   7  23
TORSDOF 7
ENDMDL
MODEL 5
REMARK VINA RESULT:      -7.3      1.291      1.851
REMARK  Name = 
REMARK  8 active torsions:
REMARK  status: ('A' for Active; 'I' for Inactive)
REMARK    1  A    between atoms: C_1  and  C_2
REMARK    2  A    between atoms: C_4  and  N_5
REMARK    3  A    between atoms: C_6  and  C_7
REMARK    4  A    between atoms: N_9  and  C_10
REMARK    5  A    between atoms: C_15  and  O_16
REMARK    6  A    between atoms: C_18  and  C_19
REMARK    7  A    between atoms: C_19  and  C_20
REMARK    8  A    between atoms: C_23  and  N_24
REMARK                            x       y       z     vdW  Elec       q    Type
REMARK                         _______ _______ _______ _____ _____    ______ ____
ROOT
ATOM      1  C   UNL     1       0.886   8.294  21.341  0.00  0.00    +0.000 C 
ATOM      2  C   UNL     1       1.668   7.488  20.336  0.00  0.00    +0.000 A 
ATOM      3  C   UNL     1       1.985   6.157  20.660  0.00  0.00    +0.000 A 
ATOM      4  C   UNL     1       2.694   5.327  19.781  0.00  0.00    +0.000 A 
ATOM      5  C   UNL     1       3.007   5.818  18.498  0.00  0.00    +0.000 A 
ATOM      6  C   UNL     1       2.744   7.162  18.181  0.00  0.00    +0.000 A 
ATOM      7  C   UNL     1       2.097   8.015  19.100  0.00  0.00    +0.000 A 
ENDROOT
BRANCH   5   8
ATOM      8  C   UNL     1       3.693   4.923  17.520  0.00  0.00    +0.000 C 
ATOM      9  O   UNL     1       3.272   3.788  17.307  0.00  0.00    +0.000 OA
ATOM     10  N   UNL     1       4.805   5.415  16.863  0.00  0.00    +0.000 N 
ATOM     11  H   UNL     1       5.154   6.337  17.086  0.00  0.00    +0.000 HD
BRANCH  10  12
ATOM     12  C   UNL     1       5.521   4.615  15.855  0.00  0.00    +0.000 C 
ATOM     13  C   UNL     1       4.725   4.575  14.549  0.00  0.00    +0.000 C 
ATOM     14  C   UNL     1       5.524   3.888  13.453  0.00  0.00    +0.000 C 
ATOM     15  O   UNL     1       6.751   4.582  13.248  0.00  0.00    +0.000 OA
ATOM     16  C   UNL     1       7.599   4.499  14.393  0.00  0.00    +0.000 C 
ATOM     17  C   UNL     1       6.963   5.136  15.633  0.00  0.00    +0.000 C 
BRANCH  17  18
ATOM     18  O   UNL     1       7.811   4.867  16.755  0.00  0.00    +0.000 OA
ATOM     19  H   UNL     1       7.290   5.012  17.574  0.00  0.00    +0.000 HD
ENDBRANCH  17  18
ENDBRANCH  10  12
ENDBRANCH   5   8
BRANCH   4  20
ATOM     20  N   UNL     1       2.849   3.971  20.133  0.00  0.00    +0.000 N 
ATOM     21  H   UNL     1       2.487   3.750  21.056  0.00  0.00    +0.000 HD
ATOM     22  H   UNL     1       3.827   3.673  20.038  0.00  0.00    +0.000 HD
ENDBRANCH   4  20
BRANCH   7  23
ATOM     23  C   UNL     1       1.846   9.463  18.702  0.00  0.00    +0.000 C 
BRANCH  23  24
ATOM     24  C   UNL     1       0.398   9.914  18.624  0.00  0.00    +0.000 A 
ATOM     25  C   UNL     1      -0.160  10.829  19.524  0.00  0.00    +0.000 A 
ATOM     26  C   UNL     1      -1.462  11.305  19.352  0.00  0.00    +0.000 A 
ATOM     27  C   UNL     1      -2.239  10.863  18.275  0.00  0.00    +0.000 A 
ATOM     28  C   UNL     1      -1.718   9.897  17.407  0.00  0.00    +0.000 A 
ATOM     29  C   UNL     1      -0.409   9.433  17.582  0.00  0.00    +0.000 A 
BRANCH  27  30
ATOM     30  N   UNL     1      -3.530  11.415  18.038  0.00  0.00    +0.000 N 
ATOM     31  C   UNL     1      -4.249  11.403  16.858  0.00  0.00    +0.000 A 
ATOM     32  C   UNL     1      -5.453  12.012  17.107  0.00  0.00    +0.000 A 
ATOM     33  C   UNL     1      -5.392  12.368  18.460  0.00  0.00    +0.000 A 
ATOM     34  N   UNL     1      -4.240  12.012  19.032  0.00  0.00    +0.000 NA
ENDBRANCH  27  30
ENDBRANCH  23  24
ENDBRANCH   7  23
TORSDOF 7
ENDMDL
MODEL 6
REMARK VINA RESULT:      -7.2      3.234      4.453
REMARK  Name = 
REMARK  8 active torsions:
REMARK  status: ('A' for Active; 'I' for Inactive)
REMARK    1  A    between atoms: C_1  and  C_2
REMARK    2  A    between atoms: C_4  and  N_5
REMARK    3  A    between atoms: C_6  and  C_7
REMARK    4  A    between atoms: N_9  and  C_10
REMARK    5  A    between atoms: C_15  and  O_16
REMARK    6  A    between atoms: C_18  and  C_19
REMARK    7  A    between atoms: C_19  and  C_20
REMARK    8  A    between atoms: C_23  and  N_24
REMARK                            x       y       z     vdW  Elec       q    Type
REMARK                         _______ _______ _______ _____ _____    ______ ____
ROOT
ATOM      1  C   UNL     1      -0.188  10.029  21.120  0.00  0.00    +0.000 C 
ATOM      2  C   UNL     1       0.672   9.088  20.317  0.00  0.00    +0.000 A 
ATOM      3  C   UNL     1       1.188   7.950  20.962  0.00  0.00    +0.000 A 
ATOM      4  C   UNL     1       1.984   7.012  20.291  0.00  0.00    +0.000 A 
ATOM      5  C   UNL     1       2.184   7.170  18.905  0.00  0.00    +0.000 A 
ATOM      6  C   UNL     1       1.720   8.328  18.260  0.00  0.00    +0.000 A 
ATOM      7  C   UNL     1       0.984   9.309  18.959  0.00  0.00    +0.000 A 
ENDROOT
BRANCH   5   8
ATOM      8  C   UNL     1       2.963   6.139  18.157  0.00  0.00    +0.000 C 
ATOM      9  O   UNL     1       2.477   5.034  17.924  0.00  0.00    +0.000 OA
ATOM     10  N   UNL     1       4.236   6.471  17.734  0.00  0.00    +0.000 N 
ATOM     11  H   UNL     1       4.626   7.372  17.974  0.00  0.00    +0.000 HD
BRANCH  10  12
ATOM     12  C   UNL     1       5.061   5.529  16.958  0.00  0.00    +0.000 C 
ATOM     13  C   UNL     1       5.360   6.107  15.573  0.00  0.00    +0.000 C 
ATOM     14  C   UNL     1       6.339   5.220  14.821  0.00  0.00    +0.000 C 
ATOM     15  O   UNL     1       7.548   5.103  15.565  0.00  0.00    +0.000 OA
ATOM     16  C   UNL     1       7.341   4.415  16.799  0.00  0.00    +0.000 C 
ATOM     17  C   UNL     1       6.358   5.151  17.715  0.00  0.00    +0.000 C 
BRANCH  17  18
ATOM     18  O   UNL     1       6.096   4.316  18.848  0.00  0.00    +0.000 OA
ATOM     19  H   UNL     1       6.798   4.476  19.515  0.00  0.00    +0.000 HD
ENDBRANCH  17  18
ENDBRANCH  10  12
ENDBRANCH   5   8
BRANCH   4  20
ATOM     20  N   UNL     1       2.344   5.837  20.980  0.00  0.00    +0.000 N 
ATOM     21  H   UNL     1       3.288   5.862  21.355  0.00  0.00    +0.000 HD
ATOM     22  H   UNL     1       2.202   5.005  20.395  0.00  0.00    +0.000 HD
ENDBRANCH   4  20
BRANCH   7  23
ATOM     23  C   UNL     1       0.515  10.546  18.207  0.00  0.00    +0.000 C 
BRANCH  23  24
ATOM     24  C   UNL     1       0.937  11.893  18.767  0.00  0.00    +0.000 A 
ATOM     25  C   UNL     1       2.275  12.298  18.837  0.00  0.00    +0.000 A 
ATOM     26  C   UNL     1       2.616  13.588  19.252  0.00  0.00    +0.000 A 
ATOM     27  C   UNL     1       1.618  14.498  19.619  0.00  0.00    +0.000 A 
ATOM     28  C   UNL     1       0.281  14.083  19.619  0.00  0.00    +0.000 A 
ATOM     29  C   UNL     1      -0.052  12.793  19.191  0.00  0.00    +0.000 A 
BRANCH  27  30
ATOM     30  N   UNL     1       1.949  15.842  19.950  0.00  0.00    +0.000 N 
ATOM     31  C   UNL     1       1.643  16.987  19.240  0.00  0.00    +0.000 A 
ATOM     32  C   UNL     1       2.124  18.054  19.955  0.00  0.00    +0.000 A 
ATOM     33  C   UNL     1       2.710  17.478  21.090  0.00  0.00    +0.000 A 
ATOM     34  N   UNL     1       2.609  16.148  21.099  0.00  0.00    +0.000 NA
ENDBRANCH  27  30
ENDBRANCH  23  24
ENDBRANCH   7  23
TORSDOF 7
ENDMDL
MODEL 7
REMARK VINA RESULT:      -7.2      0.988      1.106
REMARK  Name = 
REMARK  8 active torsions:
REMARK  status: ('A' for Active; 'I' for Inactive)
REMARK    1  A    between atoms: C_1  and  C_2
REMARK    2  A    between atoms: C_4  and  N_5
REMARK    3  A    between atoms: C_6  and  C_7
REMARK    4  A    between atoms: N_9  and  C_10
REMARK    5  A    between atoms: C_15  and  O_16
REMARK    6  A    between atoms: C_18  and  C_19
REMARK    7  A    between atoms: C_19  and  C_20
REMARK    8  A    between atoms: C_23  and  N_24
REMARK                            x       y       z     vdW  Elec       q    Type
REMARK                         _______ _______ _______ _____ _____    ______ ____
ROOT
ATOM      1  C   UNL     1      -0.208   9.354  20.880  0.00  0.00    +0.000 C 
ATOM      2  C   UNL     1       0.923   8.789  20.061  0.00  0.00    +0.000 A 
ATOM      3  C   UNL     1       1.492   7.570  20.471  0.00  0.00    +0.000 A 
ATOM      4  C   UNL     1       2.536   6.961  19.763  0.00  0.00    +0.000 A 
ATOM      5  C   UNL     1       2.955   7.544  18.550  0.00  0.00    +0.000 A 
ATOM      6  C   UNL     1       2.433   8.788  18.156  0.00  0.00    +0.000 A 
ATOM      7  C   UNL     1       1.434   9.434  18.915  0.00  0.00    +0.000 A 
ENDROOT
BRANCH   5   8
ATOM      8  C   UNL     1       4.012   6.869  17.740  0.00  0.00    +0.000 C 
ATOM      9  O   UNL     1       5.007   7.487  17.368  0.00  0.00    +0.000 OA
ATOM     10  N   UNL     1       3.835   5.533  17.431  0.00  0.00    +0.000 N 
ATOM     11  H   UNL     1       2.988   5.060  17.715  0.00  0.00    +0.000 HD
BRANCH  10  12
ATOM     12  C   UNL     1       4.844   4.778  16.668  0.00  0.00    +0.000 C 
ATOM     13  C   UNL     1       5.020   5.390  15.277  0.00  0.00    +0.000 C 
ATOM     14  C   UNL     1       6.167   4.722  14.537  0.00  0.00    +0.000 C 
ATOM     15  O   UNL     1       7.371   4.872  15.284  0.00  0.00    +0.000 OA
ATOM     16  C   UNL     1       7.309   4.170  16.526  0.00  0.00    +0.000 C 
ATOM     17  C   UNL     1       6.189   4.691  17.432  0.00  0.00    +0.000 C 
BRANCH  17  18
ATOM     18  O   UNL     1       6.104   3.832  18.574  0.00  0.00    +0.000 OA
ATOM     19  H   UNL     1       6.180   4.387  19.380  0.00  0.00    +0.000 HD
ENDBRANCH  17  18
ENDBRANCH  10  12
ENDBRANCH   5   8
BRANCH   4  20
ATOM     20  N   UNL     1       2.952   5.679  20.170  0.00  0.00    +0.000 N 
ATOM     21  H   UNL     1       3.520   5.687  21.013  0.00  0.00    +0.000 HD
ATOM     22  H   UNL     1       3.430   5.183  19.408  0.00  0.00    +0.000 HD
ENDBRANCH   4  20
BRANCH   7  23
ATOM     23  C   UNL     1       0.913  10.784  18.441  0.00  0.00    +0.000 C 
BRANCH  23  24
ATOM     24  C   UNL     1      -0.586  10.911  18.240  0.00  0.00    +0.000 A 
ATOM     25  C   UNL     1      -1.339   9.963  17.536  0.00  0.00    +0.000 A 
ATOM     26  C   UNL     1      -2.731  10.056  17.469  0.00  0.00    +0.000 A 
ATOM     27  C   UNL     1      -3.400  11.112  18.099  0.00  0.00    +0.000 A 
ATOM     28  C   UNL     1      -2.654  12.103  18.747  0.00  0.00    +0.000 A 
ATOM     29  C   UNL     1      -1.260  11.996  18.818  0.00  0.00    +0.000 A 
BRANCH  27  30
ATOM     30  N   UNL     1      -4.823  11.161  18.117  0.00  0.00    +0.000 N 
ATOM     31  C   UNL     1      -5.689  10.284  18.742  0.00  0.00    +0.000 A 
ATOM     32  C   UNL     1      -6.963  10.746  18.527  0.00  0.00    +0.000 A 
ATOM     33  C   UNL     1      -6.790  11.907  17.764  0.00  0.00    +0.000 A 
ATOM     34  N   UNL     1      -5.506  12.169  17.512  0.00  0.00    +0.000 NA
ENDBRANCH  27  30
ENDBRANCH  23  24
ENDBRANCH   7  23
TORSDOF 7
ENDMDL
MODEL 8
REMARK VINA RESULT:      -7.1      2.320      3.997
REMARK  Name = 
REMARK  8 active torsions:
REMARK  status: ('A' for Active; 'I' for Inactive)
REMARK    1  A    between atoms: C_1  and  C_2
REMARK    2  A    between atoms: C_4  and  N_5
REMARK    3  A    between atoms: C_6  and  C_7
REMARK    4  A    between atoms: N_9  and  C_10
REMARK    5  A    between atoms: C_15  and  O_16
REMARK    6  A    between atoms: C_18  and  C_19
REMARK    7  A    between atoms: C_19  and  C_20
REMARK    8  A    between atoms: C_23  and  N_24
REMARK                            x       y       z     vdW  Elec       q    Type
REMARK                         _______ _______ _______ _____ _____    ______ ____
ROOT
ATOM      1  C   UNL     1       1.080   4.882  20.482  0.00  0.00    +0.000 C 
ATOM      2  C   UNL     1       2.286   4.757  19.586  0.00  0.00    +0.000 A 
ATOM      3  C   UNL     1       2.527   3.515  18.972  0.00  0.00    +0.000 A 
ATOM      4  C   UNL     1       3.613   3.310  18.111  0.00  0.00    +0.000 A 
ATOM      5  C   UNL     1       4.425   4.413  17.779  0.00  0.00    +0.000 A 
ATOM      6  C   UNL     1       4.228   5.645  18.426  0.00  0.00    +0.000 A 
ATOM      7  C   UNL     1       3.178   5.824  19.351  0.00  0.00    +0.000 A 
ENDROOT
BRANCH   5   8
ATOM      8  C   UNL     1       5.540   4.233  16.802  0.00  0.00    +0.000 C 
ATOM      9  O   UNL     1       6.697   4.089  17.192  0.00  0.00    +0.000 OA
ATOM     10  N   UNL     1       5.226   4.228  15.456  0.00  0.00    +0.000 N 
ATOM     11  H   UNL     1       4.272   4.390  15.162  0.00  0.00    +0.000 HD
BRANCH  10  12
ATOM     12  C   UNL     1       6.257   4.021  14.425  0.00  0.00    +0.000 C 
ATOM     13  C   UNL     1       5.632   3.405  13.171  0.00  0.00    +0.000 C 
ATOM     14  C   UNL     1       6.650   3.331  12.045  0.00  0.00    +0.000 C 
ATOM     15  O   UNL     1       7.132   4.638  11.749  0.00  0.00    +0.000 OA
ATOM     16  C   UNL     1       7.870   5.185  12.842  0.00  0.00    +0.000 C 
ATOM     17  C   UNL     1       7.014   5.333  14.104  0.00  0.00    +0.000 C 
BRANCH  17  18
ATOM     18  O   UNL     1       7.871   5.736  15.178  0.00  0.00    +0.000 OA
ATOM     19  H   UNL     1       8.733   6.006  14.796  0.00  0.00    +0.000 HD
ENDBRANCH  17  18
ENDBRANCH  10  12
ENDBRANCH   5   8
BRANCH   4  20
ATOM     20  N   UNL     1       3.699   2.076  17.437  0.00  0.00    +0.000 N 
ATOM     21  H   UNL     1       2.967   1.942  16.745  0.00  0.00    +0.000 HD
ATOM     22  H   UNL     1       3.727   1.292  18.100  0.00  0.00    +0.000 HD
ENDBRANCH   4  20
BRANCH   7  23
ATOM     23  C   UNL     1       3.020   7.180  20.025  0.00  0.00    +0.000 C 
BRANCH  23  24
ATOM     24  C   UNL     1       1.951   8.105  19.469  0.00  0.00    +0.000 A 
ATOM     25  C   UNL     1       1.800   8.350  18.099  0.00  0.00    +0.000 A 
ATOM     26  C   UNL     1       0.735   9.117  17.619  0.00  0.00    +0.000 A 
ATOM     27  C   UNL     1      -0.197   9.666  18.507  0.00  0.00    +0.000 A 
ATOM     28  C   UNL     1      -0.018   9.485  19.884  0.00  0.00    +0.000 A 
ATOM     29  C   UNL     1       1.046   8.707  20.355  0.00  0.00    +0.000 A 
BRANCH  27  30
ATOM     30  N   UNL     1      -1.337  10.366  18.020  0.00  0.00    +0.000 N 
ATOM     31  C   UNL     1      -2.033  11.383  18.645  0.00  0.00    +0.000 A 
ATOM     32  C   UNL     1      -3.028  11.784  17.790  0.00  0.00    +0.000 A 
ATOM     33  C   UNL     1      -2.872  10.963  16.665  0.00  0.00    +0.000 A 
ATOM     34  N   UNL     1      -1.857  10.107  16.791  0.00  0.00    +0.000 NA
ENDBRANCH  27  30
ENDBRANCH  23  24
ENDBRANCH   7  23
TORSDOF 7
ENDMDL
MODEL 9
REMARK VINA RESULT:      -7.1      5.029     10.629
REMARK  Name = 
REMARK  8 active torsions:
REMARK  status: ('A' for Active; 'I' for Inactive)
REMARK    1  A    between atoms: C_1  and  C_2
REMARK    2  A    between atoms: C_4  and  N_5
REMARK    3  A    between atoms: C_6  and  C_7
REMARK    4  A    between atoms: N_9  and  C_10
REMARK    5  A    between atoms: C_15  and  O_16
REMARK    6  A    between atoms: C_18  and  C_19
REMARK    7  A    between atoms: C_19  and  C_20
REMARK    8  A    between atoms: C_23  and  N_24
REMARK                            x       y       z     vdW  Elec       q    Type
REMARK                         _______ _______ _______ _____ _____    ______ ____
ROOT
ATOM      1  C   UNL     1       2.544  12.676  18.327  0.00  0.00    +0.000 C 
ATOM      2  C   UNL     1       1.518  12.795  19.424  0.00  0.00    +0.000 A 
ATOM      3  C   UNL     1       1.663  13.840  20.354  0.00  0.00    +0.000 A 
ATOM      4  C   UNL     1       0.749  14.038  21.398  0.00  0.00    +0.000 A 
ATOM      5  C   UNL     1      -0.399  13.222  21.450  0.00  0.00    +0.000 A 
ATOM      6  C   UNL     1      -0.529  12.142  20.560  0.00  0.00    +0.000 A 
ATOM      7  C   UNL     1       0.435  11.901  19.558  0.00  0.00    +0.000 A 
ENDROOT
BRANCH   5   8
ATOM      8  C   UNL     1      -1.424  13.468  22.508  0.00  0.00    +0.000 C 
ATOM      9  O   UNL     1      -1.138  13.347  23.697  0.00  0.00    +0.000 OA
ATOM     10  N   UNL     1      -2.692  13.839  22.105  0.00  0.00    +0.000 N 
ATOM     11  H   UNL     1      -2.911  13.892  21.119  0.00  0.00    +0.000 HD
BRANCH  10  12
ATOM     12  C   UNL     1      -3.755  14.137  23.080  0.00  0.00    +0.000 C 
ATOM     13  C   UNL     1      -4.570  15.347  22.620  0.00  0.00    +0.000 C 
ATOM     14  C   UNL     1      -5.765  15.569  23.533  0.00  0.00    +0.000 C 
ATOM     15  O   UNL     1      -6.589  14.407  23.534  0.00  0.00    +0.000 OA
ATOM     16  C   UNL     1      -5.918  13.289  24.114  0.00  0.00    +0.000 C 
ATOM     17  C   UNL     1      -4.655  12.903  23.337  0.00  0.00    +0.000 C 
BRANCH  17  18
ATOM     18  O   UNL     1      -3.973  11.884  24.075  0.00  0.00    +0.000 OA
ATOM     19  H   UNL     1      -4.632  11.211  24.350  0.00  0.00    +0.000 HD
ENDBRANCH  17  18
ENDBRANCH  10  12
ENDBRANCH   5   8
BRANCH   4  20
ATOM     20  N   UNL     1       0.899  15.187  22.199  0.00  0.00    +0.000 N 
ATOM     21  H   UNL     1       0.294  15.954  21.921  0.00  0.00    +0.000 HD
ATOM     22  H   UNL     1       1.880  15.487  22.239  0.00  0.00    +0.000 HD
ENDBRANCH   4  20
BRANCH   7  23
ATOM     23  C   UNL     1       0.242  10.711  18.629  0.00  0.00    +0.000 C 
BRANCH  23  24
ATOM     24  C   UNL     1       1.088   9.480  18.904  0.00  0.00    +0.000 A 
ATOM     25  C   UNL     1       1.105   8.835  20.146  0.00  0.00    +0.000 A 
ATOM     26  C   UNL     1       1.806   7.640  20.327  0.00  0.00    +0.000 A 
ATOM     27  C   UNL     1       2.518   7.072  19.265  0.00  0.00    +0.000 A 
ATOM     28  C   UNL     1       2.566   7.742  18.038  0.00  0.00    +0.000 A 
ATOM     29  C   UNL     1       1.851   8.933  17.862  0.00  0.00    +0.000 A 
BRANCH  27  30
ATOM     30  N   UNL     1       3.155   5.807  19.414  0.00  0.00    +0.000 N 
ATOM     31  C   UNL     1       2.661   4.683  20.047  0.00  0.00    +0.000 A 
ATOM     32  C   UNL     1       3.598   3.690  19.908  0.00  0.00    +0.000 A 
ATOM     33  C   UNL     1       4.634   4.287  19.179  0.00  0.00    +0.000 A 
ATOM     34  N   UNL     1       4.378   5.561  18.874  0.00  0.00    +0.000 NA
ENDBRANCH  27  30
ENDBRANCH  23  24
ENDBRANCH   7  23
TORSDOF 7
ENDMDL
