MODEL 1
REMARK VINA RESULT:      -4.8      0.000      0.000
REMARK  Name = 
REMARK  3 active torsions:
REMARK  status: ('A' for Active; 'I' for Inactive)
REMARK    1  A    between atoms: C_1  and  C_2
REMARK    2  A    between atoms: C_2  and  C_3
REMARK    3  A    between atoms: C_2  and  C_4
REMARK                            x       y       z     vdW  Elec       q    Type
REMARK                         _______ _______ _______ _____ _____    ______ ____
ROOT
ATOM      1  C   UNL     1       5.562   4.473  16.611  0.00  0.00    +0.000 C 
ATOM      2  C   UNL     1       5.580   4.936  15.166  0.00  0.00    +0.000 C 
ATOM      3  C   UNL     1       6.989   4.637  14.716  0.00  0.00    +0.000 C 
ATOM      4  O   UNL     1       7.798   4.686  15.888  0.00  0.00    +0.000 OA
ATOM      5  C   UNL     1       7.019   4.538  16.994  0.00  0.00    +0.000 C 
ATOM      6  O   UNL     1       7.463   4.442  18.129  0.00  0.00    +0.000 OA
ENDROOT
BRANCH   1   8
ATOM      7  C   UNL     1       4.561   6.764  17.263  0.00  0.00    +0.000 C 
ATOM      8  C   UNL     1       4.653   5.265  17.573  0.00  0.00    +0.000 C 
ATOM      9  C   UNL     1       3.245   4.665  17.631  0.00  0.00    +0.000 C 
ENDBRANCH   1   8
TORSDOF 1
ENDMDL
MODEL 2
REMARK VINA RESULT:      -4.7      4.574      5.360
REMARK  Name = 
REMARK  3 active torsions:
REMARK  status: ('A' for Active; 'I' for Inactive)
REMARK    1  A    between atoms: C_1  and  C_2
REMARK    2  A    between atoms: C_2  and  C_3
REMARK    3  A    between atoms: C_2  and  C_4
REMARK                            x       y       z     vdW  Elec       q    Type
REMARK                         _______ _______ _______ _____ _____    ______ ____
ROOT
ATOM      1  C   UNL     1       2.513   3.583  19.216  0.00  0.00    +0.000 C 
ATOM      2  C   UNL     1       3.211   2.249  19.411  0.00  0.00    +0.000 C 
ATOM      3  C   UNL     1       3.439   1.760  18.002  0.00  0.00    +0.000 C 
ATOM      4  O   UNL     1       2.414   2.349  17.207  0.00  0.00    +0.000 OA
ATOM      5  C   UNL     1       1.898   3.434  17.847  0.00  0.00    +0.000 C 
ATOM      6  O   UNL     1       1.073   4.186  17.350  0.00  0.00    +0.000 OA
ENDROOT
BRANCH   1   8
ATOM      7  C   UNL     1       1.454   3.050  21.511  0.00  0.00    +0.000 C 
ATOM      8  C   UNL     1       1.486   3.983  20.295  0.00  0.00    +0.000 C 
ATOM      9  C   UNL     1       1.700   5.426  20.760  0.00  0.00    +0.000 C 
ENDBRANCH   1   8
TORSDOF 1
ENDMDL
MODEL 3
REMARK VINA RESULT:      -4.7      4.096      5.442
REMARK  Name = 
REMARK  3 active torsions:
REMARK  status: ('A' for Active; 'I' for Inactive)
REMARK    1  A    between atoms: C_1  and  C_2
REMARK    2  A    between atoms: C_2  and  C_3
REMARK    3  A    between atoms: C_2  and  C_4
REMARK                            x       y       z     vdW  Elec       q    Type
REMARK                         _______ _______ _______ _____ _____    ______ ____
ROOT
ATOM      1  C   UNL     1       1.824   3.962  18.902  0.00  0.00    +0.000 C 
ATOM      2  C   UNL     1       3.334   3.911  18.756  0.00  0.00    +0.000 C 
ATOM      3  C   UNL     1       3.550   2.878  17.678  0.00  0.00    +0.000 C 
ATOM      4  O   UNL     1       2.429   2.001  17.739  0.00  0.00    +0.000 OA
ATOM      5  C   UNL     1       1.398   2.612  18.385  0.00  0.00    +0.000 C 
ATOM      6  O   UNL     1       0.282   2.126  18.493  0.00  0.00    +0.000 OA
ENDROOT
BRANCH   1   8
ATOM      7  C   UNL     1       1.724   3.259  21.386  0.00  0.00    +0.000 C 
ATOM      8  C   UNL     1       1.281   4.262  20.314  0.00  0.00    +0.000 C 
ATOM      9  C   UNL     1       1.642   5.682  20.760  0.00  0.00    +0.000 C 
ENDBRANCH   1   8
TORSDOF 1
ENDMDL
MODEL 4
REMARK VINA RESULT:      -4.7      2.953      4.260
REMARK  Name = 
REMARK  3 active torsions:
REMARK  status: ('A' for Active; 'I' for Inactive)
REMARK    1  A    between atoms: C_1  and  C_2
REMARK    2  A    between atoms: C_2  and  C_3
REMARK    3  A    between atoms: C_2  and  C_4
REMARK                            x       y       z     vdW  Elec       q    Type
REMARK                         _______ _______ _______ _____ _____    ______ ____
ROOT
ATOM      1  C   UNL     1       3.259   2.842  18.880  0.00  0.00    +0.000 C 
ATOM      2  C   UNL     1       3.310   4.236  18.282  0.00  0.00    +0.000 C 
ATOM      3  C   UNL     1       4.784   4.560  18.267  0.00  0.00    +0.000 C 
ATOM      4  O   UNL     1       5.367   3.805  19.325  0.00  0.00    +0.000 OA
ATOM      5  C   UNL     1       4.544   2.775  19.664  0.00  0.00    +0.000 C 
ATOM      6  O   UNL     1       4.840   1.909  20.475  0.00  0.00    +0.000 OA
ENDROOT
BRANCH   1   8
ATOM      7  C   UNL     1       1.750   3.498  20.872  0.00  0.00    +0.000 C 
ATOM      8  C   UNL     1       2.017   2.508  19.732  0.00  0.00    +0.000 C 
ATOM      9  C   UNL     1       0.764   2.376  18.863  0.00  0.00    +0.000 C 
ENDBRANCH   1   8
TORSDOF 1
ENDMDL
MODEL 5
REMARK VINA RESULT:      -4.6      3.588      4.450
REMARK  Name = 
REMARK  3 active torsions:
REMARK  status: ('A' for Active; 'I' for Inactive)
REMARK    1  A    between atoms: C_1  and  C_2
REMARK    2  A    between atoms: C_2  and  C_3
REMARK    3  A    between atoms: C_2  and  C_4
REMARK                            x       y       z     vdW  Elec       q    Type
REMARK                         _______ _______ _______ _____ _____    ______ ____
ROOT
ATOM      1  C   UNL     1       2.623   2.963  19.439  0.00  0.00    +0.000 C 
ATOM      2  C   UNL     1       1.813   3.486  18.267  0.00  0.00    +0.000 C 
ATOM      3  C   UNL     1       2.758   3.358  17.098  0.00  0.00    +0.000 C 
ATOM      4  O   UNL     1       4.072   3.444  17.640  0.00  0.00    +0.000 OA
ATOM      5  C   UNL     1       4.042   3.166  18.972  0.00  0.00    +0.000 C 
ATOM      6  O   UNL     1       5.043   3.071  19.668  0.00  0.00    +0.000 OA
ENDROOT
BRANCH   1   8
ATOM      7  C   UNL     1       1.737   5.018  20.729  0.00  0.00    +0.000 C 
ATOM      8  C   UNL     1       2.344   3.613  20.810  0.00  0.00    +0.000 C 
ATOM      9  C   UNL     1       1.455   2.719  21.679  0.00  0.00    +0.000 C 
ENDBRANCH   1   8
TORSDOF 1
ENDMDL
MODEL 6
REMARK VINA RESULT:      -4.6      1.922      2.913
REMARK  Name = 
REMARK  3 active torsions:
REMARK  status: ('A' for Active; 'I' for Inactive)
REMARK    1  A    between atoms: C_1  and  C_2
REMARK    2  A    between atoms: C_2  and  C_3
REMARK    3  A    between atoms: C_2  and  C_4
REMARK                            x       y       z     vdW  Elec       q    Type
REMARK                         _______ _______ _______ _____ _____    ______ ____
ROOT
ATOM      1  C   UNL     1       6.554   4.959  17.443  0.00  0.00    +0.000 C 
ATOM      2  C   UNL     1       7.396   6.204  17.658  0.00  0.00    +0.000 C 
ATOM      3  C   UNL     1       7.858   6.076  19.089  0.00  0.00    +0.000 C 
ATOM      4  O   UNL     1       6.867   5.300  19.757  0.00  0.00    +0.000 OA
ATOM      5  C   UNL     1       6.136   4.601  18.847  0.00  0.00    +0.000 C 
ATOM      6  O   UNL     1       5.284   3.778  19.148  0.00  0.00    +0.000 OA
ENDROOT
BRANCH   1   8
ATOM      7  C   UNL     1       5.031   6.545  16.087  0.00  0.00    +0.000 C 
ATOM      8  C   UNL     1       5.359   5.099  16.478  0.00  0.00    +0.000 C 
ATOM      9  C   UNL     1       5.562   4.258  15.214  0.00  0.00    +0.000 C 
ENDBRANCH   1   8
TORSDOF 1
ENDMDL
MODEL 7
REMARK VINA RESULT:      -4.5      3.844      5.313
REMARK  Name = 
REMARK  3 active torsions:
REMARK  status: ('A' for Active; 'I' for Inactive)
REMARK    1  A    between atoms: C_1  and  C_2
REMARK    2  A    between atoms: C_2  and  C_3
REMARK    3  A    between atoms: C_2  and  C_4
REMARK                            x       y       z     vdW  Elec       q    Type
REMARK                         _______ _______ _______ _____ _____    ______ ____
ROOT
ATOM      1  C   UNL     1       2.752   4.519  19.921  0.00  0.00    +0.000 C 
ATOM      2  C   UNL     1       1.456   4.085  20.582  0.00  0.00    +0.000 C 
ATOM      3  C   UNL     1       1.902   3.056  21.592  0.00  0.00    +0.000 C 
ATOM      4  O   UNL     1       3.106   2.494  21.079  0.00  0.00    +0.000 OA
ATOM      5  C   UNL     1       3.653   3.334  20.158  0.00  0.00    +0.000 C 
ATOM      6  O   UNL     1       4.740   3.148  19.631  0.00  0.00    +0.000 OA
ENDROOT
BRANCH   1   8
ATOM      7  C   UNL     1       1.519   4.237  17.668  0.00  0.00    +0.000 C 
ATOM      8  C   UNL     1       2.662   4.916  18.433  0.00  0.00    +0.000 C 
ATOM      9  C   UNL     1       2.560   6.435  18.266  0.00  0.00    +0.000 C 
ENDBRANCH   1   8
TORSDOF 1
ENDMDL
MODEL 8
REMARK VINA RESULT:      -4.5      3.006      4.097
REMARK  Name = 
REMARK  3 active torsions:
REMARK  status: ('A' for Active; 'I' for Inactive)
REMARK    1  A    between atoms: C_1  and  C_2
REMARK    2  A    between atoms: C_2  and  C_3
REMARK    3  A    between atoms: C_2  and  C_4
REMARK                            x       y       z     vdW  Elec       q    Type
REMARK                         _______ _______ _______ _____ _____    ______ ____
ROOT
ATOM      1  C   UNL     1       2.870   3.750  18.550  0.00  0.00    +0.000 C 
ATOM      2  C   UNL     1       2.531   5.180  18.170  0.00  0.00    +0.000 C 
ATOM      3  C   UNL     1       3.881   5.819  17.959  0.00  0.00    +0.000 C 
ATOM      4  O   UNL     1       4.795   5.095  18.778  0.00  0.00    +0.000 OA
ATOM      5  C   UNL     1       4.271   3.878  19.090  0.00  0.00    +0.000 C 
ATOM      6  O   UNL     1       4.883   3.012  19.699  0.00  0.00    +0.000 OA
ENDROOT
BRANCH   1   8
ATOM      7  C   UNL     1       1.315   3.990  20.600  0.00  0.00    +0.000 C 
ATOM      8  C   UNL     1       1.907   3.057  19.537  0.00  0.00    +0.000 C 
ATOM      9  C   UNL     1       0.776   2.336  18.799  0.00  0.00    +0.000 C 
ENDBRANCH   1   8
TORSDOF 1
ENDMDL
MODEL 9
REMARK VINA RESULT:      -4.5      3.520      4.810
REMARK  Name = 
REMARK  3 active torsions:
REMARK  status: ('A' for Active; 'I' for Inactive)
REMARK    1  A    between atoms: C_1  and  C_2
REMARK    2  A    between atoms: C_2  and  C_3
REMARK    3  A    between atoms: C_2  and  C_4
REMARK                            x       y       z     vdW  Elec       q    Type
REMARK                         _______ _______ _______ _____ _____    ______ ____
ROOT
ATOM      1  C   UNL     1       1.948   3.017  19.143  0.00  0.00    +0.000 C 
ATOM      2  C   UNL     1       1.798   3.831  17.871  0.00  0.00    +0.000 C 
ATOM      3  C   UNL     1       3.080   3.561  17.124  0.00  0.00    +0.000 C 
ATOM      4  O   UNL     1       4.058   3.254  18.113  0.00  0.00    +0.000 OA
ATOM      5  C   UNL     1       3.445   2.882  19.270  0.00  0.00    +0.000 C 
ATOM      6  O   UNL     1       4.042   2.470  20.253  0.00  0.00    +0.000 OA
ENDROOT
BRANCH   1   8
ATOM      7  C   UNL     1       1.382   2.689  21.642  0.00  0.00    +0.000 C 
ATOM      8  C   UNL     1       1.289   3.597  20.411  0.00  0.00    +0.000 C 
ATOM      9  C   UNL     1       1.853   4.980  20.748  0.00  0.00    +0.000 C 
ENDBRANCH   1   8
TORSDOF 1
ENDMDL
