MODEL 1
REMARK VINA RESULT:      -5.2      0.000      0.000
REMARK  Name = 
REMARK  3 active torsions:
REMARK  status: ('A' for Active; 'I' for Inactive)
REMARK    1  A    between atoms: C_1  and  C_2
REMARK    2  A    between atoms: C_7  and  O_8
REMARK    3  A    between atoms: C_9  and  O_10
REMARK                            x       y       z     vdW  Elec       q    Type
REMARK                         _______ _______ _______ _____ _____    ______ ____
ROOT
ATOM      1  C   UNL     1       7.708   7.019  17.841  0.00  0.00    +0.000 C 
ATOM      2  C   UNL     1       7.134   6.118  16.747  0.00  0.00    +0.000 C 
ATOM      3  O   UNL     1       5.897   6.640  16.248  0.00  0.00    +0.000 OA
ATOM      4  C   UNL     1       4.773   6.469  17.114  0.00  0.00    +0.000 C 
ATOM      5  C   UNL     1       4.548   5.020  17.537  0.00  0.00    +0.000 C 
ATOM      6  F   UNL     1       4.111   4.310  16.458  0.00  0.00    +0.000 F 
ATOM      7  C   UNL     1       5.823   4.366  18.061  0.00  0.00    +0.000 C 
ATOM      8  C   UNL     1       7.002   4.629  17.117  0.00  0.00    +0.000 C 
ENDROOT
BRANCH   7   9
ATOM      9  O   UNL     1       6.186   4.783  19.391  0.00  0.00    +0.000 OA
ATOM     10  H   UNL     1       7.063   4.428  19.621  0.00  0.00    +0.000 HD
ENDBRANCH   7   9
BRANCH   8  11
ATOM     11  O   UNL     1       8.210   4.126  17.695  0.00  0.00    +0.000 OA
ATOM     12  H   UNL     1       8.009   3.208  17.972  0.00  0.00    +0.000 HD
ENDBRANCH   8  11
TORSDOF 2
ENDMDL
MODEL 2
REMARK VINA RESULT:      -5.0      4.775      5.647
REMARK  Name = 
REMARK  3 active torsions:
REMARK  status: ('A' for Active; 'I' for Inactive)
REMARK    1  A    between atoms: C_1  and  C_2
REMARK    2  A    between atoms: C_7  and  O_8
REMARK    3  A    between atoms: C_9  and  O_10
REMARK                            x       y       z     vdW  Elec       q    Type
REMARK                         _______ _______ _______ _____ _____    ______ ____
ROOT
ATOM      1  C   UNL     1       1.828   4.394  17.838  0.00  0.00    +0.000 C 
ATOM      2  C   UNL     1       1.213   3.290  18.699  0.00  0.00    +0.000 C 
ATOM      3  O   UNL     1       0.638   3.831  19.894  0.00  0.00    +0.000 OA
ATOM      4  C   UNL     1       1.579   4.224  20.896  0.00  0.00    +0.000 C 
ATOM      5  C   UNL     1       2.547   3.111  21.288  0.00  0.00    +0.000 C 
ATOM      6  F   UNL     1       1.862   2.159  21.984  0.00  0.00    +0.000 F 
ATOM      7  C   UNL     1       3.193   2.451  20.074  0.00  0.00    +0.000 C 
ATOM      8  C   UNL     1       2.140   2.103  19.015  0.00  0.00    +0.000 C 
ENDROOT
BRANCH   7   9
ATOM      9  O   UNL     1       4.227   3.245  19.463  0.00  0.00    +0.000 OA
ATOM     10  H   UNL     1       4.754   3.689  20.150  0.00  0.00    +0.000 HD
ENDBRANCH   7   9
BRANCH   8  11
ATOM     11  O   UNL     1       2.782   1.614  17.834  0.00  0.00    +0.000 OA
ATOM     12  H   UNL     1       2.058   1.371  17.220  0.00  0.00    +0.000 HD
ENDBRANCH   8  11
TORSDOF 2
ENDMDL
MODEL 3
REMARK VINA RESULT:      -5.0      4.086      5.710
REMARK  Name = 
REMARK  3 active torsions:
REMARK  status: ('A' for Active; 'I' for Inactive)
REMARK    1  A    between atoms: C_1  and  C_2
REMARK    2  A    between atoms: C_7  and  O_8
REMARK    3  A    between atoms: C_9  and  O_10
REMARK                            x       y       z     vdW  Elec       q    Type
REMARK                         _______ _______ _______ _____ _____    ______ ____
ROOT
ATOM      1  C   UNL     1       2.043   2.708  21.497  0.00  0.00    +0.000 C 
ATOM      2  C   UNL     1       1.102   3.591  20.677  0.00  0.00    +0.000 C 
ATOM      3  O   UNL     1       0.513   2.851  19.601  0.00  0.00    +0.000 OA
ATOM      4  C   UNL     1       1.383   2.587  18.499  0.00  0.00    +0.000 C 
ATOM      5  C   UNL     1       2.030   3.843  17.922  0.00  0.00    +0.000 C 
ATOM      6  F   UNL     1       1.075   4.575  17.282  0.00  0.00    +0.000 F 
ATOM      7  C   UNL     1       2.665   4.714  19.001  0.00  0.00    +0.000 C 
ATOM      8  C   UNL     1       1.703   4.917  20.177  0.00  0.00    +0.000 C 
ENDROOT
BRANCH   7   9
ATOM      9  O   UNL     1       3.915   4.202  19.501  0.00  0.00    +0.000 OA
ATOM     10  H   UNL     1       4.656   4.691  19.102  0.00  0.00    +0.000 HD
ENDBRANCH   7   9
BRANCH   8  11
ATOM     11  O   UNL     1       2.367   5.618  21.233  0.00  0.00    +0.000 OA
ATOM     12  H   UNL     1       2.098   5.168  22.061  0.00  0.00    +0.000 HD
ENDBRANCH   8  11
TORSDOF 2
ENDMDL
MODEL 4
REMARK VINA RESULT:      -4.9      3.873      4.534
REMARK  Name = 
REMARK  3 active torsions:
REMARK  status: ('A' for Active; 'I' for Inactive)
REMARK    1  A    between atoms: C_1  and  C_2
REMARK    2  A    between atoms: C_7  and  O_8
REMARK    3  A    between atoms: C_9  and  O_10
REMARK                            x       y       z     vdW  Elec       q    Type
REMARK                         _______ _______ _______ _____ _____    ______ ____
ROOT
ATOM      1  C   UNL     1       2.300   2.796  20.990  0.00  0.00    +0.000 C 
ATOM      2  C   UNL     1       3.202   3.733  20.185  0.00  0.00    +0.000 C 
ATOM      3  O   UNL     1       2.424   4.658  19.416  0.00  0.00    +0.000 OA
ATOM      4  C   UNL     1       1.796   4.107  18.257  0.00  0.00    +0.000 C 
ATOM      5  C   UNL     1       2.769   3.399  17.318  0.00  0.00    +0.000 C 
ATOM      6  F   UNL     1       3.561   4.335  16.720  0.00  0.00    +0.000 F 
ATOM      7  C   UNL     1       3.664   2.407  18.053  0.00  0.00    +0.000 C 
ATOM      8  C   UNL     1       4.265   3.041  19.313  0.00  0.00    +0.000 C 
ENDROOT
BRANCH   7   9
ATOM      9  O   UNL     1       2.999   1.182  18.416  0.00  0.00    +0.000 OA
ATOM     10  H   UNL     1       2.332   1.359  19.103  0.00  0.00    +0.000 HD
ENDBRANCH   7   9
BRANCH   8  11
ATOM     11  O   UNL     1       4.987   2.054  20.056  0.00  0.00    +0.000 OA
ATOM     12  H   UNL     1       5.926   2.159  19.795  0.00  0.00    +0.000 HD
ENDBRANCH   8  11
TORSDOF 2
ENDMDL
MODEL 5
REMARK VINA RESULT:      -4.9      3.818      4.598
REMARK  Name = 
REMARK  3 active torsions:
REMARK  status: ('A' for Active; 'I' for Inactive)
REMARK    1  A    between atoms: C_1  and  C_2
REMARK    2  A    between atoms: C_7  and  O_8
REMARK    3  A    between atoms: C_9  and  O_10
REMARK                            x       y       z     vdW  Elec       q    Type
REMARK                         _______ _______ _______ _____ _____    ______ ____
ROOT
ATOM      1  C   UNL     1       3.979   3.643  16.979  0.00  0.00    +0.000 C 
ATOM      2  C   UNL     1       2.841   2.875  17.654  0.00  0.00    +0.000 C 
ATOM      3  O   UNL     1       1.927   3.772  18.296  0.00  0.00    +0.000 OA
ATOM      4  C   UNL     1       2.397   4.345  19.518  0.00  0.00    +0.000 C 
ATOM      5  C   UNL     1       2.851   3.306  20.540  0.00  0.00    +0.000 C 
ATOM      6  F   UNL     1       1.754   2.645  21.009  0.00  0.00    +0.000 F 
ATOM      7  C   UNL     1       3.811   2.285  19.940  0.00  0.00    +0.000 C 
ATOM      8  C   UNL     1       3.277   1.748  18.607  0.00  0.00    +0.000 C 
ENDROOT
BRANCH   7   9
ATOM      9  O   UNL     1       5.145   2.788  19.740  0.00  0.00    +0.000 OA
ATOM     10  H   UNL     1       5.711   2.088  19.370  0.00  0.00    +0.000 HD
ENDBRANCH   7   9
BRANCH   8  11
ATOM     11  O   UNL     1       4.254   0.899  17.997  0.00  0.00    +0.000 OA
ATOM     12  H   UNL     1       3.752   0.292  17.415  0.00  0.00    +0.000 HD
ENDBRANCH   8  11
TORSDOF 2
ENDMDL
MODEL 6
REMARK VINA RESULT:      -4.9      3.444      4.240
REMARK  Name = 
REMARK  3 active torsions:
REMARK  status: ('A' for Active; 'I' for Inactive)
REMARK    1  A    between atoms: C_1  and  C_2
REMARK    2  A    between atoms: C_7  and  O_8
REMARK    3  A    between atoms: C_9  and  O_10
REMARK                            x       y       z     vdW  Elec       q    Type
REMARK                         _______ _______ _______ _____ _____    ______ ____
ROOT
ATOM      1  C   UNL     1       4.418   3.753  16.928  0.00  0.00    +0.000 C 
ATOM      2  C   UNL     1       3.509   2.786  17.688  0.00  0.00    +0.000 C 
ATOM      3  O   UNL     1       2.136   2.988  17.333  0.00  0.00    +0.000 OA
ATOM      4  C   UNL     1       1.529   4.154  17.894  0.00  0.00    +0.000 C 
ATOM      5  C   UNL     1       1.650   4.229  19.413  0.00  0.00    +0.000 C 
ATOM      6  F   UNL     1       0.850   3.273  19.965  0.00  0.00    +0.000 F 
ATOM      7  C   UNL     1       3.079   3.999  19.892  0.00  0.00    +0.000 C 
ATOM      8  C   UNL     1       3.692   2.767  19.216  0.00  0.00    +0.000 C 
ENDROOT
BRANCH   7   9
ATOM      9  O   UNL     1       3.951   5.128  19.686  0.00  0.00    +0.000 OA
ATOM     10  H   UNL     1       3.995   5.342  18.738  0.00  0.00    +0.000 HD
ENDBRANCH   7   9
BRANCH   8  11
ATOM     11  O   UNL     1       5.073   2.652  19.574  0.00  0.00    +0.000 OA
ATOM     12  H   UNL     1       5.230   3.344  20.249  0.00  0.00    +0.000 HD
ENDBRANCH   8  11
TORSDOF 2
ENDMDL
MODEL 7
REMARK VINA RESULT:      -4.9      4.442      5.311
REMARK  Name = 
REMARK  3 active torsions:
REMARK  status: ('A' for Active; 'I' for Inactive)
REMARK    1  A    between atoms: C_1  and  C_2
REMARK    2  A    between atoms: C_7  and  O_8
REMARK    3  A    between atoms: C_9  and  O_10
REMARK                            x       y       z     vdW  Elec       q    Type
REMARK                         _______ _______ _______ _____ _____    ______ ____
ROOT
ATOM      1  C   UNL     1       2.912   3.232  17.386  0.00  0.00    +0.000 C 
ATOM      2  C   UNL     1       2.771   2.191  18.497  0.00  0.00    +0.000 C 
ATOM      3  O   UNL     1       1.394   1.977  18.829  0.00  0.00    +0.000 OA
ATOM      4  C   UNL     1       0.785   3.019  19.594  0.00  0.00    +0.000 C 
ATOM      5  C   UNL     1       1.543   3.353  20.876  0.00  0.00    +0.000 C 
ATOM      6  F   UNL     1       1.400   2.318  21.752  0.00  0.00    +0.000 F 
ATOM      7  C   UNL     1       3.032   3.572  20.628  0.00  0.00    +0.000 C 
ATOM      8  C   UNL     1       3.614   2.451  19.759  0.00  0.00    +0.000 C 
ENDROOT
BRANCH   7   9
ATOM      9  O   UNL     1       3.339   4.842  20.021  0.00  0.00    +0.000 OA
ATOM     10  H   UNL     1       2.532   5.382  19.956  0.00  0.00    +0.000 HD
ENDBRANCH   7   9
BRANCH   8  11
ATOM     11  O   UNL     1       4.973   2.749  19.426  0.00  0.00    +0.000 OA
ATOM     12  H   UNL     1       5.418   2.946  20.277  0.00  0.00    +0.000 HD
ENDBRANCH   8  11
TORSDOF 2
ENDMDL
MODEL 8
REMARK VINA RESULT:      -4.8      4.355      5.613
REMARK  Name = 
REMARK  3 active torsions:
REMARK  status: ('A' for Active; 'I' for Inactive)
REMARK    1  A    between atoms: C_1  and  C_2
REMARK    2  A    between atoms: C_7  and  O_8
REMARK    3  A    between atoms: C_9  and  O_10
REMARK                            x       y       z     vdW  Elec       q    Type
REMARK                         _______ _______ _______ _____ _____    ______ ____
ROOT
ATOM      1  C   UNL     1       3.790   3.087  17.609  0.00  0.00    +0.000 C 
ATOM      2  C   UNL     1       3.103   4.049  18.579  0.00  0.00    +0.000 C 
ATOM      3  O   UNL     1       3.622   3.899  19.906  0.00  0.00    +0.000 OA
ATOM      4  C   UNL     1       3.184   2.730  20.600  0.00  0.00    +0.000 C 
ATOM      5  C   UNL     1       1.665   2.594  20.660  0.00  0.00    +0.000 C 
ATOM      6  F   UNL     1       1.171   3.551  21.497  0.00  0.00    +0.000 F 
ATOM      7  C   UNL     1       1.014   2.767  19.292  0.00  0.00    +0.000 C 
ATOM      8  C   UNL     1       1.564   4.006  18.576  0.00  0.00    +0.000 C 
ENDROOT
BRANCH   7   9
ATOM      9  O   UNL     1       1.162   1.624  18.429  0.00  0.00    +0.000 OA
ATOM     10  H   UNL     1       2.047   1.628  18.024  0.00  0.00    +0.000 HD
ENDBRANCH   7   9
BRANCH   8  11
ATOM     11  O   UNL     1       1.044   4.071  17.245  0.00  0.00    +0.000 OA
ATOM     12  H   UNL     1       1.031   3.146  16.920  0.00  0.00    +0.000 HD
ENDBRANCH   8  11
TORSDOF 2
ENDMDL
MODEL 9
REMARK VINA RESULT:      -4.8      4.299      5.312
REMARK  Name = 
REMARK  3 active torsions:
REMARK  status: ('A' for Active; 'I' for Inactive)
REMARK    1  A    between atoms: C_1  and  C_2
REMARK    2  A    between atoms: C_7  and  O_8
REMARK    3  A    between atoms: C_9  and  O_10
REMARK                            x       y       z     vdW  Elec       q    Type
REMARK                         _______ _______ _______ _____ _____    ______ ____
ROOT
ATOM      1  C   UNL     1       1.941   5.599  20.494  0.00  0.00    +0.000 C 
ATOM      2  C   UNL     1       2.968   4.526  20.127  0.00  0.00    +0.000 C 
ATOM      3  O   UNL     1       3.232   4.529  18.719  0.00  0.00    +0.000 OA
ATOM      4  C   UNL     1       2.202   3.959  17.908  0.00  0.00    +0.000 C 
ATOM      5  C   UNL     1       1.817   2.542  18.324  0.00  0.00    +0.000 C 
ATOM      6  F   UNL     1       2.842   1.699  18.010  0.00  0.00    +0.000 F 
ATOM      7  C   UNL     1       1.542   2.432  19.820  0.00  0.00    +0.000 C 
ATOM      8  C   UNL     1       2.653   3.107  20.632  0.00  0.00    +0.000 C 
ENDROOT
BRANCH   7   9
ATOM      9  O   UNL     1       0.271   2.981  20.219  0.00  0.00    +0.000 OA
ATOM     10  H   UNL     1      -0.305   2.272  20.554  0.00  0.00    +0.000 HD
ENDBRANCH   7   9
BRANCH   8  11
ATOM     11  O   UNL     1       2.306   3.113  22.020  0.00  0.00    +0.000 OA
ATOM     12  H   UNL     1       1.380   2.795  22.064  0.00  0.00    +0.000 HD
ENDBRANCH   8  11
TORSDOF 2
ENDMDL
