MODEL 1
REMARK VINA RESULT:      -7.5      0.000      0.000
REMARK  Name = 
REMARK  7 active torsions:
REMARK  status: ('A' for Active; 'I' for Inactive)
REMARK    1  A    between atoms: C_1  and  C_2
REMARK    2  A    between atoms: C_2  and  C_3
REMARK    3  A    between atoms: C_2  and  C_4
REMARK    4  A    between atoms: C_2  and  N_5
REMARK    5  A    between atoms: C_6  and  C_8
REMARK    6  A    between atoms: C_8  and  N_9
REMARK    7  A    between atoms: N_21  and  C_22
REMARK                            x       y       z     vdW  Elec       q    Type
REMARK                         _______ _______ _______ _____ _____    ______ ____
ROOT
ATOM      1  N   UNL     1      -0.533  11.444  18.371  0.00  0.00    +0.000 N 
ATOM      2  C   UNL     1      -0.778  10.647  19.521  0.00  0.00    +0.000 C 
ATOM      3  O   UNL     1      -1.807  10.055  19.817  0.00  0.00    +0.000 OA
ATOM      4  C   UNL     1       0.513  10.576  20.338  0.00  0.00    +0.000 C 
ATOM      5  C   UNL     1       0.260  10.512  21.838  0.00  0.00    +0.000 C 
ATOM      6  C   UNL     1       0.572   9.206  22.499  0.00  0.00    +0.000 C 
ATOM      7  O   UNL     1       0.298   8.956  23.666  0.00  0.00    +0.000 OA
ATOM      8  N   UNL     1       1.335   8.203  21.842  0.00  0.00    +0.000 N 
ATOM      9  C   UNL     1       1.610   8.279  20.499  0.00  0.00    +0.000 A 
ATOM     10  C   UNL     1       1.303   9.412  19.779  0.00  0.00    +0.000 A 
ATOM     11  C   UNL     1       1.724   9.087  18.464  0.00  0.00    +0.000 A 
ATOM     12  N   UNL     1       2.338   7.906  18.392  0.00  0.00    +0.000 NA
ATOM     13  N   UNL     1       2.184   7.363  19.624  0.00  0.00    +0.000 N 
ATOM     14  C   UNL     1       1.177  11.834  19.863  0.00  0.00    +0.000 A 
ATOM     15  C   UNL     1       1.944  12.790  20.511  0.00  0.00    +0.000 A 
ATOM     16  C   UNL     1       2.595  13.743  19.733  0.00  0.00    +0.000 A 
ATOM     17  C   UNL     1       2.479  13.695  18.340  0.00  0.00    +0.000 A 
ATOM     18  C   UNL     1       1.481  12.911  17.746  0.00  0.00    +0.000 A 
ATOM     19  C   UNL     1       0.733  12.093  18.570  0.00  0.00    +0.000 A 
ATOM     20  H   UNL     1       1.647   7.423  22.398  0.00  0.00    +0.000 HD
ENDROOT
BRANCH  13  21
ATOM     21  C   UNL     1       2.552   6.006  19.882  0.00  0.00    +0.000 A 
ATOM     22  C   UNL     1       3.740   5.514  19.322  0.00  0.00    +0.000 A 
ATOM     23  C   UNL     1       4.137   4.204  19.592  0.00  0.00    +0.000 A 
ATOM     24  C   UNL     1       3.344   3.373  20.382  0.00  0.00    +0.000 A 
ATOM     25  C   UNL     1       2.120   3.838  20.878  0.00  0.00    +0.000 A 
ATOM     26  C   UNL     1       1.717   5.146  20.606  0.00  0.00    +0.000 A 
ENDBRANCH  13  21
BRANCH   1  27
ATOM     27  C   UNL     1      -1.638  12.299  17.911  0.00  0.00    +0.000 C 
BRANCH  27  29
ATOM     28  N   UNL     1      -4.055  12.207  18.635  0.00  0.00    +0.000 N 
ATOM     29  C   UNL     1      -3.114  11.859  17.695  0.00  0.00    +0.000 C 
ATOM     30  O   UNL     1      -3.427  11.351  16.616  0.00  0.00    +0.000 OA
ATOM     31  H   UNL     1      -3.734  12.730  19.444  0.00  0.00    +0.000 HD
BRANCH  28  33
ATOM     32  C   UNL     1      -5.942  10.607  18.473  0.00  0.00    +0.000 C 
ATOM     33  C   UNL     1      -5.523  12.082  18.493  0.00  0.00    +0.000 C 
ATOM     34  C   UNL     1      -6.045  12.795  17.233  0.00  0.00    +0.000 C 
ATOM     35  C   UNL     1      -6.193  12.755  19.711  0.00  0.00    +0.000 C 
ENDBRANCH  28  33
ENDBRANCH  27  29
ENDBRANCH   1  27
TORSDOF 4
ENDMDL
MODEL 2
REMARK VINA RESULT:      -7.4      2.792      8.077
REMARK  Name = 
REMARK  7 active torsions:
REMARK  status: ('A' for Active; 'I' for Inactive)
REMARK    1  A    between atoms: C_1  and  C_2
REMARK    2  A    between atoms: C_2  and  C_3
REMARK    3  A    between atoms: C_2  and  C_4
REMARK    4  A    between atoms: C_2  and  N_5
REMARK    5  A    between atoms: C_6  and  C_8
REMARK    6  A    between atoms: C_8  and  N_9
REMARK    7  A    between atoms: N_21  and  C_22
REMARK                            x       y       z     vdW  Elec       q    Type
REMARK                         _______ _______ _______ _____ _____    ______ ____
ROOT
ATOM      1  N   UNL     1       1.078   9.624  20.129  0.00  0.00    +0.000 N 
ATOM      2  C   UNL     1       0.855  10.433  21.274  0.00  0.00    +0.000 C 
ATOM      3  O   UNL     1       1.352  10.311  22.386  0.00  0.00    +0.000 OA
ATOM      4  C   UNL     1      -0.088  11.571  20.880  0.00  0.00    +0.000 C 
ATOM      5  C   UNL     1      -1.020  11.984  22.011  0.00  0.00    +0.000 C 
ATOM      6  C   UNL     1      -0.754  13.325  22.621  0.00  0.00    +0.000 C 
ATOM      7  O   UNL     1      -1.328  13.739  23.621  0.00  0.00    +0.000 OA
ATOM      8  N   UNL     1       0.101  14.271  21.995  0.00  0.00    +0.000 N 
ATOM      9  C   UNL     1       0.909  13.919  20.942  0.00  0.00    +0.000 A 
ATOM     10  C   UNL     1       0.793  12.682  20.348  0.00  0.00    +0.000 A 
ATOM     11  C   UNL     1       1.789  12.711  19.338  0.00  0.00    +0.000 A 
ATOM     12  N   UNL     1       2.393  13.895  19.239  0.00  0.00    +0.000 NA
ATOM     13  N   UNL     1       1.922  14.610  20.288  0.00  0.00    +0.000 N 
ATOM     14  C   UNL     1      -0.765  10.936  19.703  0.00  0.00    +0.000 A 
ATOM     15  C   UNL     1      -2.073  10.971  19.245  0.00  0.00    +0.000 A 
ATOM     16  C   UNL     1      -2.341  10.436  17.989  0.00  0.00    +0.000 A 
ATOM     17  C   UNL     1      -1.294   9.909  17.225  0.00  0.00    +0.000 A 
ATOM     18  C   UNL     1      -0.059   9.629  17.825  0.00  0.00    +0.000 A 
ATOM     19  C   UNL     1       0.121  10.026  19.136  0.00  0.00    +0.000 A 
ATOM     20  H   UNL     1       0.106  15.207  22.370  0.00  0.00    +0.000 HD
ENDROOT
BRANCH  13  21
ATOM     21  C   UNL     1       2.485  15.881  20.625  0.00  0.00    +0.000 A 
ATOM     22  C   UNL     1       1.787  17.042  20.265  0.00  0.00    +0.000 A 
ATOM     23  C   UNL     1       2.301  18.291  20.617  0.00  0.00    +0.000 A 
ATOM     24  C   UNL     1       3.518  18.390  21.291  0.00  0.00    +0.000 A 
ATOM     25  C   UNL     1       4.253  17.235  21.583  0.00  0.00    +0.000 A 
ATOM     26  C   UNL     1       3.745  15.985  21.227  0.00  0.00    +0.000 A 
ENDBRANCH  13  21
BRANCH   1  27
ATOM     27  C   UNL     1       1.211   8.177  20.356  0.00  0.00    +0.000 C 
BRANCH  27  29
ATOM     28  N   UNL     1       2.375   5.947  20.129  0.00  0.00    +0.000 N 
ATOM     29  C   UNL     1       2.209   7.221  19.641  0.00  0.00    +0.000 C 
ATOM     30  O   UNL     1       2.703   7.578  18.569  0.00  0.00    +0.000 OA
ATOM     31  H   UNL     1       1.840   5.691  20.954  0.00  0.00    +0.000 HD
BRANCH  28  33
ATOM     32  C   UNL     1       4.583   5.163  19.321  0.00  0.00    +0.000 C 
ATOM     33  C   UNL     1       3.091   4.838  19.461  0.00  0.00    +0.000 C 
ATOM     34  C   UNL     1       2.493   4.512  18.080  0.00  0.00    +0.000 C 
ATOM     35  C   UNL     1       2.953   3.570  20.330  0.00  0.00    +0.000 C 
ENDBRANCH  28  33
ENDBRANCH  27  29
ENDBRANCH   1  27
TORSDOF 4
ENDMDL
MODEL 3
REMARK VINA RESULT:      -7.4      2.960      8.044
REMARK  Name = 
REMARK  7 active torsions:
REMARK  status: ('A' for Active; 'I' for Inactive)
REMARK    1  A    between atoms: C_1  and  C_2
REMARK    2  A    between atoms: C_2  and  C_3
REMARK    3  A    between atoms: C_2  and  C_4
REMARK    4  A    between atoms: C_2  and  N_5
REMARK    5  A    between atoms: C_6  and  C_8
REMARK    6  A    between atoms: C_8  and  N_9
REMARK    7  A    between atoms: N_21  and  C_22
REMARK                            x       y       z     vdW  Elec       q    Type
REMARK                         _______ _______ _______ _____ _____    ______ ____
ROOT
ATOM      1  N   UNL     1       0.823   9.600  20.726  0.00  0.00    +0.000 N 
ATOM      2  C   UNL     1       0.420  10.369  21.849  0.00  0.00    +0.000 C 
ATOM      3  O   UNL     1       0.697  10.179  23.026  0.00  0.00    +0.000 OA
ATOM      4  C   UNL     1      -0.392  11.564  21.345  0.00  0.00    +0.000 C 
ATOM      5  C   UNL     1      -1.503  11.969  22.304  0.00  0.00    +0.000 C 
ATOM      6  C   UNL     1      -1.307  13.271  23.019  0.00  0.00    +0.000 C 
ATOM      7  O   UNL     1      -2.042  13.667  23.915  0.00  0.00    +0.000 OA
ATOM      8  N   UNL     1      -0.318  14.203  22.608  0.00  0.00    +0.000 N 
ATOM      9  C   UNL     1       0.659  13.860  21.705  0.00  0.00    +0.000 A 
ATOM     10  C   UNL     1       0.611  12.656  21.040  0.00  0.00    +0.000 A 
ATOM     11  C   UNL     1       1.777  12.683  20.232  0.00  0.00    +0.000 A 
ATOM     12  N   UNL     1       2.432  13.842  20.305  0.00  0.00    +0.000 NA
ATOM     13  N   UNL     1       1.799  14.533  21.283  0.00  0.00    +0.000 N 
ATOM     14  C   UNL     1      -0.862  11.009  20.034  0.00  0.00    +0.000 A 
ATOM     15  C   UNL     1      -2.060  11.121  19.345  0.00  0.00    +0.000 A 
ATOM     16  C   UNL     1      -2.108  10.651  18.037  0.00  0.00    +0.000 A 
ATOM     17  C   UNL     1      -0.957  10.111  17.453  0.00  0.00    +0.000 A 
ATOM     18  C   UNL     1       0.134   9.752  18.255  0.00  0.00    +0.000 A 
ATOM     19  C   UNL     1       0.081  10.085  19.595  0.00  0.00    +0.000 A 
ATOM     20  H   UNL     1      -0.349  15.122  23.023  0.00  0.00    +0.000 HD
ENDROOT
BRANCH  13  21
ATOM     21  C   UNL     1       2.335  15.762  21.781  0.00  0.00    +0.000 A 
ATOM     22  C   UNL     1       1.698  16.962  21.433  0.00  0.00    +0.000 A 
ATOM     23  C   UNL     1       2.183  18.169  21.939  0.00  0.00    +0.000 A 
ATOM     24  C   UNL     1       3.315  18.192  22.754  0.00  0.00    +0.000 A 
ATOM     25  C   UNL     1       3.997  17.002  23.037  0.00  0.00    +0.000 A 
ATOM     26  C   UNL     1       3.518  15.794  22.530  0.00  0.00    +0.000 A 
ENDBRANCH  13  21
BRANCH   1  27
ATOM     27  C   UNL     1       0.860   8.140  20.901  0.00  0.00    +0.000 C 
BRANCH  27  29
ATOM     28  N   UNL     1       1.898   5.851  20.660  0.00  0.00    +0.000 N 
ATOM     29  C   UNL     1       1.866   7.158  20.236  0.00  0.00    +0.000 C 
ATOM     30  O   UNL     1       2.495   7.538  19.246  0.00  0.00    +0.000 OA
ATOM     31  H   UNL     1       1.262   5.588  21.407  0.00  0.00    +0.000 HD
BRANCH  28  33
ATOM     32  C   UNL     1       2.593   3.483  20.889  0.00  0.00    +0.000 C 
ATOM     33  C   UNL     1       2.611   4.734  20.002  0.00  0.00    +0.000 C 
ATOM     34  C   UNL     1       4.062   5.104  19.643  0.00  0.00    +0.000 C 
ATOM     35  C   UNL     1       1.885   4.397  18.682  0.00  0.00    +0.000 C 
ENDBRANCH  28  33
ENDBRANCH  27  29
ENDBRANCH   1  27
TORSDOF 4
ENDMDL
MODEL 4
REMARK VINA RESULT:      -7.3      2.792      8.004
REMARK  Name = 
REMARK  7 active torsions:
REMARK  status: ('A' for Active; 'I' for Inactive)
REMARK    1  A    between atoms: C_1  and  C_2
REMARK    2  A    between atoms: C_2  and  C_3
REMARK    3  A    between atoms: C_2  and  C_4
REMARK    4  A    between atoms: C_2  and  N_5
REMARK    5  A    between atoms: C_6  and  C_8
REMARK    6  A    between atoms: C_8  and  N_9
REMARK    7  A    between atoms: N_21  and  C_22
REMARK                            x       y       z     vdW  Elec       q    Type
REMARK                         _______ _______ _______ _____ _____    ______ ____
ROOT
ATOM      1  N   UNL     1       1.028   9.650  20.143  0.00  0.00    +0.000 N 
ATOM      2  C   UNL     1       0.880  10.462  21.298  0.00  0.00    +0.000 C 
ATOM      3  O   UNL     1       1.402  10.309  22.394  0.00  0.00    +0.000 OA
ATOM      4  C   UNL     1      -0.015  11.649  20.937  0.00  0.00    +0.000 C 
ATOM      5  C   UNL     1      -0.891  12.102  22.096  0.00  0.00    +0.000 C 
ATOM      6  C   UNL     1      -0.539  13.425  22.704  0.00  0.00    +0.000 C 
ATOM      7  O   UNL     1      -1.062  13.861  23.722  0.00  0.00    +0.000 OA
ATOM      8  N   UNL     1       0.344  14.330  22.057  0.00  0.00    +0.000 N 
ATOM      9  C   UNL     1       1.102  13.943  20.979  0.00  0.00    +0.000 A 
ATOM     10  C   UNL     1       0.905  12.717  20.384  0.00  0.00    +0.000 A 
ATOM     11  C   UNL     1       1.871  12.701  19.344  0.00  0.00    +0.000 A 
ATOM     12  N   UNL     1       2.532  13.853  19.233  0.00  0.00    +0.000 NA
ATOM     13  N   UNL     1       2.129  14.586  20.298  0.00  0.00    +0.000 N 
ATOM     14  C   UNL     1      -0.758  11.057  19.778  0.00  0.00    +0.000 A 
ATOM     15  C   UNL     1      -2.076  11.160  19.359  0.00  0.00    +0.000 A 
ATOM     16  C   UNL     1      -2.407  10.647  18.109  0.00  0.00    +0.000 A 
ATOM     17  C   UNL     1      -1.411  10.072  17.311  0.00  0.00    +0.000 A 
ATOM     18  C   UNL     1      -0.175   9.726  17.874  0.00  0.00    +0.000 A 
ATOM     19  C   UNL     1       0.063  10.106  19.180  0.00  0.00    +0.000 A 
ATOM     20  H   UNL     1       0.408  15.262  22.435  0.00  0.00    +0.000 HD
ENDROOT
BRANCH  13  21
ATOM     21  C   UNL     1       2.766  15.824  20.624  0.00  0.00    +0.000 A 
ATOM     22  C   UNL     1       4.115  15.805  21.007  0.00  0.00    +0.000 A 
ATOM     23  C   UNL     1       4.765  17.005  21.293  0.00  0.00    +0.000 A 
ATOM     24  C   UNL     1       4.075  18.216  21.235  0.00  0.00    +0.000 A 
ATOM     25  C   UNL     1       2.709  18.228  20.929  0.00  0.00    +0.000 A 
ATOM     26  C   UNL     1       2.053  17.029  20.647  0.00  0.00    +0.000 A 
ENDBRANCH  13  21
BRANCH   1  27
ATOM     27  C   UNL     1       1.093   8.196  20.359  0.00  0.00    +0.000 C 
BRANCH  27  29
ATOM     28  N   UNL     1       2.285   5.973  20.255  0.00  0.00    +0.000 N 
ATOM     29  C   UNL     1       2.092   7.210  19.688  0.00  0.00    +0.000 C 
ATOM     30  O   UNL     1       2.561   7.504  18.586  0.00  0.00    +0.000 OA
ATOM     31  H   UNL     1       1.769   5.763  21.104  0.00  0.00    +0.000 HD
BRANCH  28  33
ATOM     32  C   UNL     1       2.873   3.579  20.518  0.00  0.00    +0.000 C 
ATOM     33  C   UNL     1       3.005   4.833  19.645  0.00  0.00    +0.000 C 
ATOM     34  C   UNL     1       4.492   5.150  19.402  0.00  0.00    +0.000 C 
ATOM     35  C   UNL     1       2.371   4.530  18.270  0.00  0.00    +0.000 C 
ENDBRANCH  28  33
ENDBRANCH  27  29
ENDBRANCH   1  27
TORSDOF 4
ENDMDL
MODEL 5
REMARK VINA RESULT:      -7.2      3.026      5.754
REMARK  Name = 
REMARK  7 active torsions:
REMARK  status: ('A' for Active; 'I' for Inactive)
REMARK    1  A    between atoms: C_1  and  C_2
REMARK    2  A    between atoms: C_2  and  C_3
REMARK    3  A    between atoms: C_2  and  C_4
REMARK    4  A    between atoms: C_2  and  N_5
REMARK    5  A    between atoms: C_6  and  C_8
REMARK    6  A    between atoms: C_8  and  N_9
REMARK    7  A    between atoms: N_21  and  C_22
REMARK                            x       y       z     vdW  Elec       q    Type
REMARK                         _______ _______ _______ _____ _____    ______ ____
ROOT
ATOM      1  N   UNL     1      -0.284  14.211  20.551  0.00  0.00    +0.000 N 
ATOM      2  C   UNL     1      -0.363  13.473  19.340  0.00  0.00    +0.000 C 
ATOM      3  O   UNL     1       0.217  13.699  18.286  0.00  0.00    +0.000 OA
ATOM      4  C   UNL     1      -1.267  12.262  19.575  0.00  0.00    +0.000 C 
ATOM      5  C   UNL     1      -2.075  11.881  18.342  0.00  0.00    +0.000 C 
ATOM      6  C   UNL     1      -1.681  10.602  17.671  0.00  0.00    +0.000 C 
ATOM      7  O   UNL     1      -2.144  10.230  16.601  0.00  0.00    +0.000 OA
ATOM      8  N   UNL     1      -0.828   9.661  18.307  0.00  0.00    +0.000 N 
ATOM      9  C   UNL     1      -0.133   9.981  19.447  0.00  0.00    +0.000 A 
ATOM     10  C   UNL     1      -0.371  11.165  20.108  0.00  0.00    +0.000 A 
ATOM     11  C   UNL     1       0.537  11.118  21.197  0.00  0.00    +0.000 A 
ATOM     12  N   UNL     1       1.200   9.964  21.271  0.00  0.00    +0.000 NA
ATOM     13  N   UNL     1       0.861   9.299  20.141  0.00  0.00    +0.000 N 
ATOM     14  C   UNL     1      -2.077  12.776  20.727  0.00  0.00    +0.000 A 
ATOM     15  C   UNL     1      -3.414  12.640  21.066  0.00  0.00    +0.000 A 
ATOM     16  C   UNL     1      -3.817  13.071  22.326  0.00  0.00    +0.000 A 
ATOM     17  C   UNL     1      -2.870  13.598  23.212  0.00  0.00    +0.000 A 
ATOM     18  C   UNL     1      -1.608  13.984  22.741  0.00  0.00    +0.000 A 
ATOM     19  C   UNL     1      -1.296  13.690  21.428  0.00  0.00    +0.000 A 
ATOM     20  H   UNL     1      -0.736   8.755  17.873  0.00  0.00    +0.000 HD
ENDROOT
BRANCH  13  21
ATOM     21  C   UNL     1       1.524   8.087  19.772  0.00  0.00    +0.000 A 
ATOM     22  C   UNL     1       1.500   7.009  20.667  0.00  0.00    +0.000 A 
ATOM     23  C   UNL     1       2.109   5.805  20.311  0.00  0.00    +0.000 A 
ATOM     24  C   UNL     1       2.770   5.681  19.089  0.00  0.00    +0.000 A 
ATOM     25  C   UNL     1       2.861   6.782  18.228  0.00  0.00    +0.000 A 
ATOM     26  C   UNL     1       2.258   7.988  18.583  0.00  0.00    +0.000 A 
ENDBRANCH  13  21
BRANCH   1  27
ATOM     27  C   UNL     1      -0.218  15.676  20.432  0.00  0.00    +0.000 C 
BRANCH  27  29
ATOM     28  N   UNL     1       2.006  15.826  19.246  0.00  0.00    +0.000 N 
ATOM     29  C   UNL     1       0.952  16.497  19.820  0.00  0.00    +0.000 C 
ATOM     30  O   UNL     1       0.829  17.720  19.726  0.00  0.00    +0.000 OA
ATOM     31  H   UNL     1       1.976  14.811  19.261  0.00  0.00    +0.000 HD
BRANCH  28  33
ATOM     32  C   UNL     1       4.083  17.178  19.302  0.00  0.00    +0.000 C 
ATOM     33  C   UNL     1       3.080  16.423  18.421  0.00  0.00    +0.000 C 
ATOM     34  C   UNL     1       2.523  17.361  17.335  0.00  0.00    +0.000 C 
ATOM     35  C   UNL     1       3.835  15.286  17.699  0.00  0.00    +0.000 C 
ENDBRANCH  28  33
ENDBRANCH  27  29
ENDBRANCH   1  27
TORSDOF 4
ENDMDL
MODEL 6
REMARK VINA RESULT:      -7.2      3.406      4.987
REMARK  Name = 
REMARK  7 active torsions:
REMARK  status: ('A' for Active; 'I' for Inactive)
REMARK    1  A    between atoms: C_1  and  C_2
REMARK    2  A    between atoms: C_2  and  C_3
REMARK    3  A    between atoms: C_2  and  C_4
REMARK    4  A    between atoms: C_2  and  N_5
REMARK    5  A    between atoms: C_6  and  C_8
REMARK    6  A    between atoms: C_8  and  N_9
REMARK    7  A    between atoms: N_21  and  C_22
REMARK                            x       y       z     vdW  Elec       q    Type
REMARK                         _______ _______ _______ _____ _____    ______ ____
ROOT
ATOM      1  N   UNL     1      -0.812  14.497  20.965  0.00  0.00    +0.000 N 
ATOM      2  C   UNL     1      -0.955  13.804  19.734  0.00  0.00    +0.000 C 
ATOM      3  O   UNL     1      -0.519  14.127  18.637  0.00  0.00    +0.000 OA
ATOM      4  C   UNL     1      -1.711  12.501  20.002  0.00  0.00    +0.000 C 
ATOM      5  C   UNL     1      -2.612  12.092  18.846  0.00  0.00    +0.000 C 
ATOM      6  C   UNL     1      -2.177  10.885  18.073  0.00  0.00    +0.000 C 
ATOM      7  O   UNL     1      -2.719  10.512  17.041  0.00  0.00    +0.000 OA
ATOM      8  N   UNL     1      -1.174  10.008  18.566  0.00  0.00    +0.000 N 
ATOM      9  C   UNL     1      -0.390  10.349  19.641  0.00  0.00    +0.000 A 
ATOM     10  C   UNL     1      -0.663  11.477  20.382  0.00  0.00    +0.000 A 
ATOM     11  C   UNL     1       0.361  11.477  21.365  0.00  0.00    +0.000 A 
ATOM     12  N   UNL     1       1.132  10.391  21.310  0.00  0.00    +0.000 NA
ATOM     13  N   UNL     1       0.733   9.742  20.190  0.00  0.00    +0.000 N 
ATOM     14  C   UNL     1      -2.433  12.888  21.258  0.00  0.00    +0.000 A 
ATOM     15  C   UNL     1      -3.706  12.608  21.730  0.00  0.00    +0.000 A 
ATOM     16  C   UNL     1      -4.005  12.947  23.046  0.00  0.00    +0.000 A 
ATOM     17  C   UNL     1      -3.019  13.529  23.851  0.00  0.00    +0.000 A 
ATOM     18  C   UNL     1      -1.858  14.055  23.269  0.00  0.00    +0.000 A 
ATOM     19  C   UNL     1      -1.668  13.845  21.917  0.00  0.00    +0.000 A 
ATOM     20  H   UNL     1      -1.047   9.133  18.081  0.00  0.00    +0.000 HD
ENDROOT
BRANCH  13  21
ATOM     21  C   UNL     1       1.462   8.616  19.693  0.00  0.00    +0.000 A 
ATOM     22  C   UNL     1       1.641   7.507  20.533  0.00  0.00    +0.000 A 
ATOM     23  C   UNL     1       2.316   6.384  20.054  0.00  0.00    +0.000 A 
ATOM     24  C   UNL     1       2.844   6.372  18.763  0.00  0.00    +0.000 A 
ATOM     25  C   UNL     1       2.733   7.508  17.951  0.00  0.00    +0.000 A 
ATOM     26  C   UNL     1       2.062   8.635  18.428  0.00  0.00    +0.000 A 
ENDBRANCH  13  21
BRANCH   1  27
ATOM     27  C   UNL     1      -0.896  15.965  20.912  0.00  0.00    +0.000 C 
BRANCH  27  29
ATOM     28  N   UNL     1      -3.331  16.233  20.300  0.00  0.00    +0.000 N 
ATOM     29  C   UNL     1      -2.199  16.809  20.826  0.00  0.00    +0.000 C 
ATOM     30  O   UNL     1      -2.224  17.914  21.373  0.00  0.00    +0.000 OA
ATOM     31  H   UNL     1      -3.257  15.274  19.975  0.00  0.00    +0.000 HD
BRANCH  28  33
ATOM     32  C   UNL     1      -4.844  17.960  19.365  0.00  0.00    +0.000 C 
ATOM     33  C   UNL     1      -4.701  16.791  20.347  0.00  0.00    +0.000 C 
ATOM     34  C   UNL     1      -5.093  17.243  21.765  0.00  0.00    +0.000 C 
ATOM     35  C   UNL     1      -5.695  15.686  19.928  0.00  0.00    +0.000 C 
ENDBRANCH  28  33
ENDBRANCH  27  29
ENDBRANCH   1  27
TORSDOF 4
ENDMDL
MODEL 7
REMARK VINA RESULT:      -7.2      3.913      5.786
REMARK  Name = 
REMARK  7 active torsions:
REMARK  status: ('A' for Active; 'I' for Inactive)
REMARK    1  A    between atoms: C_1  and  C_2
REMARK    2  A    between atoms: C_2  and  C_3
REMARK    3  A    between atoms: C_2  and  C_4
REMARK    4  A    between atoms: C_2  and  N_5
REMARK    5  A    between atoms: C_6  and  C_8
REMARK    6  A    between atoms: C_8  and  N_9
REMARK    7  A    between atoms: N_21  and  C_22
REMARK                            x       y       z     vdW  Elec       q    Type
REMARK                         _______ _______ _______ _____ _____    ______ ____
ROOT
ATOM      1  N   UNL     1      -1.484  14.769  21.936  0.00  0.00    +0.000 N 
ATOM      2  C   UNL     1      -1.580  14.268  20.611  0.00  0.00    +0.000 C 
ATOM      3  O   UNL     1      -1.143  14.774  19.586  0.00  0.00    +0.000 OA
ATOM      4  C   UNL     1      -2.279  12.909  20.663  0.00  0.00    +0.000 C 
ATOM      5  C   UNL     1      -3.145  12.644  19.439  0.00  0.00    +0.000 C 
ATOM      6  C   UNL     1      -2.646  11.589  18.500  0.00  0.00    +0.000 C 
ATOM      7  O   UNL     1      -3.157  11.357  17.412  0.00  0.00    +0.000 OA
ATOM      8  N   UNL     1      -1.611  10.690  18.874  0.00  0.00    +0.000 N 
ATOM      9  C   UNL     1      -0.858  10.896  20.003  0.00  0.00    +0.000 A 
ATOM     10  C   UNL     1      -1.191  11.884  20.902  0.00  0.00    +0.000 A 
ATOM     11  C   UNL     1      -0.182  11.776  21.894  0.00  0.00    +0.000 A 
ATOM     12  N   UNL     1       0.639  10.745  21.689  0.00  0.00    +0.000 NA
ATOM     13  N   UNL     1       0.284  10.259  20.476  0.00  0.00    +0.000 N 
ATOM     14  C   UNL     1      -3.034  13.067  21.948  0.00  0.00    +0.000 A 
ATOM     15  C   UNL     1      -4.300  12.664  22.346  0.00  0.00    +0.000 A 
ATOM     16  C   UNL     1      -4.631  12.784  23.692  0.00  0.00    +0.000 A 
ATOM     17  C   UNL     1      -3.683  13.277  24.596  0.00  0.00    +0.000 A 
ATOM     18  C   UNL     1      -2.539  13.935  24.125  0.00  0.00    +0.000 A 
ATOM     19  C   UNL     1      -2.322  13.943  22.761  0.00  0.00    +0.000 A 
ATOM     20  H   UNL     1      -1.439   9.907  18.263  0.00  0.00    +0.000 HD
ENDROOT
BRANCH  13  21
ATOM     21  C   UNL     1       1.069   9.255  19.827  0.00  0.00    +0.000 A 
ATOM     22  C   UNL     1       1.461   8.128  20.564  0.00  0.00    +0.000 A 
ATOM     23  C   UNL     1       2.195   7.120  19.939  0.00  0.00    +0.000 A 
ATOM     24  C   UNL     1       2.572   7.243  18.602  0.00  0.00    +0.000 A 
ATOM     25  C   UNL     1       2.248   8.403  17.888  0.00  0.00    +0.000 A 
ATOM     26  C   UNL     1       1.518   9.416  18.510  0.00  0.00    +0.000 A 
ENDBRANCH  13  21
BRANCH   1  27
ATOM     27  C   UNL     1      -1.633  16.223  22.107  0.00  0.00    +0.000 C 
BRANCH  27  29
ATOM     28  N   UNL     1      -4.141  16.513  22.158  0.00  0.00    +0.000 N 
ATOM     29  C   UNL     1      -2.915  16.967  22.580  0.00  0.00    +0.000 C 
ATOM     30  O   UNL     1      -2.805  17.842  23.442  0.00  0.00    +0.000 OA
ATOM     31  H   UNL     1      -4.151  15.709  21.536  0.00  0.00    +0.000 HD
BRANCH  28  33
ATOM     32  C   UNL     1      -5.710  18.420  22.370  0.00  0.00    +0.000 C 
ATOM     33  C   UNL     1      -5.460  16.938  22.677  0.00  0.00    +0.000 C 
ATOM     34  C   UNL     1      -5.597  16.683  24.189  0.00  0.00    +0.000 C 
ATOM     35  C   UNL     1      -6.556  16.110  21.972  0.00  0.00    +0.000 C 
ENDBRANCH  28  33
ENDBRANCH  27  29
ENDBRANCH   1  27
TORSDOF 4
ENDMDL
MODEL 8
REMARK VINA RESULT:      -7.1      2.946      7.725
REMARK  Name = 
REMARK  7 active torsions:
REMARK  status: ('A' for Active; 'I' for Inactive)
REMARK    1  A    between atoms: C_1  and  C_2
REMARK    2  A    between atoms: C_2  and  C_3
REMARK    3  A    between atoms: C_2  and  C_4
REMARK    4  A    between atoms: C_2  and  N_5
REMARK    5  A    between atoms: C_6  and  C_8
REMARK    6  A    between atoms: C_8  and  N_9
REMARK    7  A    between atoms: N_21  and  C_22
REMARK                            x       y       z     vdW  Elec       q    Type
REMARK                         _______ _______ _______ _____ _____    ______ ____
ROOT
ATOM      1  N   UNL     1       1.258  12.113  18.543  0.00  0.00    +0.000 N 
ATOM      2  C   UNL     1       0.463  12.879  19.436  0.00  0.00    +0.000 C 
ATOM      3  O   UNL     1       0.418  14.097  19.543  0.00  0.00    +0.000 OA
ATOM      4  C   UNL     1      -0.420  11.918  20.234  0.00  0.00    +0.000 C 
ATOM      5  C   UNL     1      -0.674  12.395  21.658  0.00  0.00    +0.000 C 
ATOM      6  C   UNL     1      -2.069  12.848  21.957  0.00  0.00    +0.000 C 
ATOM      7  O   UNL     1      -2.395  13.380  23.011  0.00  0.00    +0.000 OA
ATOM      8  N   UNL     1      -3.147  12.569  21.076  0.00  0.00    +0.000 N 
ATOM      9  C   UNL     1      -2.929  12.092  19.807  0.00  0.00    +0.000 A 
ATOM     10  C   UNL     1      -1.670  11.708  19.405  0.00  0.00    +0.000 A 
ATOM     11  C   UNL     1      -1.867  11.300  18.061  0.00  0.00    +0.000 A 
ATOM     12  N   UNL     1      -3.148  11.323  17.694  0.00  0.00    +0.000 NA
ATOM     13  N   UNL     1      -3.793  11.901  18.735  0.00  0.00    +0.000 N 
ATOM     14  C   UNL     1       0.405  10.672  20.123  0.00  0.00    +0.000 A 
ATOM     15  C   UNL     1       0.681   9.649  21.016  0.00  0.00    +0.000 A 
ATOM     16  C   UNL     1       1.322   8.513  20.533  0.00  0.00    +0.000 A 
ATOM     17  C   UNL     1       1.644   8.426  19.174  0.00  0.00    +0.000 A 
ATOM     18  C   UNL     1       1.616   9.575  18.372  0.00  0.00    +0.000 A 
ATOM     19  C   UNL     1       1.125  10.737  18.934  0.00  0.00    +0.000 A 
ATOM     20  H   UNL     1      -4.079  12.755  21.414  0.00  0.00    +0.000 HD
ENDROOT
BRANCH  13  21
ATOM     21  C   UNL     1      -5.171  12.270  18.634  0.00  0.00    +0.000 A 
ATOM     22  C   UNL     1      -5.700  12.552  17.366  0.00  0.00    +0.000 A 
ATOM     23  C   UNL     1      -7.051  12.877  17.241  0.00  0.00    +0.000 A 
ATOM     24  C   UNL     1      -7.867  12.958  18.369  0.00  0.00    +0.000 A 
ATOM     25  C   UNL     1      -7.322  12.753  19.642  0.00  0.00    +0.000 A 
ATOM     26  C   UNL     1      -5.970  12.432  19.772  0.00  0.00    +0.000 A 
ENDBRANCH  13  21
BRANCH   1  27
ATOM     27  C   UNL     1       2.628  12.591  18.300  0.00  0.00    +0.000 C 
BRANCH  27  29
ATOM     28  N   UNL     1       2.921  15.060  17.859  0.00  0.00    +0.000 N 
ATOM     29  C   UNL     1       3.196  13.989  18.677  0.00  0.00    +0.000 C 
ATOM     30  O   UNL     1       3.740  14.130  19.774  0.00  0.00    +0.000 OA
ATOM     31  H   UNL     1       2.364  14.881  17.029  0.00  0.00    +0.000 HD
BRANCH  28  33
ATOM     32  C   UNL     1       4.666  16.730  18.416  0.00  0.00    +0.000 C 
ATOM     33  C   UNL     1       3.173  16.485  18.167  0.00  0.00    +0.000 C 
ATOM     34  C   UNL     1       2.352  16.970  19.376  0.00  0.00    +0.000 C 
ATOM     35  C   UNL     1       2.742  17.334  16.952  0.00  0.00    +0.000 C 
ENDBRANCH  28  33
ENDBRANCH  27  29
ENDBRANCH   1  27
TORSDOF 4
ENDMDL
MODEL 9
REMARK VINA RESULT:      -7.1      4.367      6.285
REMARK  Name = 
REMARK  7 active torsions:
REMARK  status: ('A' for Active; 'I' for Inactive)
REMARK    1  A    between atoms: C_1  and  C_2
REMARK    2  A    between atoms: C_2  and  C_3
REMARK    3  A    between atoms: C_2  and  C_4
REMARK    4  A    between atoms: C_2  and  N_5
REMARK    5  A    between atoms: C_6  and  C_8
REMARK    6  A    between atoms: C_8  and  N_9
REMARK    7  A    between atoms: N_21  and  C_22
REMARK                            x       y       z     vdW  Elec       q    Type
REMARK                         _______ _______ _______ _____ _____    ______ ____
ROOT
ATOM      1  N   UNL     1      -1.420  13.816  23.806  0.00  0.00    +0.000 N 
ATOM      2  C   UNL     1      -0.750  13.981  22.565  0.00  0.00    +0.000 C 
ATOM      3  O   UNL     1       0.307  14.562  22.356  0.00  0.00    +0.000 OA
ATOM      4  C   UNL     1      -1.542  13.236  21.490  0.00  0.00    +0.000 C 
ATOM      5  C   UNL     1      -1.484  13.921  20.132  0.00  0.00    +0.000 C 
ATOM      6  C   UNL     1      -0.693  13.215  19.075  0.00  0.00    +0.000 C 
ATOM      7  O   UNL     1      -0.444  13.701  17.980  0.00  0.00    +0.000 OA
ATOM      8  N   UNL     1      -0.285  11.863  19.231  0.00  0.00    +0.000 N 
ATOM      9  C   UNL     1      -0.380  11.221  20.441  0.00  0.00    +0.000 A 
ATOM     10  C   UNL     1      -1.031  11.811  21.502  0.00  0.00    +0.000 A 
ATOM     11  C   UNL     1      -0.896  10.853  22.540  0.00  0.00    +0.000 A 
ATOM     12  N   UNL     1      -0.314   9.725  22.133  0.00  0.00    +0.000 NA
ATOM     13  N   UNL     1       0.092   9.985  20.867  0.00  0.00    +0.000 N 
ATOM     14  C   UNL     1      -2.894  13.230  22.137  0.00  0.00    +0.000 A 
ATOM     15  C   UNL     1      -4.176  13.376  21.630  0.00  0.00    +0.000 A 
ATOM     16  C   UNL     1      -5.248  13.111  22.476  0.00  0.00    +0.000 A 
ATOM     17  C   UNL     1      -5.007  12.687  23.787  0.00  0.00    +0.000 A 
ATOM     18  C   UNL     1      -3.730  12.829  24.346  0.00  0.00    +0.000 A 
ATOM     19  C   UNL     1      -2.711  13.257  23.516  0.00  0.00    +0.000 A 
ATOM     20  H   UNL     1       0.097  11.400  18.420  0.00  0.00    +0.000 HD
ENDROOT
BRANCH  13  21
ATOM     21  C   UNL     1       0.929   9.067  20.158  0.00  0.00    +0.000 A 
ATOM     22  C   UNL     1       1.387   7.922  20.827  0.00  0.00    +0.000 A 
ATOM     23  C   UNL     1       2.174   6.996  20.143  0.00  0.00    +0.000 A 
ATOM     24  C   UNL     1       2.537   7.218  18.815  0.00  0.00    +0.000 A 
ATOM     25  C   UNL     1       2.145   8.398  18.171  0.00  0.00    +0.000 A 
ATOM     26  C   UNL     1       1.362   9.330  18.853  0.00  0.00    +0.000 A 
ENDBRANCH  13  21
BRANCH   1  27
ATOM     27  C   UNL     1      -1.399  14.962  24.728  0.00  0.00    +0.000 C 
BRANCH  27  29
ATOM     28  N   UNL     1      -3.435  16.304  24.074  0.00  0.00    +0.000 N 
ATOM     29  C   UNL     1      -2.138  16.316  24.531  0.00  0.00    +0.000 C 
ATOM     30  O   UNL     1      -1.599  17.348  24.937  0.00  0.00    +0.000 OA
ATOM     31  H   UNL     1      -3.849  15.399  23.871  0.00  0.00    +0.000 HD
BRANCH  28  33
ATOM     32  C   UNL     1      -3.832  18.557  23.119  0.00  0.00    +0.000 C 
ATOM     33  C   UNL     1      -4.364  17.455  24.044  0.00  0.00    +0.000 C 
ATOM     34  C   UNL     1      -4.622  18.028  25.449  0.00  0.00    +0.000 C 
ATOM     35  C   UNL     1      -5.723  16.976  23.489  0.00  0.00    +0.000 C 
ENDBRANCH  28  33
ENDBRANCH  27  29
ENDBRANCH   1  27
TORSDOF 4
ENDMDL
