MODEL 1
REMARK VINA RESULT:      -7.9      0.000      0.000
REMARK  Name = 
REMARK  6 active torsions:
REMARK  status: ('A' for Active; 'I' for Inactive)
REMARK    1  A    between atoms: C_1  and  N_2
REMARK    2  A    between atoms: N_2  and  C_3
REMARK    3  A    between atoms: N_2  and  C_4
REMARK    4  A    between atoms: C_7  and  N_8
REMARK    5  A    between atoms: N_8  and  C_9
REMARK    6  A    between atoms: N_17  and  C_18
REMARK                            x       y       z     vdW  Elec       q    Type
REMARK                         _______ _______ _______ _____ _____    ______ ____
ROOT
ATOM      1  C   UNL     1       8.872  10.701  18.446  0.00  0.00    +0.000 A 
ATOM      2  C   UNL     1       9.276  10.530  19.791  0.00  0.00    +0.000 A 
ATOM      3  C   UNL     1      10.544  10.959  20.201  0.00  0.00    +0.000 A 
ATOM      4  C   UNL     1      11.398  11.556  19.269  0.00  0.00    +0.000 A 
ATOM      5  C   UNL     1      10.891  11.862  17.998  0.00  0.00    +0.000 A 
ATOM      6  C   UNL     1       9.539  11.720  17.745  0.00  0.00    +0.000 A 
ATOM      7  C   UNL     1       9.133  13.184  17.798  0.00  0.00    +0.000 C 
ATOM      8  O   UNL     1       8.006  13.548  18.107  0.00  0.00    +0.000 OA
ATOM      9  N   UNL     1      10.248  13.970  17.600  0.00  0.00    +0.000 N 
ATOM     10  C   UNL     1      11.288  13.114  17.393  0.00  0.00    +0.000 C 
ATOM     11  O   UNL     1      12.333  13.266  16.791  0.00  0.00    +0.000 OA
ENDROOT
BRANCH   9  12
ATOM     12  C   UNL     1      10.587  15.118  18.465  0.00  0.00    +0.000 C 
ATOM     13  C   UNL     1      10.955  14.867  19.924  0.00  0.00    +0.000 C 
ATOM     14  C   UNL     1       9.745  14.459  20.745  0.00  0.00    +0.000 C 
ATOM     15  C   UNL     1       8.602  15.431  20.585  0.00  0.00    +0.000 C 
ATOM     16  O   UNL     1       7.716  15.543  21.427  0.00  0.00    +0.000 OA
ATOM     17  N   UNL     1       8.569  16.174  19.436  0.00  0.00    +0.000 N 
ATOM     18  C   UNL     1       9.508  16.212  18.430  0.00  0.00    +0.000 C 
ATOM     19  O   UNL     1       9.459  17.083  17.566  0.00  0.00    +0.000 OA
ATOM     20  H   UNL     1       7.840  16.871  19.376  0.00  0.00    +0.000 HD
ENDBRANCH   9  12
BRANCH   1  21
ATOM     21  N   UNL     1       8.824   9.376  17.809  0.00  0.00    +0.000 N 
ATOM     22  H   UNL     1       9.044   9.505  16.821  0.00  0.00    +0.000 HD
BRANCH  21  26
ATOM     23  C   UNL     1       6.342   5.896  17.882  0.00  0.00    +0.000 A 
ATOM     24  C   UNL     1       6.032   7.037  17.135  0.00  0.00    +0.000 A 
ATOM     25  C   UNL     1       6.827   8.190  17.177  0.00  0.00    +0.000 A 
ATOM     26  C   UNL     1       7.973   8.269  17.979  0.00  0.00    +0.000 A 
ATOM     27  C   UNL     1       8.292   7.159  18.750  0.00  0.00    +0.000 A 
ATOM     28  C   UNL     1       7.487   5.997  18.696  0.00  0.00    +0.000 A 
BRANCH  23  30
ATOM     29  C   UNL     1       5.150   4.019  18.987  0.00  0.00    +0.000 C 
ATOM     30  N   UNL     1       5.584   4.731  17.789  0.00  0.00    +0.000 N 
ATOM     31  C   UNL     1       5.498   4.013  16.523  0.00  0.00    +0.000 C 
ENDBRANCH  23  30
ENDBRANCH  21  26
ENDBRANCH   1  21
TORSDOF 4
ENDMDL
MODEL 2
REMARK VINA RESULT:      -7.7      4.745     10.206
REMARK  Name = 
REMARK  6 active torsions:
REMARK  status: ('A' for Active; 'I' for Inactive)
REMARK    1  A    between atoms: C_1  and  N_2
REMARK    2  A    between atoms: N_2  and  C_3
REMARK    3  A    between atoms: N_2  and  C_4
REMARK    4  A    between atoms: C_7  and  N_8
REMARK    5  A    between atoms: N_8  and  C_9
REMARK    6  A    between atoms: N_17  and  C_18
REMARK                            x       y       z     vdW  Elec       q    Type
REMARK                         _______ _______ _______ _____ _____    ______ ____
ROOT
ATOM      1  C   UNL     1       5.963   7.006  16.931  0.00  0.00    +0.000 A 
ATOM      2  C   UNL     1       5.854   6.376  15.669  0.00  0.00    +0.000 A 
ATOM      3  C   UNL     1       5.804   4.979  15.587  0.00  0.00    +0.000 A 
ATOM      4  C   UNL     1       5.863   4.223  16.761  0.00  0.00    +0.000 A 
ATOM      5  C   UNL     1       5.795   4.892  17.991  0.00  0.00    +0.000 A 
ATOM      6  C   UNL     1       5.513   6.246  18.022  0.00  0.00    +0.000 A 
ATOM      7  C   UNL     1       4.057   6.175  18.457  0.00  0.00    +0.000 C 
ATOM      8  O   UNL     1       3.240   7.042  18.177  0.00  0.00    +0.000 OA
ATOM      9  N   UNL     1       3.821   4.952  19.049  0.00  0.00    +0.000 N 
ATOM     10  C   UNL     1       5.012   4.290  19.048  0.00  0.00    +0.000 C 
ATOM     11  O   UNL     1       5.433   3.413  19.777  0.00  0.00    +0.000 OA
ENDROOT
BRANCH   9  12
ATOM     12  C   UNL     1       2.667   4.099  18.701  0.00  0.00    +0.000 C 
ATOM     13  C   UNL     1       1.288   4.453  19.249  0.00  0.00    +0.000 C 
ATOM     14  C   UNL     1       1.190   4.177  20.739  0.00  0.00    +0.000 C 
ATOM     15  C   UNL     1       1.616   2.770  21.080  0.00  0.00    +0.000 C 
ATOM     16  O   UNL     1       1.242   2.203  22.104  0.00  0.00    +0.000 OA
ATOM     17  N   UNL     1       2.470   2.147  20.211  0.00  0.00    +0.000 N 
ATOM     18  C   UNL     1       2.929   2.615  19.001  0.00  0.00    +0.000 C 
ATOM     19  O   UNL     1       3.515   1.863  18.225  0.00  0.00    +0.000 OA
ATOM     20  H   UNL     1       2.688   1.182  20.415  0.00  0.00    +0.000 HD
ENDBRANCH   9  12
BRANCH   1  21
ATOM     21  N   UNL     1       7.310   7.590  17.036  0.00  0.00    +0.000 N 
ATOM     22  H   UNL     1       7.970   6.817  17.128  0.00  0.00    +0.000 HD
BRANCH  21  26
ATOM     23  C   UNL     1       9.238  10.932  18.878  0.00  0.00    +0.000 A 
ATOM     24  C   UNL     1       9.373   9.621  19.347  0.00  0.00    +0.000 A 
ATOM     25  C   UNL     1       8.680   8.550  18.766  0.00  0.00    +0.000 A 
ATOM     26  C   UNL     1       7.803   8.734  17.688  0.00  0.00    +0.000 A 
ATOM     27  C   UNL     1       7.631  10.029  17.218  0.00  0.00    +0.000 A 
ATOM     28  C   UNL     1       8.340  11.102  17.805  0.00  0.00    +0.000 A 
BRANCH  23  30
ATOM     29  C   UNL     1       9.482  13.356  19.359  0.00  0.00    +0.000 C 
ATOM     30  N   UNL     1       9.976  11.983  19.417  0.00  0.00    +0.000 N 
ATOM     31  C   UNL     1      11.386  11.798  19.737  0.00  0.00    +0.000 C 
ENDBRANCH  23  30
ENDBRANCH  21  26
ENDBRANCH   1  21
TORSDOF 4
ENDMDL
MODEL 3
REMARK VINA RESULT:      -7.5      0.725      1.226
REMARK  Name = 
REMARK  6 active torsions:
REMARK  status: ('A' for Active; 'I' for Inactive)
REMARK    1  A    between atoms: C_1  and  N_2
REMARK    2  A    between atoms: N_2  and  C_3
REMARK    3  A    between atoms: N_2  and  C_4
REMARK    4  A    between atoms: C_7  and  N_8
REMARK    5  A    between atoms: N_8  and  C_9
REMARK    6  A    between atoms: N_17  and  C_18
REMARK                            x       y       z     vdW  Elec       q    Type
REMARK                         _______ _______ _______ _____ _____    ______ ____
ROOT
ATOM      1  C   UNL     1       8.772  10.430  18.486  0.00  0.00    +0.000 A 
ATOM      2  C   UNL     1       8.972  10.404  19.887  0.00  0.00    +0.000 A 
ATOM      3  C   UNL     1      10.143  10.940  20.436  0.00  0.00    +0.000 A 
ATOM      4  C   UNL     1      11.103  11.497  19.587  0.00  0.00    +0.000 A 
ATOM      5  C   UNL     1      10.784  11.658  18.231  0.00  0.00    +0.000 A 
ATOM      6  C   UNL     1       9.494  11.417  17.796  0.00  0.00    +0.000 A 
ATOM      7  C   UNL     1       9.023  12.856  17.644  0.00  0.00    +0.000 C 
ATOM      8  O   UNL     1       7.847  13.181  17.746  0.00  0.00    +0.000 OA
ATOM      9  N   UNL     1      10.121  13.682  17.538  0.00  0.00    +0.000 N 
ATOM     10  C   UNL     1      11.216  12.872  17.572  0.00  0.00    +0.000 C 
ATOM     11  O   UNL     1      12.333  13.028  17.120  0.00  0.00    +0.000 OA
ENDROOT
BRANCH   9  12
ATOM     12  C   UNL     1      10.275  14.921  18.327  0.00  0.00    +0.000 C 
ATOM     13  C   UNL     1      10.294  14.835  19.850  0.00  0.00    +0.000 C 
ATOM     14  C   UNL     1       8.920  14.512  20.411  0.00  0.00    +0.000 C 
ATOM     15  C   UNL     1       7.863  15.453  19.887  0.00  0.00    +0.000 C 
ATOM     16  O   UNL     1       6.810  15.653  20.486  0.00  0.00    +0.000 OA
ATOM     17  N   UNL     1       8.109  16.065  18.687  0.00  0.00    +0.000 N 
ATOM     18  C   UNL     1       9.253  15.997  17.926  0.00  0.00    +0.000 C 
ATOM     19  O   UNL     1       9.420  16.767  16.984  0.00  0.00    +0.000 OA
ATOM     20  H   UNL     1       7.426  16.746  18.385  0.00  0.00    +0.000 HD
ENDBRANCH   9  12
BRANCH   1  21
ATOM     21  N   UNL     1       8.877   9.052  17.983  0.00  0.00    +0.000 N 
ATOM     22  H   UNL     1       9.489   9.073  17.166  0.00  0.00    +0.000 HD
BRANCH  21  26
ATOM     23  C   UNL     1       5.918   5.968  18.075  0.00  0.00    +0.000 A 
ATOM     24  C   UNL     1       7.116   5.897  18.795  0.00  0.00    +0.000 A 
ATOM     25  C   UNL     1       8.099   6.890  18.699  0.00  0.00    +0.000 A 
ATOM     26  C   UNL     1       7.944   8.007  17.867  0.00  0.00    +0.000 A 
ATOM     27  C   UNL     1       6.775   8.091  17.122  0.00  0.00    +0.000 A 
ATOM     28  C   UNL     1       5.785   7.088  17.231  0.00  0.00    +0.000 A 
BRANCH  23  30
ATOM     29  C   UNL     1       3.539   5.299  17.833  0.00  0.00    +0.000 C 
ATOM     30  N   UNL     1       4.917   5.011  18.221  0.00  0.00    +0.000 N 
ATOM     31  C   UNL     1       5.137   3.844  19.067  0.00  0.00    +0.000 C 
ENDBRANCH  23  30
ENDBRANCH  21  26
ENDBRANCH   1  21
TORSDOF 4
ENDMDL
MODEL 4
REMARK VINA RESULT:      -7.4      6.814     10.240
REMARK  Name = 
REMARK  6 active torsions:
REMARK  status: ('A' for Active; 'I' for Inactive)
REMARK    1  A    between atoms: C_1  and  N_2
REMARK    2  A    between atoms: N_2  and  C_3
REMARK    3  A    between atoms: N_2  and  C_4
REMARK    4  A    between atoms: C_7  and  N_8
REMARK    5  A    between atoms: N_8  and  C_9
REMARK    6  A    between atoms: N_17  and  C_18
REMARK                            x       y       z     vdW  Elec       q    Type
REMARK                         _______ _______ _______ _____ _____    ______ ____
ROOT
ATOM      1  C   UNL     1       2.386   7.804  18.384  0.00  0.00    +0.000 A 
ATOM      2  C   UNL     1       2.512   7.584  19.776  0.00  0.00    +0.000 A 
ATOM      3  C   UNL     1       2.414   6.286  20.291  0.00  0.00    +0.000 A 
ATOM      4  C   UNL     1       2.194   5.219  19.415  0.00  0.00    +0.000 A 
ATOM      5  C   UNL     1       2.251   5.463  18.036  0.00  0.00    +0.000 A 
ATOM      6  C   UNL     1       2.676   6.695  17.574  0.00  0.00    +0.000 A 
ATOM      7  C   UNL     1       4.083   6.313  17.139  0.00  0.00    +0.000 C 
ATOM      8  O   UNL     1       5.007   7.115  17.109  0.00  0.00    +0.000 OA
ATOM      9  N   UNL     1       4.143   4.948  16.953  0.00  0.00    +0.000 N 
ATOM     10  C   UNL     1       2.890   4.472  17.198  0.00  0.00    +0.000 C 
ATOM     11  O   UNL     1       2.328   3.473  16.793  0.00  0.00    +0.000 OA
ENDROOT
BRANCH   9  12
ATOM     12  C   UNL     1       5.218   4.107  17.516  0.00  0.00    +0.000 C 
ATOM     13  C   UNL     1       5.498   4.160  19.015  0.00  0.00    +0.000 C 
ATOM     14  C   UNL     1       6.155   5.469  19.415  0.00  0.00    +0.000 C 
ATOM     15  C   UNL     1       7.375   5.767  18.578  0.00  0.00    +0.000 C 
ATOM     16  O   UNL     1       8.271   6.510  18.968  0.00  0.00    +0.000 OA
ATOM     17  N   UNL     1       7.436   5.193  17.336  0.00  0.00    +0.000 N 
ATOM     18  C   UNL     1       6.553   4.297  16.778  0.00  0.00    +0.000 C 
ATOM     19  O   UNL     1       6.844   3.698  15.746  0.00  0.00    +0.000 OA
ATOM     20  H   UNL     1       8.290   5.344  16.817  0.00  0.00    +0.000 HD
ENDBRANCH   9  12
BRANCH   1  21
ATOM     21  N   UNL     1       1.108   8.491  18.143  0.00  0.00    +0.000 N 
ATOM     22  H   UNL     1       0.725   8.124  17.270  0.00  0.00    +0.000 HD
BRANCH  21  26
ATOM     23  C   UNL     1      -0.249  12.410  19.183  0.00  0.00    +0.000 A 
ATOM     24  C   UNL     1      -1.102  11.303  19.107  0.00  0.00    +0.000 A 
ATOM     25  C   UNL     1      -0.647  10.042  18.701  0.00  0.00    +0.000 A 
ATOM     26  C   UNL     1       0.689   9.819  18.338  0.00  0.00    +0.000 A 
ATOM     27  C   UNL     1       1.553  10.905  18.381  0.00  0.00    +0.000 A 
ATOM     28  C   UNL     1       1.086  12.173  18.799  0.00  0.00    +0.000 A 
BRANCH  23  30
ATOM     29  C   UNL     1      -1.931  13.763  20.410  0.00  0.00    +0.000 C 
ATOM     30  N   UNL     1      -0.692  13.646  19.647  0.00  0.00    +0.000 N 
ATOM     31  C   UNL     1      -0.128  14.876  19.103  0.00  0.00    +0.000 C 
ENDBRANCH  23  30
ENDBRANCH  21  26
ENDBRANCH   1  21
TORSDOF 4
ENDMDL
MODEL 5
REMARK VINA RESULT:      -7.4      7.155     10.500
REMARK  Name = 
REMARK  6 active torsions:
REMARK  status: ('A' for Active; 'I' for Inactive)
REMARK    1  A    between atoms: C_1  and  N_2
REMARK    2  A    between atoms: N_2  and  C_3
REMARK    3  A    between atoms: N_2  and  C_4
REMARK    4  A    between atoms: C_7  and  N_8
REMARK    5  A    between atoms: N_8  and  C_9
REMARK    6  A    between atoms: N_17  and  C_18
REMARK                            x       y       z     vdW  Elec       q    Type
REMARK                         _______ _______ _______ _____ _____    ______ ____
ROOT
ATOM      1  C   UNL     1       2.215   7.724  19.041  0.00  0.00    +0.000 A 
ATOM      2  C   UNL     1       2.433   7.350  20.388  0.00  0.00    +0.000 A 
ATOM      3  C   UNL     1       2.285   6.013  20.775  0.00  0.00    +0.000 A 
ATOM      4  C   UNL     1       1.921   5.061  19.818  0.00  0.00    +0.000 A 
ATOM      5  C   UNL     1       1.887   5.446  18.471  0.00  0.00    +0.000 A 
ATOM      6  C   UNL     1       2.360   6.692  18.101  0.00  0.00    +0.000 A 
ATOM      7  C   UNL     1       3.698   6.271  17.511  0.00  0.00    +0.000 C 
ATOM      8  O   UNL     1       4.671   7.013  17.483  0.00  0.00    +0.000 OA
ATOM      9  N   UNL     1       3.647   4.933  17.183  0.00  0.00    +0.000 N 
ATOM     10  C   UNL     1       2.386   4.512  17.485  0.00  0.00    +0.000 C 
ATOM     11  O   UNL     1       1.725   3.599  17.032  0.00  0.00    +0.000 OA
ENDROOT
BRANCH   9  12
ATOM     12  C   UNL     1       4.700   3.971  17.564  0.00  0.00    +0.000 C 
ATOM     13  C   UNL     1       5.118   3.865  19.028  0.00  0.00    +0.000 C 
ATOM     14  C   UNL     1       5.908   5.083  19.474  0.00  0.00    +0.000 C 
ATOM     15  C   UNL     1       7.066   5.373  18.551  0.00  0.00    +0.000 C 
ATOM     16  O   UNL     1       8.048   6.014  18.914  0.00  0.00    +0.000 OA
ATOM     17  N   UNL     1       6.970   4.915  17.264  0.00  0.00    +0.000 N 
ATOM     18  C   UNL     1       5.974   4.138  16.719  0.00  0.00    +0.000 C 
ATOM     19  O   UNL     1       6.123   3.619  15.616  0.00  0.00    +0.000 OA
ATOM     20  H   UNL     1       7.782   5.055  16.680  0.00  0.00    +0.000 HD
ENDBRANCH   9  12
BRANCH   1  21
ATOM     21  N   UNL     1       0.973   8.511  18.980  0.00  0.00    +0.000 N 
ATOM     22  H   UNL     1       0.665   8.519  18.007  0.00  0.00    +0.000 HD
BRANCH  21  26
ATOM     23  C   UNL     1      -0.027  11.941  21.328  0.00  0.00    +0.000 A 
ATOM     24  C   UNL     1      -0.482  10.653  21.628  0.00  0.00    +0.000 A 
ATOM     25  C   UNL     1      -0.195   9.555  20.808  0.00  0.00    +0.000 A 
ATOM     26  C   UNL     1       0.557   9.685  19.633  0.00  0.00    +0.000 A 
ATOM     27  C   UNL     1       1.002  10.957  19.297  0.00  0.00    +0.000 A 
ATOM     28  C   UNL     1       0.713  12.059  20.135  0.00  0.00    +0.000 A 
BRANCH  23  30
ATOM     29  C   UNL     1      -1.411  13.030  23.079  0.00  0.00    +0.000 C 
ATOM     30  N   UNL     1      -0.261  13.019  22.178  0.00  0.00    +0.000 N 
ATOM     31  C   UNL     1       0.418  14.290  21.954  0.00  0.00    +0.000 C 
ENDBRANCH  23  30
ENDBRANCH  21  26
ENDBRANCH   1  21
TORSDOF 4
ENDMDL
MODEL 6
REMARK VINA RESULT:      -7.4      7.958     11.610
REMARK  Name = 
REMARK  6 active torsions:
REMARK  status: ('A' for Active; 'I' for Inactive)
REMARK    1  A    between atoms: C_1  and  N_2
REMARK    2  A    between atoms: N_2  and  C_3
REMARK    3  A    between atoms: N_2  and  C_4
REMARK    4  A    between atoms: C_7  and  N_8
REMARK    5  A    between atoms: N_8  and  C_9
REMARK    6  A    between atoms: N_17  and  C_18
REMARK                            x       y       z     vdW  Elec       q    Type
REMARK                         _______ _______ _______ _____ _____    ______ ____
ROOT
ATOM      1  C   UNL     1       1.815   7.210  20.302  0.00  0.00    +0.000 A 
ATOM      2  C   UNL     1       1.220   7.468  19.045  0.00  0.00    +0.000 A 
ATOM      3  C   UNL     1       1.989   7.383  17.877  0.00  0.00    +0.000 A 
ATOM      4  C   UNL     1       3.341   7.043  17.973  0.00  0.00    +0.000 A 
ATOM      5  C   UNL     1       3.840   6.627  19.216  0.00  0.00    +0.000 A 
ATOM      6  C   UNL     1       2.969   6.411  20.267  0.00  0.00    +0.000 A 
ATOM      7  C   UNL     1       2.941   4.890  20.243  0.00  0.00    +0.000 C 
ATOM      8  O   UNL     1       1.985   4.239  20.643  0.00  0.00    +0.000 OA
ATOM      9  N   UNL     1       4.059   4.429  19.581  0.00  0.00    +0.000 N 
ATOM     10  C   UNL     1       4.783   5.531  19.235  0.00  0.00    +0.000 C 
ATOM     11  O   UNL     1       5.973   5.666  19.030  0.00  0.00    +0.000 OA
ENDROOT
BRANCH   9  12
ATOM     12  C   UNL     1       4.000   3.402  18.521  0.00  0.00    +0.000 C 
ATOM     13  C   UNL     1       3.153   3.662  17.279  0.00  0.00    +0.000 C 
ATOM     14  C   UNL     1       1.668   3.594  17.589  0.00  0.00    +0.000 C 
ATOM     15  C   UNL     1       1.298   2.312  18.295  0.00  0.00    +0.000 C 
ATOM     16  O   UNL     1       0.158   1.858  18.273  0.00  0.00    +0.000 OA
ATOM     17  N   UNL     1       2.288   1.677  18.997  0.00  0.00    +0.000 N 
ATOM     18  C   UNL     1       3.619   2.018  19.072  0.00  0.00    +0.000 C 
ATOM     19  O   UNL     1       4.434   1.239  19.559  0.00  0.00    +0.000 OA
ATOM     20  H   UNL     1       2.043   0.785  19.404  0.00  0.00    +0.000 HD
ENDBRANCH   9  12
BRANCH   1  21
ATOM     21  N   UNL     1       1.906   8.483  21.035  0.00  0.00    +0.000 N 
ATOM     22  H   UNL     1       2.582   8.351  21.789  0.00  0.00    +0.000 HD
BRANCH  21  26
ATOM     23  C   UNL     1      -0.776  11.444  22.555  0.00  0.00    +0.000 A 
ATOM     24  C   UNL     1      -0.691  10.150  23.081  0.00  0.00    +0.000 A 
ATOM     25  C   UNL     1       0.149   9.177  22.526  0.00  0.00    +0.000 A 
ATOM     26  C   UNL     1       0.945   9.441  21.403  0.00  0.00    +0.000 A 
ATOM     27  C   UNL     1       0.863  10.709  20.845  0.00  0.00    +0.000 A 
ATOM     28  C   UNL     1       0.018  11.688  21.417  0.00  0.00    +0.000 A 
BRANCH  23  30
ATOM     29  C   UNL     1      -2.980  12.191  23.422  0.00  0.00    +0.000 C 
ATOM     30  N   UNL     1      -1.565  12.427  23.149  0.00  0.00    +0.000 N 
ATOM     31  C   UNL     1      -1.100  13.808  23.196  0.00  0.00    +0.000 C 
ENDBRANCH  23  30
ENDBRANCH  21  26
ENDBRANCH   1  21
TORSDOF 4
ENDMDL
MODEL 7
REMARK VINA RESULT:      -7.3      7.001     10.424
REMARK  Name = 
REMARK  6 active torsions:
REMARK  status: ('A' for Active; 'I' for Inactive)
REMARK    1  A    between atoms: C_1  and  N_2
REMARK    2  A    between atoms: N_2  and  C_3
REMARK    3  A    between atoms: N_2  and  C_4
REMARK    4  A    between atoms: C_7  and  N_8
REMARK    5  A    between atoms: N_8  and  C_9
REMARK    6  A    between atoms: N_17  and  C_18
REMARK                            x       y       z     vdW  Elec       q    Type
REMARK                         _______ _______ _______ _____ _____    ______ ____
ROOT
ATOM      1  C   UNL     1       2.258   7.774  18.830  0.00  0.00    +0.000 A 
ATOM      2  C   UNL     1       2.426   7.439  20.195  0.00  0.00    +0.000 A 
ATOM      3  C   UNL     1       2.296   6.108  20.610  0.00  0.00    +0.000 A 
ATOM      4  C   UNL     1       2.001   5.123  19.663  0.00  0.00    +0.000 A 
ATOM      5  C   UNL     1       2.017   5.474  18.306  0.00  0.00    +0.000 A 
ATOM      6  C   UNL     1       2.474   6.722  17.925  0.00  0.00    +0.000 A 
ATOM      7  C   UNL     1       3.847   6.324  17.406  0.00  0.00    +0.000 C 
ATOM      8  O   UNL     1       4.801   7.091  17.402  0.00  0.00    +0.000 OA
ATOM      9  N   UNL     1       3.846   4.977  17.112  0.00  0.00    +0.000 N 
ATOM     10  C   UNL     1       2.585   4.529  17.369  0.00  0.00    +0.000 C 
ATOM     11  O   UNL     1       1.969   3.587  16.910  0.00  0.00    +0.000 OA
ENDROOT
BRANCH   9  12
ATOM     12  C   UNL     1       4.907   4.055  17.565  0.00  0.00    +0.000 C 
ATOM     13  C   UNL     1       5.279   4.016  19.044  0.00  0.00    +0.000 C 
ATOM     14  C   UNL     1       6.028   5.268  19.465  0.00  0.00    +0.000 C 
ATOM     15  C   UNL     1       7.209   5.547  18.568  0.00  0.00    +0.000 C 
ATOM     16  O   UNL     1       8.166   6.223  18.937  0.00  0.00    +0.000 OA
ATOM     17  N   UNL     1       7.164   5.036  17.299  0.00  0.00    +0.000 N 
ATOM     18  C   UNL     1       6.203   4.216  16.754  0.00  0.00    +0.000 C 
ATOM     19  O   UNL     1       6.399   3.657  15.678  0.00  0.00    +0.000 OA
ATOM     20  H   UNL     1       7.992   5.170  16.735  0.00  0.00    +0.000 HD
ENDBRANCH   9  12
BRANCH   1  21
ATOM     21  N   UNL     1       1.000   8.524  18.694  0.00  0.00    +0.000 N 
ATOM     22  H   UNL     1       0.618   8.311  17.772  0.00  0.00    +0.000 HD
BRANCH  21  26
ATOM     23  C   UNL     1      -0.274  12.531  19.465  0.00  0.00    +0.000 A 
ATOM     24  C   UNL     1       0.907  12.226  18.780  0.00  0.00    +0.000 A 
ATOM     25  C   UNL     1       1.337  10.906  18.596  0.00  0.00    +0.000 A 
ATOM     26  C   UNL     1       0.613   9.815  19.096  0.00  0.00    +0.000 A 
ATOM     27  C   UNL     1      -0.551  10.090  19.801  0.00  0.00    +0.000 A 
ATOM     28  C   UNL     1      -0.981  11.425  19.976  0.00  0.00    +0.000 A 
BRANCH  23  30
ATOM     29  C   UNL     1       0.077  14.967  19.129  0.00  0.00    +0.000 C 
ATOM     30  N   UNL     1      -0.730  13.841  19.592  0.00  0.00    +0.000 N 
ATOM     31  C   UNL     1      -1.845  14.145  20.482  0.00  0.00    +0.000 C 
ENDBRANCH  23  30
ENDBRANCH  21  26
ENDBRANCH   1  21
TORSDOF 4
ENDMDL
MODEL 8
REMARK VINA RESULT:      -7.2      4.820     10.151
REMARK  Name = 
REMARK  6 active torsions:
REMARK  status: ('A' for Active; 'I' for Inactive)
REMARK    1  A    between atoms: C_1  and  N_2
REMARK    2  A    between atoms: N_2  and  C_3
REMARK    3  A    between atoms: N_2  and  C_4
REMARK    4  A    between atoms: C_7  and  N_8
REMARK    5  A    between atoms: N_8  and  C_9
REMARK    6  A    between atoms: N_17  and  C_18
REMARK                            x       y       z     vdW  Elec       q    Type
REMARK                         _______ _______ _______ _____ _____    ______ ____
ROOT
ATOM      1  C   UNL     1       5.852   6.833  16.820  0.00  0.00    +0.000 A 
ATOM      2  C   UNL     1       5.574   6.245  15.563  0.00  0.00    +0.000 A 
ATOM      3  C   UNL     1       5.407   4.858  15.461  0.00  0.00    +0.000 A 
ATOM      4  C   UNL     1       5.519   4.070  16.610  0.00  0.00    +0.000 A 
ATOM      5  C   UNL     1       5.621   4.711  17.853  0.00  0.00    +0.000 A 
ATOM      6  C   UNL     1       5.450   6.081  17.935  0.00  0.00    +0.000 A 
ATOM      7  C   UNL     1       4.042   6.110  18.508  0.00  0.00    +0.000 C 
ATOM      8  O   UNL     1       3.271   7.043  18.324  0.00  0.00    +0.000 OA
ATOM      9  N   UNL     1       3.768   4.894  19.099  0.00  0.00    +0.000 N 
ATOM     10  C   UNL     1       4.898   4.143  18.970  0.00  0.00    +0.000 C 
ATOM     11  O   UNL     1       5.317   3.219  19.639  0.00  0.00    +0.000 OA
ENDROOT
BRANCH   9  12
ATOM     12  C   UNL     1       2.524   4.141  18.849  0.00  0.00    +0.000 C 
ATOM     13  C   UNL     1       1.247   4.550  19.577  0.00  0.00    +0.000 C 
ATOM     14  C   UNL     1       1.304   4.192  21.051  0.00  0.00    +0.000 C 
ATOM     15  C   UNL     1       1.665   2.742  21.266  0.00  0.00    +0.000 C 
ATOM     16  O   UNL     1       1.375   2.141  22.297  0.00  0.00    +0.000 OA
ATOM     17  N   UNL     1       2.365   2.118  20.269  0.00  0.00    +0.000 N 
ATOM     18  C   UNL     1       2.712   2.627  19.038  0.00  0.00    +0.000 C 
ATOM     19  O   UNL     1       3.147   1.886  18.159  0.00  0.00    +0.000 OA
ATOM     20  H   UNL     1       2.536   1.131  20.395  0.00  0.00    +0.000 HD
ENDBRANCH   9  12
BRANCH   1  21
ATOM     21  N   UNL     1       7.244   7.310  16.803  0.00  0.00    +0.000 N 
ATOM     22  H   UNL     1       7.844   6.494  16.679  0.00  0.00    +0.000 HD
BRANCH  21  26
ATOM     23  C   UNL     1       8.868  10.499  19.143  0.00  0.00    +0.000 A 
ATOM     24  C   UNL     1       8.217  10.704  17.922  0.00  0.00    +0.000 A 
ATOM     25  C   UNL     1       7.750   9.639  17.141  0.00  0.00    +0.000 A 
ATOM     26  C   UNL     1       7.918   8.305  17.534  0.00  0.00    +0.000 A 
ATOM     27  C   UNL     1       8.583   8.069  18.731  0.00  0.00    +0.000 A 
ATOM     28  C   UNL     1       9.044   9.151  19.515  0.00  0.00    +0.000 A 
BRANCH  23  30
ATOM     29  C   UNL     1       9.116  11.513  21.396  0.00  0.00    +0.000 C 
ATOM     30  N   UNL     1       9.275  11.562  19.945  0.00  0.00    +0.000 N 
ATOM     31  C   UNL     1       9.546  12.865  19.351  0.00  0.00    +0.000 C 
ENDBRANCH  23  30
ENDBRANCH  21  26
ENDBRANCH   1  21
TORSDOF 4
ENDMDL
MODEL 9
REMARK VINA RESULT:      -7.2      8.505     10.148
REMARK  Name = 
REMARK  6 active torsions:
REMARK  status: ('A' for Active; 'I' for Inactive)
REMARK    1  A    between atoms: C_1  and  N_2
REMARK    2  A    between atoms: N_2  and  C_3
REMARK    3  A    between atoms: N_2  and  C_4
REMARK    4  A    between atoms: C_7  and  N_8
REMARK    5  A    between atoms: N_8  and  C_9
REMARK    6  A    between atoms: N_17  and  C_18
REMARK                            x       y       z     vdW  Elec       q    Type
REMARK                         _______ _______ _______ _____ _____    ______ ____
ROOT
ATOM      1  C   UNL     1       0.904  11.125  19.494  0.00  0.00    +0.000 A 
ATOM      2  C   UNL     1       1.458  12.401  19.238  0.00  0.00    +0.000 A 
ATOM      3  C   UNL     1       0.694  13.377  18.585  0.00  0.00    +0.000 A 
ATOM      4  C   UNL     1      -0.614  13.073  18.195  0.00  0.00    +0.000 A 
ATOM      5  C   UNL     1      -1.175  11.861  18.624  0.00  0.00    +0.000 A 
ATOM      6  C   UNL     1      -0.498  11.078  19.541  0.00  0.00    +0.000 A 
ATOM      7  C   UNL     1      -1.312  11.410  20.782  0.00  0.00    +0.000 C 
ATOM      8  O   UNL     1      -0.847  11.355  21.913  0.00  0.00    +0.000 OA
ATOM      9  N   UNL     1      -2.541  11.904  20.399  0.00  0.00    +0.000 N 
ATOM     10  C   UNL     1      -2.561  11.865  19.036  0.00  0.00    +0.000 C 
ATOM     11  O   UNL     1      -3.492  11.788  18.259  0.00  0.00    +0.000 OA
ENDROOT
BRANCH   9  12
ATOM     12  C   UNL     1      -3.125  13.136  20.966  0.00  0.00    +0.000 C 
ATOM     13  C   UNL     1      -2.353  14.446  20.854  0.00  0.00    +0.000 C 
ATOM     14  C   UNL     1      -1.141  14.463  21.768  0.00  0.00    +0.000 C 
ATOM     15  C   UNL     1      -1.504  14.114  23.191  0.00  0.00    +0.000 C 
ATOM     16  O   UNL     1      -0.812  14.455  24.146  0.00  0.00    +0.000 OA
ATOM     17  N   UNL     1      -2.635  13.366  23.382  0.00  0.00    +0.000 N 
ATOM     18  C   UNL     1      -3.545  12.958  22.434  0.00  0.00    +0.000 C 
ATOM     19  O   UNL     1      -4.625  12.481  22.773  0.00  0.00    +0.000 OA
ATOM     20  H   UNL     1      -2.904  13.202  24.342  0.00  0.00    +0.000 HD
ENDBRANCH   9  12
BRANCH   1  21
ATOM     21  N   UNL     1       1.575  10.151  18.619  0.00  0.00    +0.000 N 
ATOM     22  H   UNL     1       1.259  10.330  17.665  0.00  0.00    +0.000 HD
BRANCH  21  26
ATOM     23  C   UNL     1       3.005   6.150  19.099  0.00  0.00    +0.000 A 
ATOM     24  C   UNL     1       3.152   6.875  17.911  0.00  0.00    +0.000 A 
ATOM     25  C   UNL     1       2.619   8.161  17.756  0.00  0.00    +0.000 A 
ATOM     26  C   UNL     1       1.897   8.791  18.779  0.00  0.00    +0.000 A 
ATOM     27  C   UNL     1       1.715   8.086  19.961  0.00  0.00    +0.000 A 
ATOM     28  C   UNL     1       2.263   6.791  20.111  0.00  0.00    +0.000 A 
BRANCH  23  30
ATOM     29  C   UNL     1       2.823   3.777  19.808  0.00  0.00    +0.000 C 
ATOM     30  N   UNL     1       3.590   4.898  19.272  0.00  0.00    +0.000 N 
ATOM     31  C   UNL     1       5.041   4.760  19.250  0.00  0.00    +0.000 C 
ENDBRANCH  23  30
ENDBRANCH  21  26
ENDBRANCH   1  21
TORSDOF 4
ENDMDL
