MODEL 1
REMARK VINA RESULT:      -8.1      0.000      0.000
REMARK  Name = 
REMARK  4 active torsions:
REMARK  status: ('A' for Active; 'I' for Inactive)
REMARK    1  A    between atoms: C_1  and  C_2
REMARK    2  A    between atoms: C_4  and  N_5
REMARK    3  A    between atoms: C_15  and  N_16
REMARK    4  A    between atoms: C_17  and  C_19
REMARK                            x       y       z     vdW  Elec       q    Type
REMARK                         _______ _______ _______ _____ _____    ______ ____
ROOT
ATOM      1  C   UNL     1       2.098   5.339  20.978  0.00  0.00    +0.000 C 
ATOM      2  C   UNL     1       2.635   6.051  19.771  0.00  0.00    +0.000 A 
ATOM      3  C   UNL     1       3.602   5.415  18.984  0.00  0.00    +0.000 A 
ATOM      4  C   UNL     1       4.126   6.036  17.857  0.00  0.00    +0.000 A 
ATOM      5  N   UNL     1       3.687   7.252  17.485  0.00  0.00    +0.000 NA
ATOM      6  C   UNL     1       2.763   7.884  18.223  0.00  0.00    +0.000 A 
ATOM      7  C   UNL     1       2.342   9.131  17.807  0.00  0.00    +0.000 A 
ATOM      8  C   UNL     1       1.373   9.860  18.506  0.00  0.00    +0.000 A 
ATOM      9  C   UNL     1       0.790   9.340  19.658  0.00  0.00    +0.000 A 
ATOM     10  C   UNL     1       1.219   8.086  20.104  0.00  0.00    +0.000 A 
ATOM     11  C   UNL     1       2.191   7.335  19.389  0.00  0.00    +0.000 A 
ENDROOT
BRANCH   4  12
ATOM     12  N   UNL     1       5.031   5.365  17.059  0.00  0.00    +0.000 N 
ATOM     13  C   UNL     1       6.438   5.359  17.438  0.00  0.00    +0.000 C 
ATOM     14  C   UNL     1       7.241   5.512  16.142  0.00  0.00    +0.000 C 
ATOM     15  C   UNL     1       6.875   4.427  15.124  0.00  0.00    +0.000 C 
ATOM     16  C   UNL     1       5.361   4.335  14.904  0.00  0.00    +0.000 C 
ATOM     17  C   UNL     1       4.605   4.243  16.229  0.00  0.00    +0.000 C 
ENDBRANCH   4  12
BRANCH   9  18
ATOM     18  N   UNL     1      -0.197  10.026  20.393  0.00  0.00    +0.000 N 
ATOM     19  C   UNL     1       0.012  11.060  21.294  0.00  0.00    +0.000 C 
ATOM     20  O   UNL     1       1.106  11.554  21.554  0.00  0.00    +0.000 OA
ATOM     21  H   UNL     1      -1.168   9.803  20.204  0.00  0.00    +0.000 HD
BRANCH  19  22
ATOM     22  C   UNL     1      -1.200  11.569  21.902  0.00  0.00    +0.000 A 
ATOM     23  C   UNL     1      -1.635  11.515  23.212  0.00  0.00    +0.000 A 
ATOM     24  C   UNL     1      -2.873  12.195  23.261  0.00  0.00    +0.000 A 
ATOM     25  C   UNL     1      -3.124  12.620  21.976  0.00  0.00    +0.000 A 
ATOM     26 BR   UNL     1      -4.624  13.592  21.439  0.00  0.00    +0.000 Br
ATOM     27  O   UNL     1      -2.118  12.242  21.139  0.00  0.00    +0.000 OA
ENDBRANCH  19  22
ENDBRANCH   9  18
TORSDOF 3
ENDMDL
MODEL 2
REMARK VINA RESULT:      -8.0      0.916      1.078
REMARK  Name = 
REMARK  4 active torsions:
REMARK  status: ('A' for Active; 'I' for Inactive)
REMARK    1  A    between atoms: C_1  and  C_2
REMARK    2  A    between atoms: C_4  and  N_5
REMARK    3  A    between atoms: C_15  and  N_16
REMARK    4  A    between atoms: C_17  and  C_19
REMARK                            x       y       z     vdW  Elec       q    Type
REMARK                         _______ _______ _______ _____ _____    ______ ____
ROOT
ATOM      1  C   UNL     1       1.643   5.719  20.963  0.00  0.00    +0.000 C 
ATOM      2  C   UNL     1       2.307   6.392  19.797  0.00  0.00    +0.000 A 
ATOM      3  C   UNL     1       3.322   5.713  19.113  0.00  0.00    +0.000 A 
ATOM      4  C   UNL     1       3.964   6.297  18.027  0.00  0.00    +0.000 A 
ATOM      5  N   UNL     1       3.597   7.517  17.596  0.00  0.00    +0.000 NA
ATOM      6  C   UNL     1       2.630   8.189  18.236  0.00  0.00    +0.000 A 
ATOM      7  C   UNL     1       2.285   9.439  17.763  0.00  0.00    +0.000 A 
ATOM      8  C   UNL     1       1.279  10.209  18.358  0.00  0.00    +0.000 A 
ATOM      9  C   UNL     1       0.580   9.729  19.462  0.00  0.00    +0.000 A 
ATOM     10  C   UNL     1       0.929   8.472  19.966  0.00  0.00    +0.000 A 
ATOM     11  C   UNL     1       1.938   7.680  19.355  0.00  0.00    +0.000 A 
ENDROOT
BRANCH   4  12
ATOM     12  N   UNL     1       4.917   5.584  17.326  0.00  0.00    +0.000 N 
ATOM     13  C   UNL     1       6.308   5.655  17.755  0.00  0.00    +0.000 C 
ATOM     14  C   UNL     1       7.156   5.715  16.481  0.00  0.00    +0.000 C 
ATOM     15  C   UNL     1       6.858   4.534  15.552  0.00  0.00    +0.000 C 
ATOM     16  C   UNL     1       5.357   4.377  15.286  0.00  0.00    +0.000 C 
ATOM     17  C   UNL     1       4.552   4.381  16.586  0.00  0.00    +0.000 C 
ENDBRANCH   4  12
BRANCH   9  18
ATOM     18  N   UNL     1      -0.449  10.457  20.092  0.00  0.00    +0.000 N 
ATOM     19  C   UNL     1      -0.310  11.320  21.169  0.00  0.00    +0.000 C 
ATOM     20  O   UNL     1       0.757  11.603  21.709  0.00  0.00    +0.000 OA
ATOM     21  H   UNL     1      -1.377  10.413  19.687  0.00  0.00    +0.000 HD
BRANCH  19  22
ATOM     22  C   UNL     1      -1.550  11.927  21.605  0.00  0.00    +0.000 A 
ATOM     23  C   UNL     1      -2.464  12.695  20.909  0.00  0.00    +0.000 A 
ATOM     24  C   UNL     1      -3.510  13.003  21.807  0.00  0.00    +0.000 A 
ATOM     25  C   UNL     1      -3.170  12.409  23.003  0.00  0.00    +0.000 A 
ATOM     26 BR   UNL     1      -4.195  12.469  24.562  0.00  0.00    +0.000 Br
ATOM     27  O   UNL     1      -1.979  11.757  22.895  0.00  0.00    +0.000 OA
ENDBRANCH  19  22
ENDBRANCH   9  18
TORSDOF 3
ENDMDL
MODEL 3
REMARK VINA RESULT:      -7.5      1.303      1.542
REMARK  Name = 
REMARK  4 active torsions:
REMARK  status: ('A' for Active; 'I' for Inactive)
REMARK    1  A    between atoms: C_1  and  C_2
REMARK    2  A    between atoms: C_4  and  N_5
REMARK    3  A    between atoms: C_15  and  N_16
REMARK    4  A    between atoms: C_17  and  C_19
REMARK                            x       y       z     vdW  Elec       q    Type
REMARK                         _______ _______ _______ _____ _____    ______ ____
ROOT
ATOM      1  C   UNL     1       1.848   5.725  21.002  0.00  0.00    +0.000 C 
ATOM      2  C   UNL     1       2.345   6.428  19.773  0.00  0.00    +0.000 A 
ATOM      3  C   UNL     1       3.190   5.741  18.895  0.00  0.00    +0.000 A 
ATOM      4  C   UNL     1       3.674   6.352  17.745  0.00  0.00    +0.000 A 
ATOM      5  N   UNL     1       3.310   7.610  17.439  0.00  0.00    +0.000 NA
ATOM      6  C   UNL     1       2.503   8.291  18.265  0.00  0.00    +0.000 A 
ATOM      7  C   UNL     1       2.155   9.581  17.915  0.00  0.00    +0.000 A 
ATOM      8  C   UNL     1       1.308  10.364  18.707  0.00  0.00    +0.000 A 
ATOM      9  C   UNL     1       0.776   9.858  19.890  0.00  0.00    +0.000 A 
ATOM     10  C   UNL     1       1.134   8.560  20.269  0.00  0.00    +0.000 A 
ATOM     11  C   UNL     1       1.980   7.755  19.460  0.00  0.00    +0.000 A 
ENDROOT
BRANCH   4  12
ATOM     12  N   UNL     1       4.455   5.634  16.860  0.00  0.00    +0.000 N 
ATOM     13  C   UNL     1       4.132   4.235  16.609  0.00  0.00    +0.000 C 
ATOM     14  C   UNL     1       5.466   3.488  16.518  0.00  0.00    +0.000 C 
ATOM     15  C   UNL     1       6.385   4.106  15.460  0.00  0.00    +0.000 C 
ATOM     16  C   UNL     1       6.538   5.620  15.646  0.00  0.00    +0.000 C 
ATOM     17  C   UNL     1       5.181   6.309  15.790  0.00  0.00    +0.000 C 
ENDBRANCH   4  12
BRANCH   9  18
ATOM     18  N   UNL     1      -0.089  10.598  20.719  0.00  0.00    +0.000 N 
ATOM     19  C   UNL     1       0.214  11.772  21.393  0.00  0.00    +0.000 C 
ATOM     20  O   UNL     1       1.292  12.359  21.330  0.00  0.00    +0.000 OA
ATOM     21  H   UNL     1      -1.055  10.297  20.783  0.00  0.00    +0.000 HD
BRANCH  19  22
ATOM     22  C   UNL     1      -0.882  12.306  22.174  0.00  0.00    +0.000 A 
ATOM     23  C   UNL     1      -2.177  11.850  22.327  0.00  0.00    +0.000 A 
ATOM     24  C   UNL     1      -2.819  12.732  23.226  0.00  0.00    +0.000 A 
ATOM     25  C   UNL     1      -1.878  13.680  23.563  0.00  0.00    +0.000 A 
ATOM     26 BR   UNL     1      -2.160  15.102  24.739  0.00  0.00    +0.000 Br
ATOM     27  O   UNL     1      -0.699  13.436  22.927  0.00  0.00    +0.000 OA
ENDBRANCH  19  22
ENDBRANCH   9  18
TORSDOF 3
ENDMDL
MODEL 4
REMARK VINA RESULT:      -7.5      1.249      1.571
REMARK  Name = 
REMARK  4 active torsions:
REMARK  status: ('A' for Active; 'I' for Inactive)
REMARK    1  A    between atoms: C_1  and  C_2
REMARK    2  A    between atoms: C_4  and  N_5
REMARK    3  A    between atoms: C_15  and  N_16
REMARK    4  A    between atoms: C_17  and  C_19
REMARK                            x       y       z     vdW  Elec       q    Type
REMARK                         _______ _______ _______ _____ _____    ______ ____
ROOT
ATOM      1  C   UNL     1       1.528   6.027  21.027  0.00  0.00    +0.000 C 
ATOM      2  C   UNL     1       2.114   6.684  19.811  0.00  0.00    +0.000 A 
ATOM      3  C   UNL     1       3.002   5.956  19.011  0.00  0.00    +0.000 A 
ATOM      4  C   UNL     1       3.568   6.523  17.875  0.00  0.00    +0.000 A 
ATOM      5  N   UNL     1       3.247   7.777  17.509  0.00  0.00    +0.000 NA
ATOM      6  C   UNL     1       2.401   8.496  18.261  0.00  0.00    +0.000 A 
ATOM      7  C   UNL     1       2.099   9.779  17.851  0.00  0.00    +0.000 A 
ATOM      8  C   UNL     1       1.217  10.600  18.563  0.00  0.00    +0.000 A 
ATOM      9  C   UNL     1       0.603  10.139  19.724  0.00  0.00    +0.000 A 
ATOM     10  C   UNL     1       0.912   8.848  20.165  0.00  0.00    +0.000 A 
ATOM     11  C   UNL     1       1.794   8.005  19.436  0.00  0.00    +0.000 A 
ENDROOT
BRANCH   4  12
ATOM     12  N   UNL     1       4.391   5.766  17.065  0.00  0.00    +0.000 N 
ATOM     13  C   UNL     1       4.005   4.396  16.750  0.00  0.00    +0.000 C 
ATOM     14  C   UNL     1       5.288   3.560  16.787  0.00  0.00    +0.000 C 
ATOM     15  C   UNL     1       6.356   4.129  15.848  0.00  0.00    +0.000 C 
ATOM     16  C   UNL     1       6.588   5.625  16.082  0.00  0.00    +0.000 C 
ATOM     17  C   UNL     1       5.273   6.404  16.094  0.00  0.00    +0.000 C 
ENDBRANCH   4  12
BRANCH   9  18
ATOM     18  N   UNL     1      -0.301  10.919  20.474  0.00  0.00    +0.000 N 
ATOM     19  C   UNL     1      -0.306  11.083  21.851  0.00  0.00    +0.000 C 
ATOM     20  O   UNL     1       0.516  10.589  22.620  0.00  0.00    +0.000 OA
ATOM     21  H   UNL     1      -0.976  11.479  19.966  0.00  0.00    +0.000 HD
BRANCH  19  22
ATOM     22  C   UNL     1      -1.361  11.946  22.340  0.00  0.00    +0.000 A 
ATOM     23  C   UNL     1      -1.702  13.235  21.979  0.00  0.00    +0.000 A 
ATOM     24  C   UNL     1      -2.830  13.592  22.751  0.00  0.00    +0.000 A 
ATOM     25  C   UNL     1      -3.108  12.501  23.543  0.00  0.00    +0.000 A 
ATOM     26 BR   UNL     1      -4.513  12.392  24.768  0.00  0.00    +0.000 Br
ATOM     27  O   UNL     1      -2.219  11.496  23.308  0.00  0.00    +0.000 OA
ENDBRANCH  19  22
ENDBRANCH   9  18
TORSDOF 3
ENDMDL
MODEL 5
REMARK VINA RESULT:      -7.4      3.855      9.959
REMARK  Name = 
REMARK  4 active torsions:
REMARK  status: ('A' for Active; 'I' for Inactive)
REMARK    1  A    between atoms: C_1  and  C_2
REMARK    2  A    between atoms: C_4  and  N_5
REMARK    3  A    between atoms: C_15  and  N_16
REMARK    4  A    between atoms: C_17  and  C_19
REMARK                            x       y       z     vdW  Elec       q    Type
REMARK                         _______ _______ _______ _____ _____    ______ ____
ROOT
ATOM      1  C   UNL     1      -0.773  11.946  18.638  0.00  0.00    +0.000 C 
ATOM      2  C   UNL     1      -0.694  11.684  20.114  0.00  0.00    +0.000 A 
ATOM      3  C   UNL     1      -1.362  12.546  20.991  0.00  0.00    +0.000 A 
ATOM      4  C   UNL     1      -1.317  12.341  22.365  0.00  0.00    +0.000 A 
ATOM      5  N   UNL     1      -0.653  11.288  22.874  0.00  0.00    +0.000 NA
ATOM      6  C   UNL     1      -0.003  10.449  22.055  0.00  0.00    +0.000 A 
ATOM      7  C   UNL     1       0.668   9.382  22.619  0.00  0.00    +0.000 A 
ATOM      8  C   UNL     1       1.363   8.447  21.844  0.00  0.00    +0.000 A 
ATOM      9  C   UNL     1       1.397   8.562  20.457  0.00  0.00    +0.000 A 
ATOM     10  C   UNL     1       0.739   9.649  19.871  0.00  0.00    +0.000 A 
ATOM     11  C   UNL     1       0.018  10.591  20.652  0.00  0.00    +0.000 A 
ENDROOT
BRANCH   4  12
ATOM     12  N   UNL     1      -2.036  13.166  23.208  0.00  0.00    +0.000 N 
ATOM     13  C   UNL     1      -3.263  12.662  23.811  0.00  0.00    +0.000 C 
ATOM     14  C   UNL     1      -4.268  13.818  23.790  0.00  0.00    +0.000 C 
ATOM     15  C   UNL     1      -3.708  15.062  24.485  0.00  0.00    +0.000 C 
ATOM     16  C   UNL     1      -2.321  15.442  23.954  0.00  0.00    +0.000 C 
ATOM     17  C   UNL     1      -1.376  14.240  23.942  0.00  0.00    +0.000 C 
ENDBRANCH   4  12
BRANCH   9  18
ATOM     18  N   UNL     1       2.072   7.645  19.628  0.00  0.00    +0.000 N 
ATOM     19  C   UNL     1       2.166   6.274  19.817  0.00  0.00    +0.000 C 
ATOM     20  O   UNL     1       1.633   5.653  20.734  0.00  0.00    +0.000 OA
ATOM     21  H   UNL     1       2.473   7.993  18.765  0.00  0.00    +0.000 HD
BRANCH  19  22
ATOM     22  C   UNL     1       2.929   5.586  18.797  0.00  0.00    +0.000 A 
ATOM     23  C   UNL     1       2.985   4.244  18.474  0.00  0.00    +0.000 A 
ATOM     24  C   UNL     1       3.868   4.123  17.377  0.00  0.00    +0.000 A 
ATOM     25  C   UNL     1       4.304   5.399  17.099  0.00  0.00    +0.000 A 
ATOM     26 BR   UNL     1       5.488   5.855  15.729  0.00  0.00    +0.000 Br
ATOM     27  O   UNL     1       3.746   6.297  17.958  0.00  0.00    +0.000 OA
ENDBRANCH  19  22
ENDBRANCH   9  18
TORSDOF 3
ENDMDL
MODEL 6
REMARK VINA RESULT:      -7.3      4.039      9.879
REMARK  Name = 
REMARK  4 active torsions:
REMARK  status: ('A' for Active; 'I' for Inactive)
REMARK    1  A    between atoms: C_1  and  C_2
REMARK    2  A    between atoms: C_4  and  N_5
REMARK    3  A    between atoms: C_15  and  N_16
REMARK    4  A    between atoms: C_17  and  C_19
REMARK                            x       y       z     vdW  Elec       q    Type
REMARK                         _______ _______ _______ _____ _____    ______ ____
ROOT
ATOM      1  C   UNL     1      -1.186  10.826  18.003  0.00  0.00    +0.000 C 
ATOM      2  C   UNL     1      -1.072  10.934  19.496  0.00  0.00    +0.000 A 
ATOM      3  C   UNL     1      -1.879  11.856  20.171  0.00  0.00    +0.000 A 
ATOM      4  C   UNL     1      -1.808  11.989  21.553  0.00  0.00    +0.000 A 
ATOM      5  N   UNL     1      -0.979  11.209  22.269  0.00  0.00    +0.000 NA
ATOM      6  C   UNL     1      -0.193  10.319  21.646  0.00  0.00    +0.000 A 
ATOM      7  C   UNL     1       0.644   9.539  22.418  0.00  0.00    +0.000 A 
ATOM      8  C   UNL     1       1.490   8.576  21.857  0.00  0.00    +0.000 A 
ATOM      9  C   UNL     1       1.512   8.367  20.481  0.00  0.00    +0.000 A 
ATOM     10  C   UNL     1       0.684   9.163  19.682  0.00  0.00    +0.000 A 
ATOM     11  C   UNL     1      -0.189  10.130  20.248  0.00  0.00    +0.000 A 
ENDROOT
BRANCH   4  12
ATOM     12  N   UNL     1      -2.659  12.859  22.205  0.00  0.00    +0.000 N 
ATOM     13  C   UNL     1      -2.091  13.945  22.994  0.00  0.00    +0.000 C 
ATOM     14  C   UNL     1      -2.948  14.064  24.257  0.00  0.00    +0.000 C 
ATOM     15  C   UNL     1      -4.428  14.263  23.915  0.00  0.00    +0.000 C 
ATOM     16  C   UNL     1      -4.934  13.209  22.924  0.00  0.00    +0.000 C 
ATOM     17  C   UNL     1      -4.012  13.090  21.710  0.00  0.00    +0.000 C 
ENDBRANCH   4  12
BRANCH   9  18
ATOM     18  N   UNL     1       2.335   7.404  19.865  0.00  0.00    +0.000 N 
ATOM     19  C   UNL     1       2.259   6.028  20.023  0.00  0.00    +0.000 C 
ATOM     20  O   UNL     1       1.423   5.446  20.710  0.00  0.00    +0.000 OA
ATOM     21  H   UNL     1       3.008   7.727  19.179  0.00  0.00    +0.000 HD
BRANCH  19  22
ATOM     22  C   UNL     1       3.243   5.289  19.261  0.00  0.00    +0.000 A 
ATOM     23  C   UNL     1       3.096   4.188  18.439  0.00  0.00    +0.000 A 
ATOM     24  C   UNL     1       4.376   3.889  17.920  0.00  0.00    +0.000 A 
ATOM     25  C   UNL     1       5.232   4.823  18.461  0.00  0.00    +0.000 A 
ATOM     26 BR   UNL     1       7.064   4.928  18.118  0.00  0.00    +0.000 Br
ATOM     27  O   UNL     1       4.557   5.676  19.282  0.00  0.00    +0.000 OA
ENDBRANCH  19  22
ENDBRANCH   9  18
TORSDOF 3
ENDMDL
MODEL 7
REMARK VINA RESULT:      -7.3      3.808      9.848
REMARK  Name = 
REMARK  4 active torsions:
REMARK  status: ('A' for Active; 'I' for Inactive)
REMARK    1  A    between atoms: C_1  and  C_2
REMARK    2  A    between atoms: C_4  and  N_5
REMARK    3  A    between atoms: C_15  and  N_16
REMARK    4  A    between atoms: C_17  and  C_19
REMARK                            x       y       z     vdW  Elec       q    Type
REMARK                         _______ _______ _______ _____ _____    ______ ____
ROOT
ATOM      1  C   UNL     1      -1.280  11.440  18.527  0.00  0.00    +0.000 C 
ATOM      2  C   UNL     1      -0.992  11.434  20.000  0.00  0.00    +0.000 A 
ATOM      3  C   UNL     1      -1.579  12.414  20.808  0.00  0.00    +0.000 A 
ATOM      4  C   UNL     1      -1.341  12.447  22.177  0.00  0.00    +0.000 A 
ATOM      5  N   UNL     1      -0.564  11.513  22.755  0.00  0.00    +0.000 NA
ATOM      6  C   UNL     1       0.012  10.565  22.002  0.00  0.00    +0.000 A 
ATOM      7  C   UNL     1       0.804   9.627  22.634  0.00  0.00    +0.000 A 
ATOM      8  C   UNL     1       1.435   8.593  21.933  0.00  0.00    +0.000 A 
ATOM      9  C   UNL     1       1.278   8.472  20.555  0.00  0.00    +0.000 A 
ATOM     10  C   UNL     1       0.495   9.426  19.896  0.00  0.00    +0.000 A 
ATOM     11  C   UNL     1      -0.162  10.468  20.606  0.00  0.00    +0.000 A 
ENDROOT
BRANCH   4  12
ATOM     12  N   UNL     1      -1.982  13.383  22.965  0.00  0.00    +0.000 N 
ATOM     13  C   UNL     1      -1.312  14.648  23.244  0.00  0.00    +0.000 C 
ATOM     14  C   UNL     1      -1.607  14.985  24.709  0.00  0.00    +0.000 C 
ATOM     15  C   UNL     1      -3.112  15.012  24.987  0.00  0.00    +0.000 C 
ATOM     16  C   UNL     1      -3.811  13.740  24.496  0.00  0.00    +0.000 C 
ATOM     17  C   UNL     1      -3.438  13.417  23.048  0.00  0.00    +0.000 C 
ENDBRANCH   4  12
BRANCH   9  18
ATOM     18  N   UNL     1       1.881   7.446  19.802  0.00  0.00    +0.000 N 
ATOM     19  C   UNL     1       2.510   7.582  18.574  0.00  0.00    +0.000 C 
ATOM     20  O   UNL     1       2.661   8.644  17.976  0.00  0.00    +0.000 OA
ATOM     21  H   UNL     1       1.934   6.523  20.219  0.00  0.00    +0.000 HD
BRANCH  19  22
ATOM     22  C   UNL     1       3.037   6.344  18.038  0.00  0.00    +0.000 A 
ATOM     23  C   UNL     1       4.176   6.104  17.294  0.00  0.00    +0.000 A 
ATOM     24  C   UNL     1       4.229   4.711  17.061  0.00  0.00    +0.000 A 
ATOM     25  C   UNL     1       3.114   4.183  17.672  0.00  0.00    +0.000 A 
ATOM     26 BR   UNL     1       2.663   2.371  17.704  0.00  0.00    +0.000 Br
ATOM     27  O   UNL     1       2.378   5.164  18.265  0.00  0.00    +0.000 OA
ENDBRANCH  19  22
ENDBRANCH   9  18
TORSDOF 3
ENDMDL
MODEL 8
REMARK VINA RESULT:      -7.3      3.938      9.985
REMARK  Name = 
REMARK  4 active torsions:
REMARK  status: ('A' for Active; 'I' for Inactive)
REMARK    1  A    between atoms: C_1  and  C_2
REMARK    2  A    between atoms: C_4  and  N_5
REMARK    3  A    between atoms: C_15  and  N_16
REMARK    4  A    between atoms: C_17  and  C_19
REMARK                            x       y       z     vdW  Elec       q    Type
REMARK                         _______ _______ _______ _____ _____    ______ ____
ROOT
ATOM      1  C   UNL     1      -1.407  11.404  18.707  0.00  0.00    +0.000 C 
ATOM      2  C   UNL     1      -1.106  11.367  20.177  0.00  0.00    +0.000 A 
ATOM      3  C   UNL     1      -1.722  12.301  21.018  0.00  0.00    +0.000 A 
ATOM      4  C   UNL     1      -1.473  12.304  22.385  0.00  0.00    +0.000 A 
ATOM      5  N   UNL     1      -0.655  11.385  22.929  0.00  0.00    +0.000 NA
ATOM      6  C   UNL     1      -0.050  10.482  22.145  0.00  0.00    +0.000 A 
ATOM      7  C   UNL     1       0.784   9.558  22.743  0.00  0.00    +0.000 A 
ATOM      8  C   UNL     1       1.449   8.570  22.008  0.00  0.00    +0.000 A 
ATOM      9  C   UNL     1       1.284   8.482  20.629  0.00  0.00    +0.000 A 
ATOM     10  C   UNL     1       0.458   9.423  20.004  0.00  0.00    +0.000 A 
ATOM     11  C   UNL     1      -0.232  10.417  20.748  0.00  0.00    +0.000 A 
ENDROOT
BRANCH   4  12
ATOM     12  N   UNL     1      -2.142  13.192  23.205  0.00  0.00    +0.000 N 
ATOM     13  C   UNL     1      -3.401  12.780  23.813  0.00  0.00    +0.000 C 
ATOM     14  C   UNL     1      -4.331  13.996  23.760  0.00  0.00    +0.000 C 
ATOM     15  C   UNL     1      -3.696  15.218  24.429  0.00  0.00    +0.000 C 
ATOM     16  C   UNL     1      -2.287  15.497  23.896  0.00  0.00    +0.000 C 
ATOM     17  C   UNL     1      -1.418  14.239  23.917  0.00  0.00    +0.000 C 
ENDBRANCH   4  12
BRANCH   9  18
ATOM     18  N   UNL     1       1.919   7.502  19.842  0.00  0.00    +0.000 N 
ATOM     19  C   UNL     1       2.511   7.692  18.602  0.00  0.00    +0.000 C 
ATOM     20  O   UNL     1       2.595   8.773  18.023  0.00  0.00    +0.000 OA
ATOM     21  H   UNL     1       2.028   6.575  20.238  0.00  0.00    +0.000 HD
BRANCH  19  22
ATOM     22  C   UNL     1       3.086   6.493  18.030  0.00  0.00    +0.000 A 
ATOM     23  C   UNL     1       2.656   5.181  18.083  0.00  0.00    +0.000 A 
ATOM     24  C   UNL     1       3.575   4.417  17.328  0.00  0.00    +0.000 A 
ATOM     25  C   UNL     1       4.517   5.308  16.863  0.00  0.00    +0.000 A 
ATOM     26 BR   UNL     1       5.978   4.864  15.790  0.00  0.00    +0.000 Br
ATOM     27  O   UNL     1       4.235   6.572  17.287  0.00  0.00    +0.000 OA
ENDBRANCH  19  22
ENDBRANCH   9  18
TORSDOF 3
ENDMDL
MODEL 9
REMARK VINA RESULT:      -7.2      1.036      1.299
REMARK  Name = 
REMARK  4 active torsions:
REMARK  status: ('A' for Active; 'I' for Inactive)
REMARK    1  A    between atoms: C_1  and  C_2
REMARK    2  A    between atoms: C_4  and  N_5
REMARK    3  A    between atoms: C_15  and  N_16
REMARK    4  A    between atoms: C_17  and  C_19
REMARK                            x       y       z     vdW  Elec       q    Type
REMARK                         _______ _______ _______ _____ _____    ______ ____
ROOT
ATOM      1  C   UNL     1       1.938   5.555  20.893  0.00  0.00    +0.000 C 
ATOM      2  C   UNL     1       2.441   6.284  19.681  0.00  0.00    +0.000 A 
ATOM      3  C   UNL     1       3.291   5.615  18.793  0.00  0.00    +0.000 A 
ATOM      4  C   UNL     1       3.780   6.250  17.657  0.00  0.00    +0.000 A 
ATOM      5  N   UNL     1       3.417   7.515  17.377  0.00  0.00    +0.000 NA
ATOM      6  C   UNL     1       2.606   8.178  18.213  0.00  0.00    +0.000 A 
ATOM      7  C   UNL     1       2.260   9.475  17.889  0.00  0.00    +0.000 A 
ATOM      8  C   UNL     1       1.409  10.241  18.693  0.00  0.00    +0.000 A 
ATOM      9  C   UNL     1       0.872   9.710  19.863  0.00  0.00    +0.000 A 
ATOM     10  C   UNL     1       1.228   8.404  20.216  0.00  0.00    +0.000 A 
ATOM     11  C   UNL     1       2.078   7.617  19.394  0.00  0.00    +0.000 A 
ENDROOT
BRANCH   4  12
ATOM     12  N   UNL     1       4.564   5.551  16.762  0.00  0.00    +0.000 N 
ATOM     13  C   UNL     1       4.273   4.144  16.516  0.00  0.00    +0.000 C 
ATOM     14  C   UNL     1       5.624   3.430  16.405  0.00  0.00    +0.000 C 
ATOM     15  C   UNL     1       6.511   4.070  15.334  0.00  0.00    +0.000 C 
ATOM     16  C   UNL     1       6.629   5.587  15.517  0.00  0.00    +0.000 C 
ATOM     17  C   UNL     1       5.258   6.243  15.680  0.00  0.00    +0.000 C 
ENDBRANCH   4  12
BRANCH   9  18
ATOM     18  N   UNL     1       0.002  10.433  20.703  0.00  0.00    +0.000 N 
ATOM     19  C   UNL     1      -1.113  11.159  20.312  0.00  0.00    +0.000 C 
ATOM     20  O   UNL     1      -1.524  11.244  19.157  0.00  0.00    +0.000 OA
ATOM     21  H   UNL     1       0.149  10.367  21.704  0.00  0.00    +0.000 HD
BRANCH  19  22
ATOM     22  C   UNL     1      -1.815  11.800  21.403  0.00  0.00    +0.000 A 
ATOM     23  C   UNL     1      -1.609  11.723  22.767  0.00  0.00    +0.000 A 
ATOM     24  C   UNL     1      -2.561  12.574  23.374  0.00  0.00    +0.000 A 
ATOM     25  C   UNL     1      -3.297  13.116  22.344  0.00  0.00    +0.000 A 
ATOM     26 BR   UNL     1      -4.698  14.332  22.548  0.00  0.00    +0.000 Br
ATOM     27  O   UNL     1      -2.857  12.650  21.141  0.00  0.00    +0.000 OA
ENDBRANCH  19  22
ENDBRANCH   9  18
TORSDOF 3
ENDMDL
