MODEL 1
REMARK VINA RESULT:      -7.1      0.000      0.000
REMARK  Name = 
REMARK  7 active torsions:
REMARK  status: ('A' for Active; 'I' for Inactive)
REMARK    1  A    between atoms: C_1  and  C_2
REMARK    2  A    between atoms: C_2  and  C_3
REMARK    3  A    between atoms: C_3  and  C_19
REMARK    4  A    between atoms: N_4  and  N_5
REMARK    5  A    between atoms: C_6  and  S_7
REMARK    6  A    between atoms: N_8  and  C_9
REMARK    7  A    between atoms: C_12  and  C_13
REMARK                            x       y       z     vdW  Elec       q    Type
REMARK                         _______ _______ _______ _____ _____    ______ ____
ROOT
ATOM      1  N   UNL     1       4.162   5.838  17.163  0.00  0.00    +0.000 NA
ATOM      2  C   UNL     1       3.479   5.001  17.890  0.00  0.00    +0.000 C 
ATOM      3  N   UNL     1       2.964   5.278  19.131  0.00  0.00    +0.000 N 
ATOM      4  H   UNL     1       2.487   4.494  19.557  0.00  0.00    +0.000 HD
ENDROOT
BRANCH   3   5
ATOM      5  C   UNL     1       2.403   6.514  19.506  0.00  0.00    +0.000 A 
ATOM      6  C   UNL     1       2.400   7.637  18.668  0.00  0.00    +0.000 A 
ATOM      7  C   UNL     1       1.763   8.821  19.056  0.00  0.00    +0.000 A 
ATOM      8  C   UNL     1       1.126   8.911  20.300  0.00  0.00    +0.000 A 
ATOM      9  C   UNL     1       1.162   7.802  21.156  0.00  0.00    +0.000 A 
ATOM     10  C   UNL     1       1.782   6.615  20.757  0.00  0.00    +0.000 A 
BRANCH   8  11
ATOM     11  C   UNL     1       0.396  10.163  20.716  0.00  0.00    +0.000 C 
ATOM     12  F   UNL     1       1.218  11.218  20.974  0.00  0.00    +0.000 F 
ATOM     13  F   UNL     1      -0.470  10.595  19.756  0.00  0.00    +0.000 F 
ATOM     14  F   UNL     1      -0.353   9.987  21.840  0.00  0.00    +0.000 F 
ENDBRANCH   8  11
ENDBRANCH   3   5
BRANCH   1  16
ATOM     15  C   UNL     1       5.896   5.390  15.782  0.00  0.00    +0.000 C 
ATOM     16  N   UNL     1       4.602   5.355  15.937  0.00  0.00    +0.000 NA
BRANCH  15  17
ATOM     17  C   UNL     1       6.440   4.926  14.475  0.00  0.00    +0.000 A 
ATOM     18  C   UNL     1       7.576   5.564  13.954  0.00  0.00    +0.000 A 
ATOM     19  C   UNL     1       8.094   5.186  12.715  0.00  0.00    +0.000 A 
ATOM     20  C   UNL     1       7.474   4.174  11.984  0.00  0.00    +0.000 A 
ATOM     21  C   UNL     1       6.347   3.539  12.503  0.00  0.00    +0.000 A 
ATOM     22 BR   UNL     1       5.488   2.188  11.496  0.00  0.00    +0.000 Br
ATOM     23  C   UNL     1       5.832   3.902  13.748  0.00  0.00    +0.000 A 
ENDBRANCH  15  17
BRANCH  15  25
ATOM     24  C   UNL     1       7.526   4.749  17.617  0.00  0.00    +0.000 C 
ATOM     25  C   UNL     1       6.875   5.884  16.843  0.00  0.00    +0.000 C 
ENDBRANCH  15  25
ENDBRANCH   1  16
BRANCH   2  26
ATOM     26  S   UNL     1       3.157   3.343  17.387  0.00  0.00    +0.000 S 
ATOM     27  H   UNL     1       1.884   3.614  17.062  0.00  0.00    +0.000 HD
ENDBRANCH   2  26
TORSDOF 6
ENDMDL
MODEL 2
REMARK VINA RESULT:      -7.1      5.589      9.198
REMARK  Name = 
REMARK  7 active torsions:
REMARK  status: ('A' for Active; 'I' for Inactive)
REMARK    1  A    between atoms: C_1  and  C_2
REMARK    2  A    between atoms: C_2  and  C_3
REMARK    3  A    between atoms: C_3  and  C_19
REMARK    4  A    between atoms: N_4  and  N_5
REMARK    5  A    between atoms: C_6  and  S_7
REMARK    6  A    between atoms: N_8  and  C_9
REMARK    7  A    between atoms: C_12  and  C_13
REMARK                            x       y       z     vdW  Elec       q    Type
REMARK                         _______ _______ _______ _____ _____    ______ ____
ROOT
ATOM      1  N   UNL     1       4.915   6.190  16.903  0.00  0.00    +0.000 NA
ATOM      2  C   UNL     1       6.173   6.483  16.736  0.00  0.00    +0.000 C 
ATOM      3  N   UNL     1       7.079   5.701  16.067  0.00  0.00    +0.000 N 
ATOM      4  H   UNL     1       8.018   6.078  16.064  0.00  0.00    +0.000 HD
ENDROOT
BRANCH   3   5
ATOM      5  C   UNL     1       6.794   4.968  14.898  0.00  0.00    +0.000 A 
ATOM      6  C   UNL     1       7.507   5.128  13.704  0.00  0.00    +0.000 A 
ATOM      7  C   UNL     1       7.236   4.323  12.591  0.00  0.00    +0.000 A 
ATOM      8  C   UNL     1       6.232   3.349  12.647  0.00  0.00    +0.000 A 
ATOM      9  C   UNL     1       5.489   3.214  13.829  0.00  0.00    +0.000 A 
ATOM     10  C   UNL     1       5.777   4.006  14.944  0.00  0.00    +0.000 A 
BRANCH   8  11
ATOM     11  C   UNL     1       5.955   2.442  11.475  0.00  0.00    +0.000 C 
ATOM     12  F   UNL     1       5.631   1.168  11.832  0.00  0.00    +0.000 F 
ATOM     13  F   UNL     1       4.916   2.888  10.714  0.00  0.00    +0.000 F 
ATOM     14  F   UNL     1       7.016   2.335  10.628  0.00  0.00    +0.000 F 
ENDBRANCH   8  11
ENDBRANCH   3   5
BRANCH   1  16
ATOM     15  C   UNL     1       3.240   6.588  18.368  0.00  0.00    +0.000 C 
ATOM     16  N   UNL     1       4.168   7.115  17.621  0.00  0.00    +0.000 NA
BRANCH  15  17
ATOM     17  C   UNL     1       2.370   7.522  19.137  0.00  0.00    +0.000 A 
ATOM     18  C   UNL     1       1.992   7.169  20.442  0.00  0.00    +0.000 A 
ATOM     19  C   UNL     1       1.146   7.997  21.182  0.00  0.00    +0.000 A 
ATOM     20  C   UNL     1       0.666   9.178  20.618  0.00  0.00    +0.000 A 
ATOM     21  C   UNL     1       1.043   9.528  19.324  0.00  0.00    +0.000 A 
ATOM     22 BR   UNL     1       0.365  11.115  18.549  0.00  0.00    +0.000 Br
ATOM     23  C   UNL     1       1.900   8.713  18.583  0.00  0.00    +0.000 A 
ENDBRANCH  15  17
BRANCH  15  25
ATOM     24  C   UNL     1       1.766   4.632  17.706  0.00  0.00    +0.000 C 
ATOM     25  C   UNL     1       2.985   5.088  18.492  0.00  0.00    +0.000 C 
ENDBRANCH  15  25
ENDBRANCH   1  16
BRANCH   2  26
ATOM     26  S   UNL     1       6.910   7.937  17.405  0.00  0.00    +0.000 S 
ATOM     27  H   UNL     1       7.401   7.284  18.469  0.00  0.00    +0.000 HD
ENDBRANCH   2  26
TORSDOF 6
ENDMDL
MODEL 3
REMARK VINA RESULT:      -7.0      6.652     11.019
REMARK  Name = 
REMARK  7 active torsions:
REMARK  status: ('A' for Active; 'I' for Inactive)
REMARK    1  A    between atoms: C_1  and  C_2
REMARK    2  A    between atoms: C_2  and  C_3
REMARK    3  A    between atoms: C_3  and  C_19
REMARK    4  A    between atoms: N_4  and  N_5
REMARK    5  A    between atoms: C_6  and  S_7
REMARK    6  A    between atoms: N_8  and  C_9
REMARK    7  A    between atoms: C_12  and  C_13
REMARK                            x       y       z     vdW  Elec       q    Type
REMARK                         _______ _______ _______ _____ _____    ______ ____
ROOT
ATOM      1  N   UNL     1       0.826  11.393  20.512  0.00  0.00    +0.000 NA
ATOM      2  C   UNL     1       0.382  11.179  19.307  0.00  0.00    +0.000 C 
ATOM      3  N   UNL     1       0.989  10.373  18.379  0.00  0.00    +0.000 N 
ATOM      4  H   UNL     1       0.512  10.351  17.486  0.00  0.00    +0.000 HD
ENDROOT
BRANCH   3   5
ATOM      5  C   UNL     1       1.627   9.152  18.674  0.00  0.00    +0.000 A 
ATOM      6  C   UNL     1       1.449   8.472  19.886  0.00  0.00    +0.000 A 
ATOM      7  C   UNL     1       2.045   7.224  20.103  0.00  0.00    +0.000 A 
ATOM      8  C   UNL     1       2.846   6.637  19.115  0.00  0.00    +0.000 A 
ATOM      9  C   UNL     1       3.058   7.335  17.918  0.00  0.00    +0.000 A 
ATOM     10  C   UNL     1       2.444   8.571  17.697  0.00  0.00    +0.000 A 
BRANCH   8  11
ATOM     11  C   UNL     1       3.460   5.274  19.313  0.00  0.00    +0.000 C 
ATOM     12  F   UNL     1       3.378   4.472  18.215  0.00  0.00    +0.000 F 
ATOM     13  F   UNL     1       4.786   5.348  19.619  0.00  0.00    +0.000 F 
ATOM     14  F   UNL     1       2.882   4.577  20.330  0.00  0.00    +0.000 F 
ENDBRANCH   8  11
ENDBRANCH   3   5
BRANCH   1  16
ATOM     15  C   UNL     1      -0.711  11.651  22.150  0.00  0.00    +0.000 C 
ATOM     16  N   UNL     1       0.066  12.253  21.295  0.00  0.00    +0.000 NA
BRANCH  15  17
ATOM     17  C   UNL     1      -1.588  12.508  22.997  0.00  0.00    +0.000 A 
ATOM     18  C   UNL     1      -2.867  12.038  23.333  0.00  0.00    +0.000 A 
ATOM     19  C   UNL     1      -3.733  12.827  24.092  0.00  0.00    +0.000 A 
ATOM     20  C   UNL     1      -3.331  14.094  24.510  0.00  0.00    +0.000 A 
ATOM     21  C   UNL     1      -2.060  14.559  24.178  0.00  0.00    +0.000 A 
ATOM     22 BR   UNL     1      -1.527  16.291  24.720  0.00  0.00    +0.000 Br
ATOM     23  C   UNL     1      -1.183  13.770  23.433  0.00  0.00    +0.000 A 
ENDBRANCH  15  17
BRANCH  15  25
ATOM     24  C   UNL     1       0.080   9.635  23.471  0.00  0.00    +0.000 C 
ATOM     25  C   UNL     1      -0.785  10.137  22.327  0.00  0.00    +0.000 C 
ENDBRANCH  15  25
ENDBRANCH   1  16
BRANCH   2  26
ATOM     26  S   UNL     1      -1.069  11.953  18.675  0.00  0.00    +0.000 S 
ATOM     27  H   UNL     1      -0.534  13.180  18.752  0.00  0.00    +0.000 HD
ENDBRANCH   2  26
TORSDOF 6
ENDMDL
MODEL 4
REMARK VINA RESULT:      -7.0      6.600     10.902
REMARK  Name = 
REMARK  7 active torsions:
REMARK  status: ('A' for Active; 'I' for Inactive)
REMARK    1  A    between atoms: C_1  and  C_2
REMARK    2  A    between atoms: C_2  and  C_3
REMARK    3  A    between atoms: C_3  and  C_19
REMARK    4  A    between atoms: N_4  and  N_5
REMARK    5  A    between atoms: C_6  and  S_7
REMARK    6  A    between atoms: N_8  and  C_9
REMARK    7  A    between atoms: C_12  and  C_13
REMARK                            x       y       z     vdW  Elec       q    Type
REMARK                         _______ _______ _______ _____ _____    ______ ____
ROOT
ATOM      1  N   UNL     1       0.824  11.458  20.535  0.00  0.00    +0.000 NA
ATOM      2  C   UNL     1       0.540  11.404  19.265  0.00  0.00    +0.000 C 
ATOM      3  N   UNL     1       1.191  10.621  18.347  0.00  0.00    +0.000 N 
ATOM      4  H   UNL     1       0.849  10.733  17.401  0.00  0.00    +0.000 HD
ENDROOT
BRANCH   3   5
ATOM      5  C   UNL     1       1.654   9.314  18.597  0.00  0.00    +0.000 A 
ATOM      6  C   UNL     1       2.419   8.587  17.676  0.00  0.00    +0.000 A 
ATOM      7  C   UNL     1       2.920   7.321  18.000  0.00  0.00    +0.000 A 
ATOM      8  C   UNL     1       2.653   6.749  19.250  0.00  0.00    +0.000 A 
ATOM      9  C   UNL     1       1.855   7.458  20.158  0.00  0.00    +0.000 A 
ATOM     10  C   UNL     1       1.373   8.731  19.839  0.00  0.00    +0.000 A 
BRANCH   8  11
ATOM     11  C   UNL     1       3.222   5.406  19.634  0.00  0.00    +0.000 C 
ATOM     12  F   UNL     1       4.575   5.410  19.797  0.00  0.00    +0.000 F 
ATOM     13  F   UNL     1       2.709   4.950  20.812  0.00  0.00    +0.000 F 
ATOM     14  F   UNL     1       2.958   4.438  18.714  0.00  0.00    +0.000 F 
ENDBRANCH   8  11
ENDBRANCH   3   5
BRANCH   1  16
ATOM     15  C   UNL     1      -0.760  11.731  22.125  0.00  0.00    +0.000 C 
ATOM     16  N   UNL     1       0.049  12.325  21.293  0.00  0.00    +0.000 NA
BRANCH  15  17
ATOM     17  C   UNL     1      -1.654  12.596  22.945  0.00  0.00    +0.000 A 
ATOM     18  C   UNL     1      -1.136  13.790  23.472  0.00  0.00    +0.000 A 
ATOM     19  C   UNL     1      -1.929  14.609  24.277  0.00  0.00    +0.000 A 
ATOM     20  C   UNL     1      -3.240  14.236  24.569  0.00  0.00    +0.000 A 
ATOM     21  C   UNL     1      -3.753  13.051  24.044  0.00  0.00    +0.000 A 
ATOM     22 BR   UNL     1      -5.522  12.530  24.466  0.00  0.00    +0.000 Br
ATOM     23  C   UNL     1      -2.972  12.234  23.226  0.00  0.00    +0.000 A 
ENDBRANCH  15  17
BRANCH  15  25
ATOM     24  C   UNL     1       0.045   9.696  23.409  0.00  0.00    +0.000 C 
ATOM     25  C   UNL     1      -0.853  10.217  22.299  0.00  0.00    +0.000 C 
ENDBRANCH  15  25
ENDBRANCH   1  16
BRANCH   2  26
ATOM     26  S   UNL     1      -0.720  12.391  18.529  0.00  0.00    +0.000 S 
ATOM     27  H   UNL     1      -0.468  13.437  19.330  0.00  0.00    +0.000 HD
ENDBRANCH   2  26
TORSDOF 6
ENDMDL
MODEL 5
REMARK VINA RESULT:      -7.0      0.398      1.041
REMARK  Name = 
REMARK  7 active torsions:
REMARK  status: ('A' for Active; 'I' for Inactive)
REMARK    1  A    between atoms: C_1  and  C_2
REMARK    2  A    between atoms: C_2  and  C_3
REMARK    3  A    between atoms: C_3  and  C_19
REMARK    4  A    between atoms: N_4  and  N_5
REMARK    5  A    between atoms: C_6  and  S_7
REMARK    6  A    between atoms: N_8  and  C_9
REMARK    7  A    between atoms: C_12  and  C_13
REMARK                            x       y       z     vdW  Elec       q    Type
REMARK                         _______ _______ _______ _____ _____    ______ ____
ROOT
ATOM      1  N   UNL     1       4.173   5.705  17.140  0.00  0.00    +0.000 NA
ATOM      2  C   UNL     1       3.584   4.835  17.909  0.00  0.00    +0.000 C 
ATOM      3  N   UNL     1       3.082   5.103  19.157  0.00  0.00    +0.000 N 
ATOM      4  H   UNL     1       2.684   4.294  19.618  0.00  0.00    +0.000 HD
ENDROOT
BRANCH   3   5
ATOM      5  C   UNL     1       2.429   6.298  19.516  0.00  0.00    +0.000 A 
ATOM      6  C   UNL     1       1.806   6.484  20.757  0.00  0.00    +0.000 A 
ATOM      7  C   UNL     1       1.235   7.716  21.096  0.00  0.00    +0.000 A 
ATOM      8  C   UNL     1       1.264   8.786  20.193  0.00  0.00    +0.000 A 
ATOM      9  C   UNL     1       1.852   8.590  18.935  0.00  0.00    +0.000 A 
ATOM     10  C   UNL     1       2.438   7.364  18.608  0.00  0.00    +0.000 A 
BRANCH   8  11
ATOM     11  C   UNL     1       0.695  10.134  20.557  0.00  0.00    +0.000 C 
ATOM     12  F   UNL     1       1.264  11.171  19.880  0.00  0.00    +0.000 F 
ATOM     13  F   UNL     1      -0.641  10.214  20.300  0.00  0.00    +0.000 F 
ATOM     14  F   UNL     1       0.838  10.427  21.879  0.00  0.00    +0.000 F 
ENDBRANCH   8  11
ENDBRANCH   3   5
BRANCH   1  16
ATOM     15  C   UNL     1       5.906   5.332  15.736  0.00  0.00    +0.000 C 
ATOM     16  N   UNL     1       4.619   5.226  15.915  0.00  0.00    +0.000 NA
BRANCH  15  17
ATOM     17  C   UNL     1       6.452   4.876  14.427  0.00  0.00    +0.000 A 
ATOM     18  C   UNL     1       7.572   5.537  13.898  0.00  0.00    +0.000 A 
ATOM     19  C   UNL     1       8.091   5.166  12.657  0.00  0.00    +0.000 A 
ATOM     20  C   UNL     1       7.488   4.140  11.931  0.00  0.00    +0.000 A 
ATOM     21  C   UNL     1       6.378   3.483  12.458  0.00  0.00    +0.000 A 
ATOM     22 BR   UNL     1       5.541   2.112  11.459  0.00  0.00    +0.000 Br
ATOM     23  C   UNL     1       5.862   3.838  13.705  0.00  0.00    +0.000 A 
ENDBRANCH  15  17
BRANCH  15  25
ATOM     24  C   UNL     1       7.533   4.821  17.613  0.00  0.00    +0.000 C 
ATOM     25  C   UNL     1       6.874   5.900  16.770  0.00  0.00    +0.000 C 
ENDBRANCH  15  25
ENDBRANCH   1  16
BRANCH   2  26
ATOM     26  S   UNL     1       3.390   3.142  17.459  0.00  0.00    +0.000 S 
ATOM     27  H   UNL     1       4.614   2.812  17.897  0.00  0.00    +0.000 HD
ENDBRANCH   2  26
TORSDOF 6
ENDMDL
MODEL 6
REMARK VINA RESULT:      -6.9      5.651      9.175
REMARK  Name = 
REMARK  7 active torsions:
REMARK  status: ('A' for Active; 'I' for Inactive)
REMARK    1  A    between atoms: C_1  and  C_2
REMARK    2  A    between atoms: C_2  and  C_3
REMARK    3  A    between atoms: C_3  and  C_19
REMARK    4  A    between atoms: N_4  and  N_5
REMARK    5  A    between atoms: C_6  and  S_7
REMARK    6  A    between atoms: N_8  and  C_9
REMARK    7  A    between atoms: C_12  and  C_13
REMARK                            x       y       z     vdW  Elec       q    Type
REMARK                         _______ _______ _______ _____ _____    ______ ____
ROOT
ATOM      1  N   UNL     1       4.945   6.455  17.097  0.00  0.00    +0.000 NA
ATOM      2  C   UNL     1       6.220   6.683  16.964  0.00  0.00    +0.000 C 
ATOM      3  N   UNL     1       7.119   5.811  16.404  0.00  0.00    +0.000 N 
ATOM      4  H   UNL     1       8.073   6.150  16.413  0.00  0.00    +0.000 HD
ENDROOT
BRANCH   3   5
ATOM      5  C   UNL     1       6.851   4.993  15.289  0.00  0.00    +0.000 A 
ATOM      6  C   UNL     1       5.942   3.929  15.323  0.00  0.00    +0.000 A 
ATOM      7  C   UNL     1       5.654   3.193  14.169  0.00  0.00    +0.000 A 
ATOM      8  C   UNL     1       6.283   3.498  12.955  0.00  0.00    +0.000 A 
ATOM      9  C   UNL     1       7.224   4.537  12.928  0.00  0.00    +0.000 A 
ATOM     10  C   UNL     1       7.494   5.283  14.078  0.00  0.00    +0.000 A 
BRANCH   8  11
ATOM     11  C   UNL     1       5.952   2.746  11.691  0.00  0.00    +0.000 C 
ATOM     12  F   UNL     1       5.641   1.435  11.898  0.00  0.00    +0.000 F 
ATOM     13  F   UNL     1       4.880   3.282  11.041  0.00  0.00    +0.000 F 
ATOM     14  F   UNL     1       6.973   2.751  10.791  0.00  0.00    +0.000 F 
ENDBRANCH   8  11
ENDBRANCH   3   5
BRANCH   1  16
ATOM     15  C   UNL     1       3.009   7.111  18.064  0.00  0.00    +0.000 C 
ATOM     16  N   UNL     1       4.209   7.467  17.700  0.00  0.00    +0.000 NA
BRANCH  15  17
ATOM     17  C   UNL     1       2.145   8.156  18.682  0.00  0.00    +0.000 A 
ATOM     18  C   UNL     1       1.664   9.197  17.873  0.00  0.00    +0.000 A 
ATOM     19  C   UNL     1       0.884  10.216  18.421  0.00  0.00    +0.000 A 
ATOM     20  C   UNL     1       0.589  10.207  19.784  0.00  0.00    +0.000 A 
ATOM     21  C   UNL     1       1.065   9.172  20.586  0.00  0.00    +0.000 A 
ATOM     22 BR   UNL     1       0.691   9.177  22.440  0.00  0.00    +0.000 Br
ATOM     23  C   UNL     1       1.833   8.142  20.042  0.00  0.00    +0.000 A 
ENDBRANCH  15  17
BRANCH  15  25
ATOM     24  C   UNL     1       2.589   4.848  19.130  0.00  0.00    +0.000 C 
ATOM     25  C   UNL     1       2.438   5.708  17.885  0.00  0.00    +0.000 C 
ENDBRANCH  15  25
ENDBRANCH   1  16
BRANCH   2  26
ATOM     26  S   UNL     1       6.991   8.159  17.541  0.00  0.00    +0.000 S 
ATOM     27  H   UNL     1       5.970   8.932  17.141  0.00  0.00    +0.000 HD
ENDBRANCH   2  26
TORSDOF 6
ENDMDL
MODEL 7
REMARK VINA RESULT:      -6.9      1.069      1.192
REMARK  Name = 
REMARK  7 active torsions:
REMARK  status: ('A' for Active; 'I' for Inactive)
REMARK    1  A    between atoms: C_1  and  C_2
REMARK    2  A    between atoms: C_2  and  C_3
REMARK    3  A    between atoms: C_3  and  C_19
REMARK    4  A    between atoms: N_4  and  N_5
REMARK    5  A    between atoms: C_6  and  S_7
REMARK    6  A    between atoms: N_8  and  C_9
REMARK    7  A    between atoms: C_12  and  C_13
REMARK                            x       y       z     vdW  Elec       q    Type
REMARK                         _______ _______ _______ _____ _____    ______ ____
ROOT
ATOM      1  N   UNL     1       4.513   4.608  17.677  0.00  0.00    +0.000 NA
ATOM      2  C   UNL     1       3.552   3.860  18.138  0.00  0.00    +0.000 C 
ATOM      3  N   UNL     1       2.827   4.125  19.272  0.00  0.00    +0.000 N 
ATOM      4  H   UNL     1       2.139   3.415  19.490  0.00  0.00    +0.000 HD
ENDROOT
BRANCH   3   5
ATOM      5  C   UNL     1       2.414   5.411  19.675  0.00  0.00    +0.000 A 
ATOM      6  C   UNL     1       2.691   6.568  18.936  0.00  0.00    +0.000 A 
ATOM      7  C   UNL     1       2.196   7.813  19.339  0.00  0.00    +0.000 A 
ATOM      8  C   UNL     1       1.422   7.928  20.500  0.00  0.00    +0.000 A 
ATOM      9  C   UNL     1       1.177   6.777  21.263  0.00  0.00    +0.000 A 
ATOM     10  C   UNL     1       1.657   5.533  20.846  0.00  0.00    +0.000 A 
BRANCH   8  11
ATOM     11  C   UNL     1       0.841   9.253  20.926  0.00  0.00    +0.000 C 
ATOM     12  F   UNL     1       1.246   9.658  22.162  0.00  0.00    +0.000 F 
ATOM     13  F   UNL     1       1.185  10.261  20.075  0.00  0.00    +0.000 F 
ATOM     14  F   UNL     1      -0.520   9.245  20.961  0.00  0.00    +0.000 F 
ENDBRANCH   8  11
ENDBRANCH   3   5
BRANCH   1  16
ATOM     15  C   UNL     1       5.525   5.104  15.716  0.00  0.00    +0.000 C 
ATOM     16  N   UNL     1       5.129   4.155  16.517  0.00  0.00    +0.000 NA
BRANCH  15  17
ATOM     17  C   UNL     1       6.159   4.694  14.432  0.00  0.00    +0.000 A 
ATOM     18  C   UNL     1       7.309   5.374  14.001  0.00  0.00    +0.000 A 
ATOM     19  C   UNL     1       7.910   5.046  12.785  0.00  0.00    +0.000 A 
ATOM     20  C   UNL     1       7.360   4.044  11.987  0.00  0.00    +0.000 A 
ATOM     21  C   UNL     1       6.220   3.368  12.416  0.00  0.00    +0.000 A 
ATOM     22 BR   UNL     1       5.456   2.031  11.318  0.00  0.00    +0.000 Br
ATOM     23  C   UNL     1       5.621   3.680  13.638  0.00  0.00    +0.000 A 
ENDBRANCH  15  17
BRANCH  15  25
ATOM     24  C   UNL     1       6.316   7.085  17.090  0.00  0.00    +0.000 C 
ATOM     25  C   UNL     1       5.369   6.594  16.007  0.00  0.00    +0.000 C 
ENDBRANCH  15  25
ENDBRANCH   1  16
BRANCH   2  26
ATOM     26  S   UNL     1       3.074   2.345  17.377  0.00  0.00    +0.000 S 
ATOM     27  H   UNL     1       2.967   2.907  16.163  0.00  0.00    +0.000 HD
ENDBRANCH   2  26
TORSDOF 6
ENDMDL
MODEL 8
REMARK VINA RESULT:      -6.9      5.722      9.199
REMARK  Name = 
REMARK  7 active torsions:
REMARK  status: ('A' for Active; 'I' for Inactive)
REMARK    1  A    between atoms: C_1  and  C_2
REMARK    2  A    between atoms: C_2  and  C_3
REMARK    3  A    between atoms: C_3  and  C_19
REMARK    4  A    between atoms: N_4  and  N_5
REMARK    5  A    between atoms: C_6  and  S_7
REMARK    6  A    between atoms: N_8  and  C_9
REMARK    7  A    between atoms: C_12  and  C_13
REMARK                            x       y       z     vdW  Elec       q    Type
REMARK                         _______ _______ _______ _____ _____    ______ ____
ROOT
ATOM      1  N   UNL     1       4.887   6.418  16.829  0.00  0.00    +0.000 NA
ATOM      2  C   UNL     1       6.179   6.565  16.772  0.00  0.00    +0.000 C 
ATOM      3  N   UNL     1       7.046   5.672  16.196  0.00  0.00    +0.000 N 
ATOM      4  H   UNL     1       8.019   5.941  16.273  0.00  0.00    +0.000 HD
ENDROOT
BRANCH   3   5
ATOM      5  C   UNL     1       6.783   4.950  15.015  0.00  0.00    +0.000 A 
ATOM      6  C   UNL     1       7.490   5.154  13.823  0.00  0.00    +0.000 A 
ATOM      7  C   UNL     1       7.244   4.360  12.697  0.00  0.00    +0.000 A 
ATOM      8  C   UNL     1       6.271   3.353  12.737  0.00  0.00    +0.000 A 
ATOM      9  C   UNL     1       5.535   3.174  13.916  0.00  0.00    +0.000 A 
ATOM     10  C   UNL     1       5.798   3.956  15.044  0.00  0.00    +0.000 A 
BRANCH   8  11
ATOM     11  C   UNL     1       6.023   2.457  11.549  0.00  0.00    +0.000 C 
ATOM     12  F   UNL     1       7.101   2.327  10.726  0.00  0.00    +0.000 F 
ATOM     13  F   UNL     1       5.688   1.190  11.923  0.00  0.00    +0.000 F 
ATOM     14  F   UNL     1       5.001   2.895  10.763  0.00  0.00    +0.000 F 
ENDBRANCH   8  11
ENDBRANCH   3   5
BRANCH   1  16
ATOM     15  C   UNL     1       3.034   7.073  17.947  0.00  0.00    +0.000 C 
ATOM     16  N   UNL     1       4.189   7.436  17.466  0.00  0.00    +0.000 NA
BRANCH  15  17
ATOM     17  C   UNL     1       2.210   8.123  18.610  0.00  0.00    +0.000 A 
ATOM     18  C   UNL     1       1.775   9.218  17.848  0.00  0.00    +0.000 A 
ATOM     19  C   UNL     1       1.034  10.242  18.440  0.00  0.00    +0.000 A 
ATOM     20  C   UNL     1       0.732  10.183  19.799  0.00  0.00    +0.000 A 
ATOM     21  C   UNL     1       1.162   9.094  20.555  0.00  0.00    +0.000 A 
ATOM     22 BR   UNL     1       0.779   9.030  22.406  0.00  0.00    +0.000 Br
ATOM     23  C   UNL     1       1.891   8.059  19.967  0.00  0.00    +0.000 A 
ENDBRANCH  15  17
BRANCH  15  25
ATOM     24  C   UNL     1       2.799   4.822  19.093  0.00  0.00    +0.000 C 
ATOM     25  C   UNL     1       2.476   5.655  17.864  0.00  0.00    +0.000 C 
ENDBRANCH  15  25
ENDBRANCH   1  16
BRANCH   2  26
ATOM     26  S   UNL     1       7.015   7.942  17.487  0.00  0.00    +0.000 S 
ATOM     27  H   UNL     1       8.100   7.214  17.794  0.00  0.00    +0.000 HD
ENDBRANCH   2  26
TORSDOF 6
ENDMDL
MODEL 9
REMARK VINA RESULT:      -6.9      0.896      1.362
REMARK  Name = 
REMARK  7 active torsions:
REMARK  status: ('A' for Active; 'I' for Inactive)
REMARK    1  A    between atoms: C_1  and  C_2
REMARK    2  A    between atoms: C_2  and  C_3
REMARK    3  A    between atoms: C_3  and  C_19
REMARK    4  A    between atoms: N_4  and  N_5
REMARK    5  A    between atoms: C_6  and  S_7
REMARK    6  A    between atoms: N_8  and  C_9
REMARK    7  A    between atoms: C_12  and  C_13
REMARK                            x       y       z     vdW  Elec       q    Type
REMARK                         _______ _______ _______ _____ _____    ______ ____
ROOT
ATOM      1  N   UNL     1       4.316   4.850  17.539  0.00  0.00    +0.000 NA
ATOM      2  C   UNL     1       3.545   4.020  18.180  0.00  0.00    +0.000 C 
ATOM      3  N   UNL     1       2.916   4.290  19.368  0.00  0.00    +0.000 N 
ATOM      4  H   UNL     1       2.379   3.512  19.730  0.00  0.00    +0.000 HD
ENDROOT
BRANCH   3   5
ATOM      5  C   UNL     1       2.351   5.535  19.709  0.00  0.00    +0.000 A 
ATOM      6  C   UNL     1       1.585   5.734  20.865  0.00  0.00    +0.000 A 
ATOM      7  C   UNL     1       1.109   7.007  21.199  0.00  0.00    +0.000 A 
ATOM      8  C   UNL     1       1.377   8.106  20.374  0.00  0.00    +0.000 A 
ATOM      9  C   UNL     1       2.110   7.901  19.197  0.00  0.00    +0.000 A 
ATOM     10  C   UNL     1       2.601   6.633  18.876  0.00  0.00    +0.000 A 
BRANCH   8  11
ATOM     11  C   UNL     1       0.911   9.493  20.741  0.00  0.00    +0.000 C 
ATOM     12  F   UNL     1       1.427   9.952  21.916  0.00  0.00    +0.000 F 
ATOM     13  F   UNL     1       1.257  10.417  19.800  0.00  0.00    +0.000 F 
ATOM     14  F   UNL     1      -0.442   9.579  20.867  0.00  0.00    +0.000 F 
ENDBRANCH   8  11
ENDBRANCH   3   5
BRANCH   1  16
ATOM     15  C   UNL     1       5.660   5.219  15.758  0.00  0.00    +0.000 C 
ATOM     16  N   UNL     1       4.864   4.376  16.354  0.00  0.00    +0.000 NA
BRANCH  15  17
ATOM     17  C   UNL     1       6.254   4.795  14.459  0.00  0.00    +0.000 A 
ATOM     18  C   UNL     1       7.387   5.474  13.983  0.00  0.00    +0.000 A 
ATOM     19  C   UNL     1       7.950   5.134  12.752  0.00  0.00    +0.000 A 
ATOM     20  C   UNL     1       7.379   4.121  11.984  0.00  0.00    +0.000 A 
ATOM     21  C   UNL     1       6.255   3.446  12.458  0.00  0.00    +0.000 A 
ATOM     22 BR   UNL     1       5.463   2.093  11.401  0.00  0.00    +0.000 Br
ATOM     23  C   UNL     1       5.695   3.770  13.694  0.00  0.00    +0.000 A 
ENDBRANCH  15  17
BRANCH  15  25
ATOM     24  C   UNL     1       7.188   6.583  17.255  0.00  0.00    +0.000 C 
ATOM     25  C   UNL     1       6.006   6.603  16.299  0.00  0.00    +0.000 C 
ENDBRANCH  15  25
ENDBRANCH   1  16
BRANCH   2  26
ATOM     26  S   UNL     1       3.233   2.380  17.616  0.00  0.00    +0.000 S 
ATOM     27  H   UNL     1       4.244   1.866  18.332  0.00  0.00    +0.000 HD
ENDBRANCH   2  26
TORSDOF 6
ENDMDL
