MODEL 1
REMARK VINA RESULT:      -7.2      0.000      0.000
REMARK  Name = 
REMARK  5 active torsions:
REMARK  status: ('A' for Active; 'I' for Inactive)
REMARK    1  A    between atoms: C_1  and  O_2
REMARK    2  A    between atoms: O_2  and  C_3
REMARK    3  A    between atoms: C_5  and  O_6
REMARK    4  A    between atoms: O_6  and  C_7
REMARK    5  A    between atoms: C_8  and  N_9
REMARK                            x       y       z     vdW  Elec       q    Type
REMARK                         _______ _______ _______ _____ _____    ______ ____
ROOT
ATOM      1  N   UNL     1       2.894   6.898  19.084  0.00  0.00    +0.000 N 
ATOM      2  C   UNL     1       2.104   7.971  18.694  0.00  0.00    +0.000 C 
ATOM      3  O   UNL     1       1.852   8.401  17.585  0.00  0.00    +0.000 OA
ATOM      4  N   UNL     1       1.556   8.662  19.833  0.00  0.00    +0.000 N 
ATOM      5  N   UNL     1       1.281   7.998  21.004  0.00  0.00    +0.000 NA
ATOM      6  C   UNL     1       0.172   8.633  21.434  0.00  0.00    +0.000 A 
ATOM      7  C   UNL     1      -0.111   9.803  20.690  0.00  0.00    +0.000 A 
ATOM      8  C   UNL     1      -1.120  10.790  20.660  0.00  0.00    +0.000 A 
ATOM      9  C   UNL     1      -0.856  11.972  19.959  0.00  0.00    +0.000 A 
ATOM     10 CL   UNL     1      -2.080  13.180  19.837  0.00  0.00    +0.000 Cl
ATOM     11  C   UNL     1       0.387  12.196  19.365  0.00  0.00    +0.000 A 
ATOM     12  C   UNL     1       1.334  11.168  19.278  0.00  0.00    +0.000 A 
ATOM     13  C   UNL     1       1.007   9.941  19.879  0.00  0.00    +0.000 A 
ATOM     14  H   UNL     1       3.164   6.916  20.062  0.00  0.00    +0.000 HD
ENDROOT
BRANCH   1  18
ATOM     15  C   UNL     1       5.269   4.342  16.561  0.00  0.00    +0.000 A 
ATOM     16  C   UNL     1       3.927   4.014  16.823  0.00  0.00    +0.000 A 
ATOM     17  C   UNL     1       3.103   4.791  17.664  0.00  0.00    +0.000 A 
ATOM     18  C   UNL     1       3.598   5.981  18.235  0.00  0.00    +0.000 A 
ATOM     19  C   UNL     1       4.952   6.291  17.998  0.00  0.00    +0.000 A 
ATOM     20  C   UNL     1       5.774   5.500  17.159  0.00  0.00    +0.000 A 
ATOM     21 CL   UNL     1       7.357   6.102  16.857  0.00  0.00    +0.000 Cl
BRANCH  15  23
ATOM     22  C   UNL     1       6.012   3.950  14.322  0.00  0.00    +0.000 C 
ATOM     23  O   UNL     1       5.863   3.511  15.664  0.00  0.00    +0.000 OA
ENDBRANCH  15  23
BRANCH  17  24
ATOM     24  O   UNL     1       1.820   4.393  17.982  0.00  0.00    +0.000 OA
ATOM     25  C   UNL     1       1.633   3.021  18.317  0.00  0.00    +0.000 C 
ENDBRANCH  17  24
ENDBRANCH   1  18
TORSDOF 3
ENDMDL
MODEL 2
REMARK VINA RESULT:      -7.0      2.439      3.459
REMARK  Name = 
REMARK  5 active torsions:
REMARK  status: ('A' for Active; 'I' for Inactive)
REMARK    1  A    between atoms: C_1  and  O_2
REMARK    2  A    between atoms: O_2  and  C_3
REMARK    3  A    between atoms: C_5  and  O_6
REMARK    4  A    between atoms: O_6  and  C_7
REMARK    5  A    between atoms: C_8  and  N_9
REMARK                            x       y       z     vdW  Elec       q    Type
REMARK                         _______ _______ _______ _____ _____    ______ ____
ROOT
ATOM      1  N   UNL     1       2.264   7.241  18.132  0.00  0.00    +0.000 N 
ATOM      2  C   UNL     1       1.894   8.021  19.220  0.00  0.00    +0.000 C 
ATOM      3  O   UNL     1       1.836   7.746  20.403  0.00  0.00    +0.000 OA
ATOM      4  N   UNL     1       1.494   9.342  18.809  0.00  0.00    +0.000 N 
ATOM      5  N   UNL     1       2.034   9.933  17.692  0.00  0.00    +0.000 NA
ATOM      6  C   UNL     1       2.093  11.229  18.060  0.00  0.00    +0.000 A 
ATOM      7  C   UNL     1       1.404  11.485  19.269  0.00  0.00    +0.000 A 
ATOM      8  C   UNL     1       1.180  12.592  20.118  0.00  0.00    +0.000 A 
ATOM      9  C   UNL     1       0.164  12.486  21.074  0.00  0.00    +0.000 A 
ATOM     10 CL   UNL     1      -0.103  13.784  22.177  0.00  0.00    +0.000 Cl
ATOM     11  C   UNL     1      -0.645  11.352  21.143  0.00  0.00    +0.000 A 
ATOM     12  C   UNL     1      -0.339  10.207  20.398  0.00  0.00    +0.000 A 
ATOM     13  C   UNL     1       0.762  10.282  19.530  0.00  0.00    +0.000 A 
ATOM     14  H   UNL     1       1.966   7.611  17.236  0.00  0.00    +0.000 HD
ENDROOT
BRANCH   1  18
ATOM     15  C   UNL     1       3.323   3.068  18.247  0.00  0.00    +0.000 A 
ATOM     16  C   UNL     1       4.321   4.038  18.040  0.00  0.00    +0.000 A 
ATOM     17  C   UNL     1       4.038   5.418  17.961  0.00  0.00    +0.000 A 
ATOM     18  C   UNL     1       2.720   5.881  18.151  0.00  0.00    +0.000 A 
ATOM     19  C   UNL     1       1.717   4.907  18.327  0.00  0.00    +0.000 A 
ATOM     20  C   UNL     1       2.009   3.523  18.395  0.00  0.00    +0.000 A 
ATOM     21 CL   UNL     1       0.690   2.483  18.763  0.00  0.00    +0.000 Cl
BRANCH  15  23
ATOM     22  C   UNL     1       4.499   1.455  19.565  0.00  0.00    +0.000 C 
ATOM     23  O   UNL     1       3.813   1.807  18.372  0.00  0.00    +0.000 OA
ENDBRANCH  15  23
BRANCH  17  24
ATOM     24  O   UNL     1       5.021   6.338  17.660  0.00  0.00    +0.000 OA
ATOM     25  C   UNL     1       5.362   6.492  16.285  0.00  0.00    +0.000 C 
ENDBRANCH  17  24
ENDBRANCH   1  18
TORSDOF 3
ENDMDL
MODEL 3
REMARK VINA RESULT:      -7.0      2.737      3.731
REMARK  Name = 
REMARK  5 active torsions:
REMARK  status: ('A' for Active; 'I' for Inactive)
REMARK    1  A    between atoms: C_1  and  O_2
REMARK    2  A    between atoms: O_2  and  C_3
REMARK    3  A    between atoms: C_5  and  O_6
REMARK    4  A    between atoms: O_6  and  C_7
REMARK    5  A    between atoms: C_8  and  N_9
REMARK                            x       y       z     vdW  Elec       q    Type
REMARK                         _______ _______ _______ _____ _____    ______ ____
ROOT
ATOM      1  N   UNL     1       1.766   7.905  19.514  0.00  0.00    +0.000 N 
ATOM      2  C   UNL     1       1.430   8.662  20.629  0.00  0.00    +0.000 C 
ATOM      3  O   UNL     1       1.592   8.437  21.812  0.00  0.00    +0.000 OA
ATOM      4  N   UNL     1       0.755   9.878  20.254  0.00  0.00    +0.000 N 
ATOM      5  N   UNL     1       1.017  10.498  19.056  0.00  0.00    +0.000 NA
ATOM      6  C   UNL     1       0.907  11.801  19.384  0.00  0.00    +0.000 A 
ATOM      7  C   UNL     1       0.366  11.995  20.678  0.00  0.00    +0.000 A 
ATOM      8  C   UNL     1       0.082  13.088  21.526  0.00  0.00    +0.000 A 
ATOM      9  C   UNL     1      -0.751  12.859  22.627  0.00  0.00    +0.000 A 
ATOM     10 CL   UNL     1      -1.074  14.144  23.730  0.00  0.00    +0.000 Cl
ATOM     11  C   UNL     1      -1.336  11.611  22.842  0.00  0.00    +0.000 A 
ATOM     12  C   UNL     1      -0.949  10.499  22.083  0.00  0.00    +0.000 A 
ATOM     13  C   UNL     1      -0.015  10.715  21.057  0.00  0.00    +0.000 A 
ATOM     14  H   UNL     1       1.283   8.178  18.666  0.00  0.00    +0.000 HD
ENDROOT
BRANCH   1  18
ATOM     15  C   UNL     1       3.606   4.015  19.689  0.00  0.00    +0.000 A 
ATOM     16  C   UNL     1       4.095   4.981  18.791  0.00  0.00    +0.000 A 
ATOM     17  C   UNL     1       3.520   6.262  18.661  0.00  0.00    +0.000 A 
ATOM     18  C   UNL     1       2.447   6.642  19.493  0.00  0.00    +0.000 A 
ATOM     19  C   UNL     1       1.937   5.664  20.370  0.00  0.00    +0.000 A 
ATOM     20  C   UNL     1       2.515   4.376  20.486  0.00  0.00    +0.000 A 
ATOM     21 CL   UNL     1       1.866   3.357  21.709  0.00  0.00    +0.000 Cl
BRANCH  15  23
ATOM     22  C   UNL     1       3.875   1.736  19.018  0.00  0.00    +0.000 C 
ATOM     23  O   UNL     1       4.349   2.877  19.717  0.00  0.00    +0.000 OA
ENDBRANCH  15  23
BRANCH  17  24
ATOM     24  O   UNL     1       3.957   7.154  17.704  0.00  0.00    +0.000 OA
ATOM     25  C   UNL     1       4.813   6.642  16.686  0.00  0.00    +0.000 C 
ENDBRANCH  17  24
ENDBRANCH   1  18
TORSDOF 3
ENDMDL
MODEL 4
REMARK VINA RESULT:      -6.9      1.879      2.182
REMARK  Name = 
REMARK  5 active torsions:
REMARK  status: ('A' for Active; 'I' for Inactive)
REMARK    1  A    between atoms: C_1  and  O_2
REMARK    2  A    between atoms: O_2  and  C_3
REMARK    3  A    between atoms: C_5  and  O_6
REMARK    4  A    between atoms: O_6  and  C_7
REMARK    5  A    between atoms: C_8  and  N_9
REMARK                            x       y       z     vdW  Elec       q    Type
REMARK                         _______ _______ _______ _____ _____    ______ ____
ROOT
ATOM      1  N   UNL     1       1.952   7.663  20.499  0.00  0.00    +0.000 N 
ATOM      2  C   UNL     1       1.237   8.809  20.177  0.00  0.00    +0.000 C 
ATOM      3  O   UNL     1       0.886   9.240  19.096  0.00  0.00    +0.000 OA
ATOM      4  N   UNL     1       0.924   9.581  21.351  0.00  0.00    +0.000 N 
ATOM      5  N   UNL     1       0.739   8.977  22.572  0.00  0.00    +0.000 NA
ATOM      6  C   UNL     1      -0.229   9.740  23.120  0.00  0.00    +0.000 A 
ATOM      7  C   UNL     1      -0.482  10.918  22.377  0.00  0.00    +0.000 A 
ATOM      8  C   UNL     1      -1.374  12.011  22.444  0.00  0.00    +0.000 A 
ATOM      9  C   UNL     1      -1.081  13.141  21.671  0.00  0.00    +0.000 A 
ATOM     10 CL   UNL     1      -2.173  14.473  21.666  0.00  0.00    +0.000 Cl
ATOM     11  C   UNL     1       0.088  13.212  20.913  0.00  0.00    +0.000 A 
ATOM     12  C   UNL     1       0.899  12.083  20.740  0.00  0.00    +0.000 A 
ATOM     13  C   UNL     1       0.527  10.914  21.422  0.00  0.00    +0.000 A 
ATOM     14  H   UNL     1       2.351   7.672  21.432  0.00  0.00    +0.000 HD
ENDROOT
BRANCH   1  18
ATOM     15  C   UNL     1       3.550   4.877  17.630  0.00  0.00    +0.000 A 
ATOM     16  C   UNL     1       2.724   4.414  18.671  0.00  0.00    +0.000 A 
ATOM     17  C   UNL     1       2.194   5.267  19.661  0.00  0.00    +0.000 A 
ATOM     18  C   UNL     1       2.435   6.655  19.599  0.00  0.00    +0.000 A 
ATOM     19  C   UNL     1       3.286   7.114  18.575  0.00  0.00    +0.000 A 
ATOM     20  C   UNL     1       3.823   6.248  17.591  0.00  0.00    +0.000 A 
ATOM     21 CL   UNL     1       4.720   6.992  16.328  0.00  0.00    +0.000 Cl
BRANCH  15  23
ATOM     22  C   UNL     1       5.263   3.702  16.446  0.00  0.00    +0.000 C 
ATOM     23  O   UNL     1       3.889   3.909  16.738  0.00  0.00    +0.000 OA
ENDBRANCH  15  23
BRANCH  17  24
ATOM     24  O   UNL     1       1.469   4.772  20.725  0.00  0.00    +0.000 OA
ATOM     25  C   UNL     1       2.052   3.702  21.463  0.00  0.00    +0.000 C 
ENDBRANCH  17  24
ENDBRANCH   1  18
TORSDOF 3
ENDMDL
MODEL 5
REMARK VINA RESULT:      -6.8      6.380      9.361
REMARK  Name = 
REMARK  5 active torsions:
REMARK  status: ('A' for Active; 'I' for Inactive)
REMARK    1  A    between atoms: C_1  and  O_2
REMARK    2  A    between atoms: O_2  and  C_3
REMARK    3  A    between atoms: C_5  and  O_6
REMARK    4  A    between atoms: O_6  and  C_7
REMARK    5  A    between atoms: C_8  and  N_9
REMARK                            x       y       z     vdW  Elec       q    Type
REMARK                         _______ _______ _______ _____ _____    ______ ____
ROOT
ATOM      1  N   UNL     1       8.797   9.115  19.325  0.00  0.00    +0.000 N 
ATOM      2  C   UNL     1       8.265   8.649  18.130  0.00  0.00    +0.000 C 
ATOM      3  O   UNL     1       8.176   9.188  17.044  0.00  0.00    +0.000 OA
ATOM      4  N   UNL     1       7.718   7.325  18.279  0.00  0.00    +0.000 N 
ATOM      5  N   UNL     1       8.237   6.438  19.191  0.00  0.00    +0.000 NA
ATOM      6  C   UNL     1       8.103   5.261  18.547  0.00  0.00    +0.000 A 
ATOM      7  C   UNL     1       7.317   5.366  17.375  0.00  0.00    +0.000 A 
ATOM      8  C   UNL     1       6.900   4.513  16.330  0.00  0.00    +0.000 A 
ATOM      9  C   UNL     1       5.854   4.949  15.509  0.00  0.00    +0.000 A 
ATOM     10 CL   UNL     1       5.354   3.974  14.179  0.00  0.00    +0.000 Cl
ATOM     11  C   UNL     1       5.199   6.156  15.757  0.00  0.00    +0.000 A 
ATOM     12  C   UNL     1       5.697   7.060  16.703  0.00  0.00    +0.000 A 
ATOM     13  C   UNL     1       6.827   6.664  17.437  0.00  0.00    +0.000 A 
ATOM     14  H   UNL     1       8.504   8.590  20.142  0.00  0.00    +0.000 HD
ENDROOT
BRANCH   1  18
ATOM     15  C   UNL     1      10.799  12.907  19.727  0.00  0.00    +0.000 A 
ATOM     16  C   UNL     1      10.109  12.360  20.824  0.00  0.00    +0.000 A 
ATOM     17  C   UNL     1       9.408  11.138  20.752  0.00  0.00    +0.000 A 
ATOM     18  C   UNL     1       9.427  10.382  19.561  0.00  0.00    +0.000 A 
ATOM     19  C   UNL     1      10.092  10.946  18.454  0.00  0.00    +0.000 A 
ATOM     20  C   UNL     1      10.785  12.177  18.534  0.00  0.00    +0.000 A 
ATOM     21 CL   UNL     1      11.667  12.648  17.134  0.00  0.00    +0.000 Cl
BRANCH  15  23
ATOM     22  C   UNL     1      10.946  15.289  19.586  0.00  0.00    +0.000 C 
ATOM     23  O   UNL     1      11.474  14.047  20.028  0.00  0.00    +0.000 OA
ENDBRANCH  15  23
BRANCH  17  24
ATOM     24  O   UNL     1       8.658  10.674  21.813  0.00  0.00    +0.000 OA
ATOM     25  C   UNL     1       8.208  11.640  22.759  0.00  0.00    +0.000 C 
ENDBRANCH  17  24
ENDBRANCH   1  18
TORSDOF 3
ENDMDL
MODEL 6
REMARK VINA RESULT:      -6.6      2.412      3.413
REMARK  Name = 
REMARK  5 active torsions:
REMARK  status: ('A' for Active; 'I' for Inactive)
REMARK    1  A    between atoms: C_1  and  O_2
REMARK    2  A    between atoms: O_2  and  C_3
REMARK    3  A    between atoms: C_5  and  O_6
REMARK    4  A    between atoms: O_6  and  C_7
REMARK    5  A    between atoms: C_8  and  N_9
REMARK                            x       y       z     vdW  Elec       q    Type
REMARK                         _______ _______ _______ _____ _____    ______ ____
ROOT
ATOM      1  N   UNL     1       2.380   7.773  18.337  0.00  0.00    +0.000 N 
ATOM      2  C   UNL     1       1.770   8.576  19.291  0.00  0.00    +0.000 C 
ATOM      3  O   UNL     1       1.466   8.336  20.444  0.00  0.00    +0.000 OA
ATOM      4  N   UNL     1       1.440   9.872  18.756  0.00  0.00    +0.000 N 
ATOM      5  N   UNL     1       2.194  10.443  17.759  0.00  0.00    +0.000 NA
ATOM      6  C   UNL     1       2.146  11.751  18.085  0.00  0.00    +0.000 A 
ATOM      7  C   UNL     1       1.208  12.025  19.108  0.00  0.00    +0.000 A 
ATOM      8  C   UNL     1       0.785  13.151  19.849  0.00  0.00    +0.000 A 
ATOM      9  C   UNL     1      -0.410  13.046  20.570  0.00  0.00    +0.000 A 
ATOM     10 CL   UNL     1      -0.934  14.369  21.542  0.00  0.00    +0.000 Cl
ATOM     11  C   UNL     1      -1.192  11.893  20.506  0.00  0.00    +0.000 A 
ATOM     12  C   UNL     1      -0.708  10.734  19.885  0.00  0.00    +0.000 A 
ATOM     13  C   UNL     1       0.551  10.812  19.270  0.00  0.00    +0.000 A 
ATOM     14  H   UNL     1       2.273   8.107  17.385  0.00  0.00    +0.000 HD
ENDROOT
BRANCH   1  18
ATOM     15  C   UNL     1       3.563   3.697  19.066  0.00  0.00    +0.000 A 
ATOM     16  C   UNL     1       4.248   4.463  18.105  0.00  0.00    +0.000 A 
ATOM     17  C   UNL     1       3.893   5.793  17.796  0.00  0.00    +0.000 A 
ATOM     18  C   UNL     1       2.850   6.427  18.502  0.00  0.00    +0.000 A 
ATOM     19  C   UNL     1       2.145   5.650  19.441  0.00  0.00    +0.000 A 
ATOM     20  C   UNL     1       2.502   4.312  19.738  0.00  0.00    +0.000 A 
ATOM     21 CL   UNL     1       1.633   3.556  21.015  0.00  0.00    +0.000 Cl
BRANCH  15  23
ATOM     22  C   UNL     1       3.641   1.375  18.499  0.00  0.00    +0.000 C 
ATOM     23  O   UNL     1       4.112   2.470  19.270  0.00  0.00    +0.000 OA
ENDBRANCH  15  23
BRANCH  17  24
ATOM     24  O   UNL     1       4.518   6.488  16.781  0.00  0.00    +0.000 OA
ATOM     25  C   UNL     1       5.516   5.791  16.040  0.00  0.00    +0.000 C 
ENDBRANCH  17  24
ENDBRANCH   1  18
TORSDOF 3
ENDMDL
MODEL 7
REMARK VINA RESULT:      -6.6      1.837      2.289
REMARK  Name = 
REMARK  5 active torsions:
REMARK  status: ('A' for Active; 'I' for Inactive)
REMARK    1  A    between atoms: C_1  and  O_2
REMARK    2  A    between atoms: O_2  and  C_3
REMARK    3  A    between atoms: C_5  and  O_6
REMARK    4  A    between atoms: O_6  and  C_7
REMARK    5  A    between atoms: C_8  and  N_9
REMARK                            x       y       z     vdW  Elec       q    Type
REMARK                         _______ _______ _______ _____ _____    ______ ____
ROOT
ATOM      1  N   UNL     1       1.932   8.102  19.415  0.00  0.00    +0.000 N 
ATOM      2  C   UNL     1       1.783   9.326  18.777  0.00  0.00    +0.000 C 
ATOM      3  O   UNL     1       2.135   9.685  17.670  0.00  0.00    +0.000 OA
ATOM      4  N   UNL     1       1.132  10.288  19.629  0.00  0.00    +0.000 N 
ATOM      5  N   UNL     1       0.223   9.894  20.581  0.00  0.00    +0.000 NA
ATOM      6  C   UNL     1      -0.664  10.910  20.560  0.00  0.00    +0.000 A 
ATOM      7  C   UNL     1      -0.212  12.014  19.797  0.00  0.00    +0.000 A 
ATOM      8  C   UNL     1      -0.715  13.273  19.403  0.00  0.00    +0.000 A 
ATOM      9  C   UNL     1       0.194  14.208  18.893  0.00  0.00    +0.000 A 
ATOM     10 CL   UNL     1      -0.380  15.734  18.336  0.00  0.00    +0.000 Cl
ATOM     11  C   UNL     1       1.560  13.930  18.839  0.00  0.00    +0.000 A 
ATOM     12  C   UNL     1       2.039  12.640  19.101  0.00  0.00    +0.000 A 
ATOM     13  C   UNL     1       1.099  11.673  19.492  0.00  0.00    +0.000 A 
ATOM     14  H   UNL     1       1.804   8.140  20.420  0.00  0.00    +0.000 HD
ENDROOT
BRANCH   1  18
ATOM     15  C   UNL     1       3.881   4.715  17.605  0.00  0.00    +0.000 A 
ATOM     16  C   UNL     1       2.974   4.518  18.662  0.00  0.00    +0.000 A 
ATOM     17  C   UNL     1       2.326   5.584  19.319  0.00  0.00    +0.000 A 
ATOM     18  C   UNL     1       2.529   6.910  18.883  0.00  0.00    +0.000 A 
ATOM     19  C   UNL     1       3.460   7.109  17.845  0.00  0.00    +0.000 A 
ATOM     20  C   UNL     1       4.114   6.032  17.198  0.00  0.00    +0.000 A 
ATOM     21 CL   UNL     1       5.106   6.440  15.854  0.00  0.00    +0.000 Cl
BRANCH  15  23
ATOM     22  C   UNL     1       3.769   2.328  17.498  0.00  0.00    +0.000 C 
ATOM     23  O   UNL     1       4.333   3.555  17.058  0.00  0.00    +0.000 OA
ENDBRANCH  15  23
BRANCH  17  24
ATOM     24  O   UNL     1       1.517   5.370  20.416  0.00  0.00    +0.000 OA
ATOM     25  C   UNL     1       1.145   4.022  20.691  0.00  0.00    +0.000 C 
ENDBRANCH  17  24
ENDBRANCH   1  18
TORSDOF 3
ENDMDL
MODEL 8
REMARK VINA RESULT:      -6.5      2.684      3.372
REMARK  Name = 
REMARK  5 active torsions:
REMARK  status: ('A' for Active; 'I' for Inactive)
REMARK    1  A    between atoms: C_1  and  O_2
REMARK    2  A    between atoms: O_2  and  C_3
REMARK    3  A    between atoms: C_5  and  O_6
REMARK    4  A    between atoms: O_6  and  C_7
REMARK    5  A    between atoms: C_8  and  N_9
REMARK                            x       y       z     vdW  Elec       q    Type
REMARK                         _______ _______ _______ _____ _____    ______ ____
ROOT
ATOM      1  N   UNL     1       1.695   7.579  20.986  0.00  0.00    +0.000 N 
ATOM      2  C   UNL     1       1.118   8.699  20.403  0.00  0.00    +0.000 C 
ATOM      3  O   UNL     1       0.870   8.940  19.237  0.00  0.00    +0.000 OA
ATOM      4  N   UNL     1       0.822   9.710  21.385  0.00  0.00    +0.000 N 
ATOM      5  N   UNL     1       0.512   9.374  22.681  0.00  0.00    +0.000 NA
ATOM      6  C   UNL     1      -0.401  10.312  23.004  0.00  0.00    +0.000 A 
ATOM      7  C   UNL     1      -0.494  11.340  22.036  0.00  0.00    +0.000 A 
ATOM      8  C   UNL     1      -1.273  12.500  21.831  0.00  0.00    +0.000 A 
ATOM      9  C   UNL     1      -0.827  13.427  20.882  0.00  0.00    +0.000 A 
ATOM     10 CL   UNL     1      -1.777  14.826  20.548  0.00  0.00    +0.000 Cl
ATOM     11  C   UNL     1       0.382  13.245  20.210  0.00  0.00    +0.000 A 
ATOM     12  C   UNL     1       1.083  12.037  20.312  0.00  0.00    +0.000 A 
ATOM     13  C   UNL     1       0.558  11.061  21.174  0.00  0.00    +0.000 A 
ATOM     14  H   UNL     1       2.043   7.733  21.926  0.00  0.00    +0.000 HD
ENDROOT
BRANCH   1  18
ATOM     15  C   UNL     1       2.816   3.801  19.248  0.00  0.00    +0.000 A 
ATOM     16  C   UNL     1       3.242   5.001  18.650  0.00  0.00    +0.000 A 
ATOM     17  C   UNL     1       2.886   6.271  19.149  0.00  0.00    +0.000 A 
ATOM     18  C   UNL     1       2.120   6.376  20.328  0.00  0.00    +0.000 A 
ATOM     19  C   UNL     1       1.668   5.175  20.909  0.00  0.00    +0.000 A 
ATOM     20  C   UNL     1       2.023   3.904  20.395  0.00  0.00    +0.000 A 
ATOM     21 CL   UNL     1       1.511   2.541  21.310  0.00  0.00    +0.000 Cl
BRANCH  15  23
ATOM     22  C   UNL     1       2.618   2.085  17.594  0.00  0.00    +0.000 C 
ATOM     23  O   UNL     1       3.335   2.690  18.660  0.00  0.00    +0.000 OA
ENDBRANCH  15  23
BRANCH  17  24
ATOM     24  O   UNL     1       3.235   7.429  18.486  0.00  0.00    +0.000 OA
ATOM     25  C   UNL     1       4.112   7.297  17.371  0.00  0.00    +0.000 C 
ENDBRANCH  17  24
ENDBRANCH   1  18
TORSDOF 3
ENDMDL
MODEL 9
REMARK VINA RESULT:      -6.5      2.312      3.103
REMARK  Name = 
REMARK  5 active torsions:
REMARK  status: ('A' for Active; 'I' for Inactive)
REMARK    1  A    between atoms: C_1  and  O_2
REMARK    2  A    between atoms: O_2  and  C_3
REMARK    3  A    between atoms: C_5  and  O_6
REMARK    4  A    between atoms: O_6  and  C_7
REMARK    5  A    between atoms: C_8  and  N_9
REMARK                            x       y       z     vdW  Elec       q    Type
REMARK                         _______ _______ _______ _____ _____    ______ ____
ROOT
ATOM      1  N   UNL     1       2.129   7.552  19.447  0.00  0.00    +0.000 N 
ATOM      2  C   UNL     1       1.715   8.702  18.789  0.00  0.00    +0.000 C 
ATOM      3  O   UNL     1       1.552   8.915  17.603  0.00  0.00    +0.000 OA
ATOM      4  N   UNL     1       1.493   9.785  19.711  0.00  0.00    +0.000 N 
ATOM      5  N   UNL     1       1.086   9.548  21.003  0.00  0.00    +0.000 NA
ATOM      6  C   UNL     1       0.274  10.599  21.239  0.00  0.00    +0.000 A 
ATOM      7  C   UNL     1       0.348  11.585  20.226  0.00  0.00    +0.000 A 
ATOM      8  C   UNL     1      -0.280  12.815  19.933  0.00  0.00    +0.000 A 
ATOM      9  C   UNL     1       0.315  13.639  18.971  0.00  0.00    +0.000 A 
ATOM     10 CL   UNL     1      -0.449  15.120  18.531  0.00  0.00    +0.000 Cl
ATOM     11  C   UNL     1       1.525  13.288  18.371  0.00  0.00    +0.000 A 
ATOM     12  C   UNL     1       2.074  12.014  18.559  0.00  0.00    +0.000 A 
ATOM     13  C   UNL     1       1.399  11.146  19.432  0.00  0.00    +0.000 A 
ATOM     14  H   UNL     1       2.448   7.710  20.397  0.00  0.00    +0.000 HD
ENDROOT
BRANCH   1  18
ATOM     15  C   UNL     1       2.813   3.607  17.860  0.00  0.00    +0.000 A 
ATOM     16  C   UNL     1       3.669   4.664  17.500  0.00  0.00    +0.000 A 
ATOM     17  C   UNL     1       3.483   5.985  17.959  0.00  0.00    +0.000 A 
ATOM     18  C   UNL     1       2.441   6.279  18.863  0.00  0.00    +0.000 A 
ATOM     19  C   UNL     1       1.567   5.227  19.198  0.00  0.00    +0.000 A 
ATOM     20  C   UNL     1       1.755   3.905  18.724  0.00  0.00    +0.000 A 
ATOM     21 CL   UNL     1       0.685   2.713  19.348  0.00  0.00    +0.000 Cl
BRANCH  15  23
ATOM     22  C   UNL     1       3.679   1.420  18.291  0.00  0.00    +0.000 C 
ATOM     23  O   UNL     1       3.212   2.401  17.377  0.00  0.00    +0.000 OA
ENDBRANCH  15  23
BRANCH  17  24
ATOM     24  O   UNL     1       4.278   7.020  17.512  0.00  0.00    +0.000 OA
ATOM     25  C   UNL     1       5.292   6.695  16.565  0.00  0.00    +0.000 C 
ENDBRANCH  17  24
ENDBRANCH   1  18
TORSDOF 3
ENDMDL
