MODEL 1
REMARK VINA RESULT:      -7.2      0.000      0.000
REMARK  Name = 
REMARK  5 active torsions:
REMARK  status: ('A' for Active; 'I' for Inactive)
REMARK    1  A    between atoms: C_1  and  O_2
REMARK    2  A    between atoms: O_2  and  C_3
REMARK    3  A    between atoms: C_9  and  N_10
REMARK    4  A    between atoms: N_10  and  S_11
REMARK    5  A    between atoms: S_11  and  C_14
REMARK                            x       y       z     vdW  Elec       q    Type
REMARK                         _______ _______ _______ _____ _____    ______ ____
ROOT
ATOM      1  N   UNL     1       4.520   2.757  17.889  0.00  0.00    +0.000 N 
ATOM      2  H   UNL     1       4.823   2.242  18.716  0.00  0.00    +0.000 HD
ENDROOT
BRANCH   1   9
ATOM      3  C   UNL     1       5.569   4.682  16.671  0.00  0.00    +0.000 A 
ATOM      4  N   UNL     1       6.370   5.778  16.697  0.00  0.00    +0.000 NA
ATOM      5  C   UNL     1       6.802   6.161  17.919  0.00  0.00    +0.000 A 
ATOM      6 BR   UNL     1       7.970   7.644  18.034  0.00  0.00    +0.000 Br
ATOM      7  C   UNL     1       6.437   5.480  19.073  0.00  0.00    +0.000 A 
ATOM      8  N   UNL     1       5.681   4.352  19.056  0.00  0.00    +0.000 NA
ATOM      9  C   UNL     1       5.260   3.967  17.834  0.00  0.00    +0.000 A 
BRANCH   3  11
ATOM     10  C   UNL     1       6.144   4.017  14.503  0.00  0.00    +0.000 C 
ATOM     11  O   UNL     1       5.103   4.239  15.454  0.00  0.00    +0.000 OA
ENDBRANCH   3  11
ENDBRANCH   1   9
BRANCH   1  12
ATOM     12  S   UNL     1       2.842   2.938  18.018  0.00  0.00    +0.000 S 
ATOM     13  O   UNL     1       2.387   3.344  16.705  0.00  0.00    +0.000 OA
ATOM     14  O   UNL     1       2.298   1.768  18.666  0.00  0.00    +0.000 OA
BRANCH  12  15
ATOM     15  C   UNL     1       2.495   4.333  19.045  0.00  0.00    +0.000 A 
ATOM     16  S   UNL     1       2.507   5.872  18.285  0.00  0.00    +0.000 S 
ATOM     17  C   UNL     1       2.048   6.642  19.719  0.00  0.00    +0.000 A 
ATOM     18 CL   UNL     1       1.764   8.334  19.718  0.00  0.00    +0.000 Cl
ATOM     19  C   UNL     1       1.933   5.792  20.786  0.00  0.00    +0.000 A 
ATOM     20  C   UNL     1       2.218   4.460  20.389  0.00  0.00    +0.000 A 
ATOM     21 BR   UNL     1       2.136   3.043  21.637  0.00  0.00    +0.000 Br
ENDBRANCH  12  15
ENDBRANCH   1  12
TORSDOF 4
ENDMDL
MODEL 2
REMARK VINA RESULT:      -6.9      3.090      3.837
REMARK  Name = 
REMARK  5 active torsions:
REMARK  status: ('A' for Active; 'I' for Inactive)
REMARK    1  A    between atoms: C_1  and  O_2
REMARK    2  A    between atoms: O_2  and  C_3
REMARK    3  A    between atoms: C_9  and  N_10
REMARK    4  A    between atoms: N_10  and  S_11
REMARK    5  A    between atoms: S_11  and  C_14
REMARK                            x       y       z     vdW  Elec       q    Type
REMARK                         _______ _______ _______ _____ _____    ______ ____
ROOT
ATOM      1  N   UNL     1       5.519   4.053  17.869  0.00  0.00    +0.000 N 
ATOM      2  H   UNL     1       6.234   3.649  18.475  0.00  0.00    +0.000 HD
ENDROOT
BRANCH   1   9
ATOM      3  C   UNL     1       7.199   5.156  16.370  0.00  0.00    +0.000 A 
ATOM      4  N   UNL     1       7.641   5.421  15.114  0.00  0.00    +0.000 NA
ATOM      5  C   UNL     1       6.999   4.772  14.116  0.00  0.00    +0.000 A 
ATOM      6 BR   UNL     1       7.516   5.133  12.334  0.00  0.00    +0.000 Br
ATOM      7  C   UNL     1       5.963   3.883  14.367  0.00  0.00    +0.000 A 
ATOM      8  N   UNL     1       5.477   3.649  15.613  0.00  0.00    +0.000 NA
ATOM      9  C   UNL     1       6.112   4.307  16.605  0.00  0.00    +0.000 A 
BRANCH   3  11
ATOM     10  C   UNL     1       7.747   7.216  17.334  0.00  0.00    +0.000 C 
ATOM     11  O   UNL     1       7.808   5.794  17.427  0.00  0.00    +0.000 OA
ENDBRANCH   3  11
ENDBRANCH   1   9
BRANCH   1  12
ATOM     12  S   UNL     1       4.915   5.414  18.674  0.00  0.00    +0.000 S 
ATOM     13  O   UNL     1       5.895   5.738  19.690  0.00  0.00    +0.000 OA
ATOM     14  O   UNL     1       4.507   6.391  17.693  0.00  0.00    +0.000 OA
BRANCH  12  15
ATOM     15  C   UNL     1       3.482   4.944  19.594  0.00  0.00    +0.000 A 
ATOM     16  S   UNL     1       3.374   3.297  20.067  0.00  0.00    +0.000 S 
ATOM     17  C   UNL     1       1.931   3.576  20.904  0.00  0.00    +0.000 A 
ATOM     18 CL   UNL     1       1.197   2.294  21.776  0.00  0.00    +0.000 Cl
ATOM     19  C   UNL     1       1.480   4.865  20.804  0.00  0.00    +0.000 A 
ATOM     20  C   UNL     1       2.374   5.643  20.022  0.00  0.00    +0.000 A 
ATOM     21 BR   UNL     1       2.035   7.474  19.704  0.00  0.00    +0.000 Br
ENDBRANCH  12  15
ENDBRANCH   1  12
TORSDOF 4
ENDMDL
MODEL 3
REMARK VINA RESULT:      -6.7      1.883      2.569
REMARK  Name = 
REMARK  5 active torsions:
REMARK  status: ('A' for Active; 'I' for Inactive)
REMARK    1  A    between atoms: C_1  and  O_2
REMARK    2  A    between atoms: O_2  and  C_3
REMARK    3  A    between atoms: C_9  and  N_10
REMARK    4  A    between atoms: N_10  and  S_11
REMARK    5  A    between atoms: S_11  and  C_14
REMARK                            x       y       z     vdW  Elec       q    Type
REMARK                         _______ _______ _______ _____ _____    ______ ____
ROOT
ATOM      1  N   UNL     1       5.518   3.934  18.185  0.00  0.00    +0.000 N 
ATOM      2  H   UNL     1       5.627   4.711  18.839  0.00  0.00    +0.000 HD
ENDROOT
BRANCH   1   9
ATOM      3  C   UNL     1       6.991   5.400  16.783  0.00  0.00    +0.000 A 
ATOM      4  N   UNL     1       7.474   5.735  15.558  0.00  0.00    +0.000 NA
ATOM      5  C   UNL     1       7.131   4.907  14.546  0.00  0.00    +0.000 A 
ATOM      6 BR   UNL     1       7.714   5.337  12.799  0.00  0.00    +0.000 Br
ATOM      7  C   UNL     1       6.346   3.780  14.753  0.00  0.00    +0.000 A 
ATOM      8  N   UNL     1       5.814   3.463  15.961  0.00  0.00    +0.000 NA
ATOM      9  C   UNL     1       6.149   4.298  16.968  0.00  0.00    +0.000 A 
BRANCH   3  11
ATOM     10  C   UNL     1       7.553   7.562  17.475  0.00  0.00    +0.000 C 
ATOM     11  O   UNL     1       7.299   6.210  17.852  0.00  0.00    +0.000 OA
ENDBRANCH   3  11
ENDBRANCH   1   9
BRANCH   1  12
ATOM     12  S   UNL     1       3.858   3.622  18.079  0.00  0.00    +0.000 S 
ATOM     13  O   UNL     1       3.459   4.058  16.757  0.00  0.00    +0.000 OA
ATOM     14  O   UNL     1       3.610   2.271  18.523  0.00  0.00    +0.000 OA
BRANCH  12  15
ATOM     15  C   UNL     1       3.000   4.714  19.170  0.00  0.00    +0.000 A 
ATOM     16  S   UNL     1       3.021   6.383  18.765  0.00  0.00    +0.000 S 
ATOM     17  C   UNL     1       2.022   6.767  20.075  0.00  0.00    +0.000 A 
ATOM     18 CL   UNL     1       1.504   8.387  20.297  0.00  0.00    +0.000 Cl
ATOM     19  C   UNL     1       1.704   5.689  20.857  0.00  0.00    +0.000 A 
ATOM     20  C   UNL     1       2.296   4.509  20.337  0.00  0.00    +0.000 A 
ATOM     21 BR   UNL     1       2.037   2.843  21.189  0.00  0.00    +0.000 Br
ENDBRANCH  12  15
ENDBRANCH   1  12
TORSDOF 4
ENDMDL
MODEL 4
REMARK VINA RESULT:      -6.6      3.100      5.346
REMARK  Name = 
REMARK  5 active torsions:
REMARK  status: ('A' for Active; 'I' for Inactive)
REMARK    1  A    between atoms: C_1  and  O_2
REMARK    2  A    between atoms: O_2  and  C_3
REMARK    3  A    between atoms: C_9  and  N_10
REMARK    4  A    between atoms: N_10  and  S_11
REMARK    5  A    between atoms: S_11  and  C_14
REMARK                            x       y       z     vdW  Elec       q    Type
REMARK                         _______ _______ _______ _____ _____    ______ ____
ROOT
ATOM      1  N   UNL     1       2.669   4.024  17.947  0.00  0.00    +0.000 N 
ATOM      2  H   UNL     1       2.648   4.435  17.013  0.00  0.00    +0.000 HD
ENDROOT
BRANCH   1   9
ATOM      3  C   UNL     1       1.666   4.861  20.088  0.00  0.00    +0.000 A 
ATOM      4  N   UNL     1       1.309   5.908  20.874  0.00  0.00    +0.000 NA
ATOM      5  C   UNL     1       1.699   7.128  20.441  0.00  0.00    +0.000 A 
ATOM      6 BR   UNL     1       1.189   8.643  21.450  0.00  0.00    +0.000 Br
ATOM      7  C   UNL     1       2.430   7.292  19.272  0.00  0.00    +0.000 A 
ATOM      8  N   UNL     1       2.748   6.259  18.449  0.00  0.00    +0.000 NA
ATOM      9  C   UNL     1       2.347   5.045  18.879  0.00  0.00    +0.000 A 
BRANCH   3  11
ATOM     10  C   UNL     1       1.870   3.190  21.712  0.00  0.00    +0.000 C 
ATOM     11  O   UNL     1       1.290   3.594  20.472  0.00  0.00    +0.000 OA
ENDBRANCH   3  11
ENDBRANCH   1   9
BRANCH   1  12
ATOM     12  S   UNL     1       4.200   3.327  18.134  0.00  0.00    +0.000 S 
ATOM     13  O   UNL     1       4.365   3.112  19.556  0.00  0.00    +0.000 OA
ATOM     14  O   UNL     1       4.332   2.237  17.196  0.00  0.00    +0.000 OA
BRANCH  12  15
ATOM     15  C   UNL     1       5.429   4.532  17.735  0.00  0.00    +0.000 A 
ATOM     16  S   UNL     1       6.145   5.369  19.053  0.00  0.00    +0.000 S 
ATOM     17  C   UNL     1       7.188   6.210  18.021  0.00  0.00    +0.000 A 
ATOM     18 CL   UNL     1       8.356   7.277  18.684  0.00  0.00    +0.000 Cl
ATOM     19  C   UNL     1       6.990   5.932  16.695  0.00  0.00    +0.000 A 
ATOM     20  C   UNL     1       5.952   4.976  16.540  0.00  0.00    +0.000 A 
ATOM     21 BR   UNL     1       5.443   4.373  14.823  0.00  0.00    +0.000 Br
ENDBRANCH  12  15
ENDBRANCH   1  12
TORSDOF 4
ENDMDL
MODEL 5
REMARK VINA RESULT:      -6.6      3.033      3.833
REMARK  Name = 
REMARK  5 active torsions:
REMARK  status: ('A' for Active; 'I' for Inactive)
REMARK    1  A    between atoms: C_1  and  O_2
REMARK    2  A    between atoms: O_2  and  C_3
REMARK    3  A    between atoms: C_9  and  N_10
REMARK    4  A    between atoms: N_10  and  S_11
REMARK    5  A    between atoms: S_11  and  C_14
REMARK                            x       y       z     vdW  Elec       q    Type
REMARK                         _______ _______ _______ _____ _____    ______ ____
ROOT
ATOM      1  N   UNL     1       5.667   4.099  17.814  0.00  0.00    +0.000 N 
ATOM      2  H   UNL     1       6.433   3.981  18.479  0.00  0.00    +0.000 HD
ENDROOT
BRANCH   1   9
ATOM      3  C   UNL     1       7.250   5.301  16.285  0.00  0.00    +0.000 A 
ATOM      4  N   UNL     1       7.665   5.576  15.022  0.00  0.00    +0.000 NA
ATOM      5  C   UNL     1       7.072   4.859  14.040  0.00  0.00    +0.000 A 
ATOM      6 BR   UNL     1       7.552   5.225  12.248  0.00  0.00    +0.000 Br
ATOM      7  C   UNL     1       6.110   3.896  14.313  0.00  0.00    +0.000 A 
ATOM      8  N   UNL     1       5.649   3.649  15.566  0.00  0.00    +0.000 NA
ATOM      9  C   UNL     1       6.234   4.374  16.542  0.00  0.00    +0.000 A 
BRANCH   3  11
ATOM     10  C   UNL     1       7.567   7.408  17.249  0.00  0.00    +0.000 C 
ATOM     11  O   UNL     1       7.811   6.005  17.327  0.00  0.00    +0.000 OA
ENDBRANCH   3  11
ENDBRANCH   1   9
BRANCH   1  12
ATOM     12  S   UNL     1       4.666   5.311  18.440  0.00  0.00    +0.000 S 
ATOM     13  O   UNL     1       5.256   5.694  19.707  0.00  0.00    +0.000 OA
ATOM     14  O   UNL     1       4.419   6.289  17.408  0.00  0.00    +0.000 OA
BRANCH  12  15
ATOM     15  C   UNL     1       3.114   4.595  18.887  0.00  0.00    +0.000 A 
ATOM     16  S   UNL     1       2.779   3.030  18.266  0.00  0.00    +0.000 S 
ATOM     17  C   UNL     1       1.310   2.955  19.101  0.00  0.00    +0.000 A 
ATOM     18 CL   UNL     1       0.360   1.529  19.018  0.00  0.00    +0.000 Cl
ATOM     19  C   UNL     1       1.018   4.095  19.802  0.00  0.00    +0.000 A 
ATOM     20  C   UNL     1       2.060   5.048  19.651  0.00  0.00    +0.000 A 
ATOM     21 BR   UNL     1       1.961   6.729  20.507  0.00  0.00    +0.000 Br
ENDBRANCH  12  15
ENDBRANCH   1  12
TORSDOF 4
ENDMDL
MODEL 6
REMARK VINA RESULT:      -6.5      3.555      5.894
REMARK  Name = 
REMARK  5 active torsions:
REMARK  status: ('A' for Active; 'I' for Inactive)
REMARK    1  A    between atoms: C_1  and  O_2
REMARK    2  A    between atoms: O_2  and  C_3
REMARK    3  A    between atoms: C_9  and  N_10
REMARK    4  A    between atoms: N_10  and  S_11
REMARK    5  A    between atoms: S_11  and  C_14
REMARK                            x       y       z     vdW  Elec       q    Type
REMARK                         _______ _______ _______ _____ _____    ______ ____
ROOT
ATOM      1  N   UNL     1       3.223   4.803  18.458  0.00  0.00    +0.000 N 
ATOM      2  H   UNL     1       3.149   5.054  17.472  0.00  0.00    +0.000 HD
ENDROOT
BRANCH   1   9
ATOM      3  C   UNL     1       2.070   5.717  20.488  0.00  0.00    +0.000 A 
ATOM      4  N   UNL     1       1.445   6.753  21.104  0.00  0.00    +0.000 NA
ATOM      5  C   UNL     1       1.460   7.929  20.437  0.00  0.00    +0.000 A 
ATOM      6 BR   UNL     1       0.560   9.405  21.201  0.00  0.00    +0.000 Br
ATOM      7  C   UNL     1       2.087   8.065  19.206  0.00  0.00    +0.000 A 
ATOM      8  N   UNL     1       2.670   7.026  18.555  0.00  0.00    +0.000 NA
ATOM      9  C   UNL     1       2.643   5.851  19.219  0.00  0.00    +0.000 A 
BRANCH   3  11
ATOM     10  C   UNL     1       1.038   3.626  20.670  0.00  0.00    +0.000 C 
ATOM     11  O   UNL     1       2.081   4.492  21.116  0.00  0.00    +0.000 OA
ENDBRANCH   3  11
ENDBRANCH   1   9
BRANCH   1  12
ATOM     12  S   UNL     1       4.862   4.508  18.760  0.00  0.00    +0.000 S 
ATOM     13  O   UNL     1       5.320   5.617  19.571  0.00  0.00    +0.000 OA
ATOM     14  O   UNL     1       5.014   3.144  19.208  0.00  0.00    +0.000 OA
BRANCH  12  15
ATOM     15  C   UNL     1       5.761   4.681  17.248  0.00  0.00    +0.000 A 
ATOM     16  S   UNL     1       5.302   3.649  15.955  0.00  0.00    +0.000 S 
ATOM     17  C   UNL     1       6.421   4.370  14.912  0.00  0.00    +0.000 A 
ATOM     18 CL   UNL     1       6.497   3.868  13.274  0.00  0.00    +0.000 Cl
ATOM     19  C   UNL     1       7.183   5.338  15.509  0.00  0.00    +0.000 A 
ATOM     20  C   UNL     1       6.808   5.493  16.870  0.00  0.00    +0.000 A 
ATOM     21 BR   UNL     1       7.671   6.764  17.970  0.00  0.00    +0.000 Br
ENDBRANCH  12  15
ENDBRANCH   1  12
TORSDOF 4
ENDMDL
MODEL 7
REMARK VINA RESULT:      -6.5      2.652      3.444
REMARK  Name = 
REMARK  5 active torsions:
REMARK  status: ('A' for Active; 'I' for Inactive)
REMARK    1  A    between atoms: C_1  and  O_2
REMARK    2  A    between atoms: O_2  and  C_3
REMARK    3  A    between atoms: C_9  and  N_10
REMARK    4  A    between atoms: N_10  and  S_11
REMARK    5  A    between atoms: S_11  and  C_14
REMARK                            x       y       z     vdW  Elec       q    Type
REMARK                         _______ _______ _______ _____ _____    ______ ____
ROOT
ATOM      1  N   UNL     1       4.931   3.647  17.423  0.00  0.00    +0.000 N 
ATOM      2  H   UNL     1       5.322   3.920  18.326  0.00  0.00    +0.000 HD
ENDROOT
BRANCH   1   9
ATOM      3  C   UNL     1       6.766   5.126  16.566  0.00  0.00    +0.000 A 
ATOM      4  N   UNL     1       7.492   5.590  15.517  0.00  0.00    +0.000 NA
ATOM      5  C   UNL     1       7.263   4.984  14.330  0.00  0.00    +0.000 A 
ATOM      6 BR   UNL     1       8.192   5.613  12.808  0.00  0.00    +0.000 Br
ATOM      7  C   UNL     1       6.352   3.944  14.201  0.00  0.00    +0.000 A 
ATOM      8  N   UNL     1       5.582   3.506  15.230  0.00  0.00    +0.000 NA
ATOM      9  C   UNL     1       5.805   4.121  16.410  0.00  0.00    +0.000 A 
BRANCH   3  11
ATOM     10  C   UNL     1       7.518   7.015  17.721  0.00  0.00    +0.000 C 
ATOM     11  O   UNL     1       6.949   5.710  17.799  0.00  0.00    +0.000 OA
ENDBRANCH   3  11
ENDBRANCH   1   9
BRANCH   1  12
ATOM     12  S   UNL     1       3.356   4.263  17.371  0.00  0.00    +0.000 S 
ATOM     13  O   UNL     1       3.496   5.682  17.118  0.00  0.00    +0.000 OA
ATOM     14  O   UNL     1       2.559   3.427  16.506  0.00  0.00    +0.000 OA
BRANCH  12  15
ATOM     15  C   UNL     1       2.657   4.182  18.992  0.00  0.00    +0.000 A 
ATOM     16  S   UNL     1       2.319   2.615  19.609  0.00  0.00    +0.000 S 
ATOM     17  C   UNL     1       1.806   3.251  21.089  0.00  0.00    +0.000 A 
ATOM     18 CL   UNL     1       1.344   2.186  22.353  0.00  0.00    +0.000 Cl
ATOM     19  C   UNL     1       1.823   4.619  21.134  0.00  0.00    +0.000 A 
ATOM     20  C   UNL     1       2.295   5.149  19.905  0.00  0.00    +0.000 A 
ATOM     21 BR   UNL     1       2.445   7.015  19.652  0.00  0.00    +0.000 Br
ENDBRANCH  12  15
ENDBRANCH   1  12
TORSDOF 4
ENDMDL
MODEL 8
REMARK VINA RESULT:      -6.0      2.100      2.337
REMARK  Name = 
REMARK  5 active torsions:
REMARK  status: ('A' for Active; 'I' for Inactive)
REMARK    1  A    between atoms: C_1  and  O_2
REMARK    2  A    between atoms: O_2  and  C_3
REMARK    3  A    between atoms: C_9  and  N_10
REMARK    4  A    between atoms: N_10  and  S_11
REMARK    5  A    between atoms: S_11  and  C_14
REMARK                            x       y       z     vdW  Elec       q    Type
REMARK                         _______ _______ _______ _____ _____    ______ ____
ROOT
ATOM      1  N   UNL     1       4.771   3.173  17.515  0.00  0.00    +0.000 N 
ATOM      2  H   UNL     1       4.981   2.719  18.405  0.00  0.00    +0.000 HD
ENDROOT
BRANCH   1   9
ATOM      3  C   UNL     1       5.905   5.061  16.314  0.00  0.00    +0.000 A 
ATOM      4  N   UNL     1       6.672   6.180  16.367  0.00  0.00    +0.000 NA
ATOM      5  C   UNL     1       6.958   6.638  17.606  0.00  0.00    +0.000 A 
ATOM      6 BR   UNL     1       8.072   8.158  17.765  0.00  0.00    +0.000 Br
ATOM      7  C   UNL     1       6.484   6.009  18.749  0.00  0.00    +0.000 A 
ATOM      8  N   UNL     1       5.759   4.861  18.712  0.00  0.00    +0.000 NA
ATOM      9  C   UNL     1       5.485   4.399  17.474  0.00  0.00    +0.000 A 
BRANCH   3  11
ATOM     10  C   UNL     1       6.688   4.540  14.173  0.00  0.00    +0.000 C 
ATOM     11  O   UNL     1       5.587   4.541  15.080  0.00  0.00    +0.000 OA
ENDBRANCH   3  11
ENDBRANCH   1   9
BRANCH   1  12
ATOM     12  S   UNL     1       3.087   3.311  17.427  0.00  0.00    +0.000 S 
ATOM     13  O   UNL     1       2.829   4.572  16.764  0.00  0.00    +0.000 OA
ATOM     14  O   UNL     1       2.547   2.074  16.913  0.00  0.00    +0.000 OA
BRANCH  12  15
ATOM     15  C   UNL     1       2.447   3.542  19.057  0.00  0.00    +0.000 A 
ATOM     16  S   UNL     1       1.898   2.137  19.877  0.00  0.00    +0.000 S 
ATOM     17  C   UNL     1       1.545   3.025  21.273  0.00  0.00    +0.000 A 
ATOM     18 CL   UNL     1       0.975   2.212  22.672  0.00  0.00    +0.000 Cl
ATOM     19  C   UNL     1       1.772   4.369  21.140  0.00  0.00    +0.000 A 
ATOM     20  C   UNL     1       2.271   4.660  19.844  0.00  0.00    +0.000 A 
ATOM     21 BR   UNL     1       2.694   6.434  19.349  0.00  0.00    +0.000 Br
ENDBRANCH  12  15
ENDBRANCH   1  12
TORSDOF 4
ENDMDL
MODEL 9
REMARK VINA RESULT:      -6.0      2.361      3.134
REMARK  Name = 
REMARK  5 active torsions:
REMARK  status: ('A' for Active; 'I' for Inactive)
REMARK    1  A    between atoms: C_1  and  O_2
REMARK    2  A    between atoms: O_2  and  C_3
REMARK    3  A    between atoms: C_9  and  N_10
REMARK    4  A    between atoms: N_10  and  S_11
REMARK    5  A    between atoms: S_11  and  C_14
REMARK                            x       y       z     vdW  Elec       q    Type
REMARK                         _______ _______ _______ _____ _____    ______ ____
ROOT
ATOM      1  N   UNL     1       4.873   5.679  17.329  0.00  0.00    +0.000 N 
ATOM      2  H   UNL     1       3.995   6.094  17.016  0.00  0.00    +0.000 HD
ENDROOT
BRANCH   1   9
ATOM      3  C   UNL     1       6.971   5.393  15.985  0.00  0.00    +0.000 A 
ATOM      4  N   UNL     1       7.564   5.057  14.811  0.00  0.00    +0.000 NA
ATOM      5  C   UNL     1       6.746   4.538  13.868  0.00  0.00    +0.000 A 
ATOM      6 BR   UNL     1       7.486   4.100  12.183  0.00  0.00    +0.000 Br
ATOM      7  C   UNL     1       5.389   4.351  14.095  0.00  0.00    +0.000 A 
ATOM      8  N   UNL     1       4.774   4.731  15.244  0.00  0.00    +0.000 NA
ATOM      9  C   UNL     1       5.591   5.259  16.179  0.00  0.00    +0.000 A 
BRANCH   3  11
ATOM     10  C   UNL     1       7.481   7.316  17.216  0.00  0.00    +0.000 C 
ATOM     11  O   UNL     1       7.750   5.934  16.982  0.00  0.00    +0.000 OA
ENDBRANCH   3  11
ENDBRANCH   1   9
BRANCH   1  12
ATOM     12  S   UNL     1       4.466   4.450  18.419  0.00  0.00    +0.000 S 
ATOM     13  O   UNL     1       3.772   3.446  17.640  0.00  0.00    +0.000 OA
ATOM     14  O   UNL     1       5.634   4.113  19.198  0.00  0.00    +0.000 OA
BRANCH  12  15
ATOM     15  C   UNL     1       3.235   5.058  19.531  0.00  0.00    +0.000 A 
ATOM     16  S   UNL     1       2.859   6.730  19.427  0.00  0.00    +0.000 S 
ATOM     17  C   UNL     1       1.656   6.588  20.608  0.00  0.00    +0.000 A 
ATOM     18 CL   UNL     1       0.708   7.957  21.020  0.00  0.00    +0.000 Cl
ATOM     19  C   UNL     1       1.550   5.328  21.133  0.00  0.00    +0.000 A 
ATOM     20  C   UNL     1       2.485   4.455  20.519  0.00  0.00    +0.000 A 
ATOM     21 BR   UNL     1       2.582   2.636  21.020  0.00  0.00    +0.000 Br
ENDBRANCH  12  15
ENDBRANCH   1  12
TORSDOF 4
ENDMDL
