MODEL 1
REMARK VINA RESULT:      -8.7      0.000      0.000
REMARK  Name = 
REMARK  2 active torsions:
REMARK  status: ('A' for Active; 'I' for Inactive)
REMARK    1  A    between atoms: N_8  and  C_9
REMARK    2  A    between atoms: C_20  and  C_21
REMARK                            x       y       z     vdW  Elec       q    Type
REMARK                         _______ _______ _______ _____ _____    ______ ____
ROOT
ATOM      1 BR   UNL     1      -0.376   9.448  22.674  0.00  0.00    +0.000 Br
ATOM      2  C   UNL     1       0.697   9.106  21.154  0.00  0.00    +0.000 A 
ATOM      3  C   UNL     1       0.985  10.125  20.261  0.00  0.00    +0.000 A 
ATOM      4  C   UNL     1       1.761   9.836  19.131  0.00  0.00    +0.000 A 
ATOM      5  C   UNL     1       2.207   8.553  18.839  0.00  0.00    +0.000 A 
ATOM      6  N   UNL     1       2.925   8.369  17.722  0.00  0.00    +0.000 NA
ATOM      7  C   UNL     1       3.349   7.131  17.446  0.00  0.00    +0.000 A 
ATOM      8  N   UNL     1       4.113   6.954  16.289  0.00  0.00    +0.000 N 
ATOM      9  N   UNL     1       3.046   6.070  18.196  0.00  0.00    +0.000 NA
ATOM     10  C   UNL     1       2.296   6.236  19.307  0.00  0.00    +0.000 A 
ATOM     11  C   UNL     1       1.882   7.515  19.723  0.00  0.00    +0.000 A 
ATOM     12  C   UNL     1       1.169   7.827  20.918  0.00  0.00    +0.000 A 
ATOM     13  H   UNL     1       4.274   7.843  15.843  0.00  0.00    +0.000 HD
ENDROOT
BRANCH   8  14
ATOM     14  C   UNL     1       5.138   5.999  16.069  0.00  0.00    +0.000 A 
ATOM     15  C   UNL     1       5.215   5.309  14.849  0.00  0.00    +0.000 A 
ATOM     16  C   UNL     1       6.211   4.366  14.611  0.00  0.00    +0.000 A 
ATOM     17  C   UNL     1       7.155   4.096  15.595  0.00  0.00    +0.000 A 
ATOM     18  C   UNL     1       7.116   4.764  16.826  0.00  0.00    +0.000 A 
ATOM     19  C   UNL     1       8.097   4.497  17.796  0.00  0.00    +0.000 A 
ATOM     20  C   UNL     1       8.094   5.163  19.020  0.00  0.00    +0.000 A 
ATOM     21  C   UNL     1       7.105   6.101  19.292  0.00  0.00    +0.000 A 
ATOM     22  C   UNL     1       6.118   6.375  18.338  0.00  0.00    +0.000 A 
ATOM     23  C   UNL     1       6.097   5.720  17.085  0.00  0.00    +0.000 A 
ENDBRANCH   8  14
BRANCH  10  24
ATOM     24  C   UNL     1       1.950   4.949  19.970  0.00  0.00    +0.000 A 
ATOM     25  C   UNL     1       2.532   4.600  21.203  0.00  0.00    +0.000 A 
ATOM     26  C   UNL     1       2.228   3.395  21.846  0.00  0.00    +0.000 A 
ATOM     27  C   UNL     1       1.317   2.513  21.276  0.00  0.00    +0.000 A 
ATOM     28  C   UNL     1       0.750   2.813  20.043  0.00  0.00    +0.000 A 
ATOM     29  C   UNL     1       1.096   3.996  19.385  0.00  0.00    +0.000 A 
ENDBRANCH  10  24
TORSDOF 2
ENDMDL
MODEL 2
REMARK VINA RESULT:      -8.4      3.247      6.652
REMARK  Name = 
REMARK  2 active torsions:
REMARK  status: ('A' for Active; 'I' for Inactive)
REMARK    1  A    between atoms: N_8  and  C_9
REMARK    2  A    between atoms: C_20  and  C_21
REMARK                            x       y       z     vdW  Elec       q    Type
REMARK                         _______ _______ _______ _____ _____    ______ ____
ROOT
ATOM      1 BR   UNL     1      -2.525  14.848  22.931  0.00  0.00    +0.000 Br
ATOM      2  C   UNL     1      -1.796  13.125  22.656  0.00  0.00    +0.000 A 
ATOM      3  C   UNL     1      -2.241  12.051  23.411  0.00  0.00    +0.000 A 
ATOM      4  C   UNL     1      -1.665  10.792  23.202  0.00  0.00    +0.000 A 
ATOM      5  C   UNL     1      -0.622  10.585  22.307  0.00  0.00    +0.000 A 
ATOM      6  N   UNL     1      -0.119   9.348  22.192  0.00  0.00    +0.000 NA
ATOM      7  C   UNL     1       0.886   9.157  21.330  0.00  0.00    +0.000 A 
ATOM      8  N   UNL     1       1.390   7.860  21.204  0.00  0.00    +0.000 N 
ATOM      9  N   UNL     1       1.443  10.145  20.626  0.00  0.00    +0.000 NA
ATOM     10  C   UNL     1       0.967  11.402  20.757  0.00  0.00    +0.000 A 
ATOM     11  C   UNL     1      -0.146  11.680  21.572  0.00  0.00    +0.000 A 
ATOM     12  C   UNL     1      -0.793  12.941  21.720  0.00  0.00    +0.000 A 
ATOM     13  H   UNL     1       0.858   7.226  21.779  0.00  0.00    +0.000 HD
ENDROOT
BRANCH   8  14
ATOM     14  C   UNL     1       1.956   7.263  20.049  0.00  0.00    +0.000 A 
ATOM     15  C   UNL     1       2.305   8.051  18.940  0.00  0.00    +0.000 A 
ATOM     16  C   UNL     1       2.861   7.487  17.795  0.00  0.00    +0.000 A 
ATOM     17  C   UNL     1       3.081   6.115  17.740  0.00  0.00    +0.000 A 
ATOM     18  C   UNL     1       2.750   5.293  18.825  0.00  0.00    +0.000 A 
ATOM     19  C   UNL     1       3.008   3.913  18.759  0.00  0.00    +0.000 A 
ATOM     20  C   UNL     1       2.709   3.076  19.832  0.00  0.00    +0.000 A 
ATOM     21  C   UNL     1       2.142   3.608  20.983  0.00  0.00    +0.000 A 
ATOM     22  C   UNL     1       1.875   4.979  21.064  0.00  0.00    +0.000 A 
ATOM     23  C   UNL     1       2.171   5.855  19.994  0.00  0.00    +0.000 A 
ENDBRANCH   8  14
BRANCH  10  24
ATOM     24  C   UNL     1       1.763  12.404  19.997  0.00  0.00    +0.000 A 
ATOM     25  C   UNL     1       1.890  12.306  18.598  0.00  0.00    +0.000 A 
ATOM     26  C   UNL     1       2.636  13.232  17.860  0.00  0.00    +0.000 A 
ATOM     27  C   UNL     1       3.262  14.292  18.504  0.00  0.00    +0.000 A 
ATOM     28  C   UNL     1       3.184  14.398  19.887  0.00  0.00    +0.000 A 
ATOM     29  C   UNL     1       2.477  13.442  20.622  0.00  0.00    +0.000 A 
ENDBRANCH  10  24
TORSDOF 2
ENDMDL
MODEL 3
REMARK VINA RESULT:      -8.1      2.807      6.635
REMARK  Name = 
REMARK  2 active torsions:
REMARK  status: ('A' for Active; 'I' for Inactive)
REMARK    1  A    between atoms: N_8  and  C_9
REMARK    2  A    between atoms: C_20  and  C_21
REMARK                            x       y       z     vdW  Elec       q    Type
REMARK                         _______ _______ _______ _____ _____    ______ ____
ROOT
ATOM      1 BR   UNL     1       5.878   2.908  15.480  0.00  0.00    +0.000 Br
ATOM      2  C   UNL     1       5.127   4.559  16.015  0.00  0.00    +0.000 A 
ATOM      3  C   UNL     1       5.608   5.747  15.489  0.00  0.00    +0.000 A 
ATOM      4  C   UNL     1       5.048   6.955  15.923  0.00  0.00    +0.000 A 
ATOM      5  C   UNL     1       4.066   7.015  16.904  0.00  0.00    +0.000 A 
ATOM      6  N   UNL     1       3.608   8.220  17.272  0.00  0.00    +0.000 NA
ATOM      7  C   UNL     1       2.664   8.270  18.219  0.00  0.00    +0.000 A 
ATOM      8  N   UNL     1       2.179   9.529  18.580  0.00  0.00    +0.000 N 
ATOM      9  N   UNL     1       2.203   7.187  18.849  0.00  0.00    +0.000 NA
ATOM     10  C   UNL     1       2.681   5.970  18.512  0.00  0.00    +0.000 A 
ATOM     11  C   UNL     1       3.608   5.815  17.465  0.00  0.00    +0.000 A 
ATOM     12  C   UNL     1       4.113   4.582  16.958  0.00  0.00    +0.000 A 
ATOM     13  H   UNL     1       2.605  10.240  18.006  0.00  0.00    +0.000 HD
ENDROOT
BRANCH   8  14
ATOM     14  C   UNL     1       0.877   9.854  19.037  0.00  0.00    +0.000 A 
ATOM     15  C   UNL     1      -0.128  10.212  18.124  0.00  0.00    +0.000 A 
ATOM     16  C   UNL     1      -1.414  10.536  18.550  0.00  0.00    +0.000 A 
ATOM     17  C   UNL     1      -1.719  10.505  19.905  0.00  0.00    +0.000 A 
ATOM     18  C   UNL     1      -0.747  10.151  20.850  0.00  0.00    +0.000 A 
ATOM     19  C   UNL     1      -1.085  10.099  22.213  0.00  0.00    +0.000 A 
ATOM     20  C   UNL     1      -0.143   9.728  23.171  0.00  0.00    +0.000 A 
ATOM     21  C   UNL     1       1.151   9.411  22.778  0.00  0.00    +0.000 A 
ATOM     22  C   UNL     1       1.505   9.463  21.425  0.00  0.00    +0.000 A 
ATOM     23  C   UNL     1       0.571   9.830  20.429  0.00  0.00    +0.000 A 
ENDBRANCH   8  14
BRANCH  10  24
ATOM     24  C   UNL     1       2.154   4.881  19.379  0.00  0.00    +0.000 A 
ATOM     25  C   UNL     1       2.577   4.764  20.717  0.00  0.00    +0.000 A 
ATOM     26  C   UNL     1       2.101   3.748  21.553  0.00  0.00    +0.000 A 
ATOM     27  C   UNL     1       1.174   2.829  21.074  0.00  0.00    +0.000 A 
ATOM     28  C   UNL     1       0.763   2.897  19.748  0.00  0.00    +0.000 A 
ATOM     29  C   UNL     1       1.279   3.886  18.906  0.00  0.00    +0.000 A 
ENDBRANCH  10  24
TORSDOF 2
ENDMDL
MODEL 4
REMARK VINA RESULT:      -8.0      5.593     10.121
REMARK  Name = 
REMARK  2 active torsions:
REMARK  status: ('A' for Active; 'I' for Inactive)
REMARK    1  A    between atoms: N_8  and  C_9
REMARK    2  A    between atoms: C_20  and  C_21
REMARK                            x       y       z     vdW  Elec       q    Type
REMARK                         _______ _______ _______ _____ _____    ______ ____
ROOT
ATOM      1 BR   UNL     1       5.088  14.559  18.060  0.00  0.00    +0.000 Br
ATOM      2  C   UNL     1       3.234  14.494  18.427  0.00  0.00    +0.000 A 
ATOM      3  C   UNL     1       2.537  15.659  18.704  0.00  0.00    +0.000 A 
ATOM      4  C   UNL     1       1.170  15.577  18.996  0.00  0.00    +0.000 A 
ATOM      5  C   UNL     1       0.494  14.366  19.076  0.00  0.00    +0.000 A 
ATOM      6  N   UNL     1      -0.811  14.385  19.385  0.00  0.00    +0.000 NA
ATOM      7  C   UNL     1      -1.454  13.215  19.463  0.00  0.00    +0.000 A 
ATOM      8  N   UNL     1      -2.818  13.249  19.766  0.00  0.00    +0.000 N 
ATOM      9  N   UNL     1      -0.850  12.036  19.303  0.00  0.00    +0.000 NA
ATOM     10  C   UNL     1       0.471  12.001  19.024  0.00  0.00    +0.000 A 
ATOM     11  C   UNL     1       1.208  13.184  18.835  0.00  0.00    +0.000 A 
ATOM     12  C   UNL     1       2.578  13.276  18.449  0.00  0.00    +0.000 A 
ATOM     13  H   UNL     1      -3.132  14.203  19.837  0.00  0.00    +0.000 HD
ENDROOT
BRANCH   8  14
ATOM     14  C   UNL     1      -3.818  12.337  19.344  0.00  0.00    +0.000 A 
ATOM     15  C   UNL     1      -3.612  11.531  18.213  0.00  0.00    +0.000 A 
ATOM     16  C   UNL     1      -4.581  10.629  17.779  0.00  0.00    +0.000 A 
ATOM     17  C   UNL     1      -5.778  10.515  18.475  0.00  0.00    +0.000 A 
ATOM     18  C   UNL     1      -6.024  11.300  19.610  0.00  0.00    +0.000 A 
ATOM     19  C   UNL     1      -7.230  11.149  20.315  0.00  0.00    +0.000 A 
ATOM     20  C   UNL     1      -7.489  11.899  21.460  0.00  0.00    +0.000 A 
ATOM     21  C   UNL     1      -6.548  12.816  21.911  0.00  0.00    +0.000 A 
ATOM     22  C   UNL     1      -5.343  12.982  21.217  0.00  0.00    +0.000 A 
ATOM     23  C   UNL     1      -5.048  12.231  20.056  0.00  0.00    +0.000 A 
ENDBRANCH   8  14
BRANCH  10  24
ATOM     24  C   UNL     1       1.018  10.617  18.988  0.00  0.00    +0.000 A 
ATOM     25  C   UNL     1       1.666  10.133  17.835  0.00  0.00    +0.000 A 
ATOM     26  C   UNL     1       2.186   8.836  17.773  0.00  0.00    +0.000 A 
ATOM     27  C   UNL     1       2.085   7.992  18.873  0.00  0.00    +0.000 A 
ATOM     28  C   UNL     1       1.421   8.428  20.014  0.00  0.00    +0.000 A 
ATOM     29  C   UNL     1       0.863   9.709  20.051  0.00  0.00    +0.000 A 
ENDBRANCH  10  24
TORSDOF 2
ENDMDL
MODEL 5
REMARK VINA RESULT:      -8.0      3.336      6.284
REMARK  Name = 
REMARK  2 active torsions:
REMARK  status: ('A' for Active; 'I' for Inactive)
REMARK    1  A    between atoms: N_8  and  C_9
REMARK    2  A    between atoms: C_20  and  C_21
REMARK                            x       y       z     vdW  Elec       q    Type
REMARK                         _______ _______ _______ _____ _____    ______ ____
ROOT
ATOM      1 BR   UNL     1       1.416  17.265  19.844  0.00  0.00    +0.000 Br
ATOM      2  C   UNL     1       1.786  15.499  19.279  0.00  0.00    +0.000 A 
ATOM      3  C   UNL     1       2.607  15.274  18.186  0.00  0.00    +0.000 A 
ATOM      4  C   UNL     1       2.843  13.956  17.776  0.00  0.00    +0.000 A 
ATOM      5  C   UNL     1       2.241  12.863  18.388  0.00  0.00    +0.000 A 
ATOM      6  N   UNL     1       2.509  11.640  17.911  0.00  0.00    +0.000 NA
ATOM      7  C   UNL     1       1.924  10.593  18.503  0.00  0.00    +0.000 A 
ATOM      8  N   UNL     1       2.226   9.321  18.010  0.00  0.00    +0.000 N 
ATOM      9  N   UNL     1       1.048  10.714  19.503  0.00  0.00    +0.000 NA
ATOM     10  C   UNL     1       0.743  11.943  19.971  0.00  0.00    +0.000 A 
ATOM     11  C   UNL     1       1.379  13.094  19.469  0.00  0.00    +0.000 A 
ATOM     12  C   UNL     1       1.211  14.428  19.942  0.00  0.00    +0.000 A 
ATOM     13  H   UNL     1       2.912   9.390  17.275  0.00  0.00    +0.000 HD
ENDROOT
BRANCH   8  14
ATOM     14  C   UNL     1       2.271   8.103  18.735  0.00  0.00    +0.000 A 
ATOM     15  C   UNL     1       1.501   7.940  19.898  0.00  0.00    +0.000 A 
ATOM     16  C   UNL     1       1.529   6.754  20.626  0.00  0.00    +0.000 A 
ATOM     17  C   UNL     1       2.331   5.702  20.200  0.00  0.00    +0.000 A 
ATOM     18  C   UNL     1       3.114   5.821  19.044  0.00  0.00    +0.000 A 
ATOM     19  C   UNL     1       3.896   4.736  18.615  0.00  0.00    +0.000 A 
ATOM     20  C   UNL     1       4.665   4.820  17.456  0.00  0.00    +0.000 A 
ATOM     21  C   UNL     1       4.667   5.995  16.715  0.00  0.00    +0.000 A 
ATOM     22  C   UNL     1       3.897   7.087  17.131  0.00  0.00    +0.000 A 
ATOM     23  C   UNL     1       3.102   7.031  18.298  0.00  0.00    +0.000 A 
ENDBRANCH   8  14
BRANCH  10  24
ATOM     24  C   UNL     1      -0.329  11.920  21.004  0.00  0.00    +0.000 A 
ATOM     25  C   UNL     1      -0.224  11.075  22.126  0.00  0.00    +0.000 A 
ATOM     26  C   UNL     1      -1.218  11.030  23.109  0.00  0.00    +0.000 A 
ATOM     27  C   UNL     1      -2.339  11.844  23.002  0.00  0.00    +0.000 A 
ATOM     28  C   UNL     1      -2.489  12.665  21.891  0.00  0.00    +0.000 A 
ATOM     29  C   UNL     1      -1.514  12.669  20.890  0.00  0.00    +0.000 A 
ENDBRANCH  10  24
TORSDOF 2
ENDMDL
MODEL 6
REMARK VINA RESULT:      -7.9      2.853      5.521
REMARK  Name = 
REMARK  2 active torsions:
REMARK  status: ('A' for Active; 'I' for Inactive)
REMARK    1  A    between atoms: N_8  and  C_9
REMARK    2  A    between atoms: C_20  and  C_21
REMARK                            x       y       z     vdW  Elec       q    Type
REMARK                         _______ _______ _______ _____ _____    ______ ____
ROOT
ATOM      1 BR   UNL     1       1.349  16.507  20.124  0.00  0.00    +0.000 Br
ATOM      2  C   UNL     1       1.763  14.811  19.399  0.00  0.00    +0.000 A 
ATOM      3  C   UNL     1       2.431  14.714  18.189  0.00  0.00    +0.000 A 
ATOM      4  C   UNL     1       2.702  13.444  17.665  0.00  0.00    +0.000 A 
ATOM      5  C   UNL     1       2.276  12.273  18.282  0.00  0.00    +0.000 A 
ATOM      6  N   UNL     1       2.562  11.104  17.692  0.00  0.00    +0.000 NA
ATOM      7  C   UNL     1       2.147   9.982  18.291  0.00  0.00    +0.000 A 
ATOM      8  N   UNL     1       2.468   8.768  17.678  0.00  0.00    +0.000 N 
ATOM      9  N   UNL     1       1.419   9.976  19.409  0.00  0.00    +0.000 NA
ATOM     10  C   UNL     1       1.096  11.149  19.996  0.00  0.00    +0.000 A 
ATOM     11  C   UNL     1       1.566  12.373  19.486  0.00  0.00    +0.000 A 
ATOM     12  C   UNL     1       1.370  13.662  20.064  0.00  0.00    +0.000 A 
ATOM     13  H   UNL     1       3.033   8.933  16.861  0.00  0.00    +0.000 HD
ENDROOT
BRANCH   8  14
ATOM     14  C   UNL     1       2.706   7.520  18.308  0.00  0.00    +0.000 A 
ATOM     15  C   UNL     1       2.019   7.175  19.483  0.00  0.00    +0.000 A 
ATOM     16  C   UNL     1       2.237   5.956  20.120  0.00  0.00    +0.000 A 
ATOM     17  C   UNL     1       3.151   5.054  19.587  0.00  0.00    +0.000 A 
ATOM     18  C   UNL     1       3.856   5.357  18.415  0.00  0.00    +0.000 A 
ATOM     19  C   UNL     1       4.754   4.419  17.878  0.00  0.00    +0.000 A 
ATOM     20  C   UNL     1       5.451   4.686  16.702  0.00  0.00    +0.000 A 
ATOM     21  C   UNL     1       5.264   5.900  16.050  0.00  0.00    +0.000 A 
ATOM     22  C   UNL     1       4.377   6.846  16.574  0.00  0.00    +0.000 A 
ATOM     23  C   UNL     1       3.651   6.603  17.763  0.00  0.00    +0.000 A 
ENDBRANCH   8  14
BRANCH  10  24
ATOM     24  C   UNL     1       0.189  10.981  21.165  0.00  0.00    +0.000 A 
ATOM     25  C   UNL     1      -0.820  11.927  21.429  0.00  0.00    +0.000 A 
ATOM     26  C   UNL     1      -1.683  11.796  22.523  0.00  0.00    +0.000 A 
ATOM     27  C   UNL     1      -1.567  10.703  23.373  0.00  0.00    +0.000 A 
ATOM     28  C   UNL     1      -0.559   9.770  23.159  0.00  0.00    +0.000 A 
ATOM     29  C   UNL     1       0.328   9.933  22.092  0.00  0.00    +0.000 A 
ENDBRANCH  10  24
TORSDOF 2
ENDMDL
MODEL 7
REMARK VINA RESULT:      -7.8      3.690      6.852
REMARK  Name = 
REMARK  2 active torsions:
REMARK  status: ('A' for Active; 'I' for Inactive)
REMARK    1  A    between atoms: N_8  and  C_9
REMARK    2  A    between atoms: C_20  and  C_21
REMARK                            x       y       z     vdW  Elec       q    Type
REMARK                         _______ _______ _______ _____ _____    ______ ____
ROOT
ATOM      1 BR   UNL     1       1.359  17.732  19.645  0.00  0.00    +0.000 Br
ATOM      2  C   UNL     1       1.737  15.936  19.191  0.00  0.00    +0.000 A 
ATOM      3  C   UNL     1       2.668  15.647  18.206  0.00  0.00    +0.000 A 
ATOM      4  C   UNL     1       2.909  14.308  17.875  0.00  0.00    +0.000 A 
ATOM      5  C   UNL     1       2.210  13.256  18.454  0.00  0.00    +0.000 A 
ATOM      6  N   UNL     1       2.493  12.008  18.055  0.00  0.00    +0.000 NA
ATOM      7  C   UNL     1       1.815  11.001  18.616  0.00  0.00    +0.000 A 
ATOM      8  N   UNL     1       2.132   9.703  18.207  0.00  0.00    +0.000 N 
ATOM      9  N   UNL     1       0.837  11.184  19.506  0.00  0.00    +0.000 NA
ATOM     10  C   UNL     1       0.519  12.439  19.891  0.00  0.00    +0.000 A 
ATOM     11  C   UNL     1       1.240  13.552  19.422  0.00  0.00    +0.000 A 
ATOM     12  C   UNL     1       1.060  14.908  19.824  0.00  0.00    +0.000 A 
ATOM     13  H   UNL     1       2.898   9.726  17.553  0.00  0.00    +0.000 HD
ENDROOT
BRANCH   8  14
ATOM     14  C   UNL     1       2.059   8.514  18.977  0.00  0.00    +0.000 A 
ATOM     15  C   UNL     1       1.268   8.466  20.136  0.00  0.00    +0.000 A 
ATOM     16  C   UNL     1       1.182   7.310  20.908  0.00  0.00    +0.000 A 
ATOM     17  C   UNL     1       1.888   6.174  20.530  0.00  0.00    +0.000 A 
ATOM     18  C   UNL     1       2.688   6.179  19.379  0.00  0.00    +0.000 A 
ATOM     19  C   UNL     1       3.371   5.011  18.999  0.00  0.00    +0.000 A 
ATOM     20  C   UNL     1       4.154   4.982  17.847  0.00  0.00    +0.000 A 
ATOM     21  C   UNL     1       4.270   6.123  17.063  0.00  0.00    +0.000 A 
ATOM     22  C   UNL     1       3.600   7.295  17.430  0.00  0.00    +0.000 A 
ATOM     23  C   UNL     1       2.793   7.356  18.590  0.00  0.00    +0.000 A 
ENDBRANCH   8  14
BRANCH  10  24
ATOM     24  C   UNL     1      -0.662  12.484  20.797  0.00  0.00    +0.000 A 
ATOM     25  C   UNL     1      -1.949  12.736  20.284  0.00  0.00    +0.000 A 
ATOM     26  C   UNL     1      -3.075  12.788  21.113  0.00  0.00    +0.000 A 
ATOM     27  C   UNL     1      -2.943  12.571  22.479  0.00  0.00    +0.000 A 
ATOM     28  C   UNL     1      -1.682  12.353  23.022  0.00  0.00    +0.000 A 
ATOM     29  C   UNL     1      -0.557  12.351  22.193  0.00  0.00    +0.000 A 
ENDBRANCH  10  24
TORSDOF 2
ENDMDL
MODEL 8
REMARK VINA RESULT:      -7.8      6.380      9.892
REMARK  Name = 
REMARK  2 active torsions:
REMARK  status: ('A' for Active; 'I' for Inactive)
REMARK    1  A    between atoms: N_8  and  C_9
REMARK    2  A    between atoms: C_20  and  C_21
REMARK                            x       y       z     vdW  Elec       q    Type
REMARK                         _______ _______ _______ _____ _____    ______ ____
ROOT
ATOM      1 BR   UNL     1      -7.915  16.318  23.581  0.00  0.00    +0.000 Br
ATOM      2  C   UNL     1      -6.196  15.536  23.498  0.00  0.00    +0.000 A 
ATOM      3  C   UNL     1      -5.165  16.033  24.280  0.00  0.00    +0.000 A 
ATOM      4  C   UNL     1      -3.896  15.449  24.178  0.00  0.00    +0.000 A 
ATOM      5  C   UNL     1      -3.613  14.427  23.281  0.00  0.00    +0.000 A 
ATOM      6  N   UNL     1      -2.362  13.946  23.239  0.00  0.00    +0.000 NA
ATOM      7  C   UNL     1      -2.096  12.964  22.371  0.00  0.00    +0.000 A 
ATOM      8  N   UNL     1      -0.794  12.458  22.349  0.00  0.00    +0.000 N 
ATOM      9  N   UNL     1      -2.998  12.483  21.513  0.00  0.00    +0.000 NA
ATOM     10  C   UNL     1      -4.253  12.980  21.522  0.00  0.00    +0.000 A 
ATOM     11  C   UNL     1      -4.646  13.951  22.461  0.00  0.00    +0.000 A 
ATOM     12  C   UNL     1      -5.958  14.484  22.630  0.00  0.00    +0.000 A 
ATOM     13  H   UNL     1      -0.239  12.903  23.062  0.00  0.00    +0.000 HD
ENDROOT
BRANCH   8  14
ATOM     14  C   UNL     1      -0.388  11.136  22.037  0.00  0.00    +0.000 A 
ATOM     15  C   UNL     1      -0.626  10.087  22.940  0.00  0.00    +0.000 A 
ATOM     16  C   UNL     1      -0.235   8.782  22.656  0.00  0.00    +0.000 A 
ATOM     17  C   UNL     1       0.404   8.499  21.454  0.00  0.00    +0.000 A 
ATOM     18  C   UNL     1       0.660   9.516  20.523  0.00  0.00    +0.000 A 
ATOM     19  C   UNL     1       1.281   9.204  19.302  0.00  0.00    +0.000 A 
ATOM     20  C   UNL     1       1.526  10.191  18.350  0.00  0.00    +0.000 A 
ATOM     21  C   UNL     1       1.159  11.506  18.611  0.00  0.00    +0.000 A 
ATOM     22  C   UNL     1       0.543  11.834  19.823  0.00  0.00    +0.000 A 
ATOM     23  C   UNL     1       0.275  10.854  20.807  0.00  0.00    +0.000 A 
ENDBRANCH   8  14
BRANCH  10  24
ATOM     24  C   UNL     1      -5.105  12.424  20.435  0.00  0.00    +0.000 A 
ATOM     25  C   UNL     1      -6.377  11.892  20.723  0.00  0.00    +0.000 A 
ATOM     26  C   UNL     1      -7.196  11.359  19.722  0.00  0.00    +0.000 A 
ATOM     27  C   UNL     1      -6.767  11.359  18.400  0.00  0.00    +0.000 A 
ATOM     28  C   UNL     1      -5.503  11.845  18.087  0.00  0.00    +0.000 A 
ATOM     29  C   UNL     1      -4.673  12.332  19.100  0.00  0.00    +0.000 A 
ENDBRANCH  10  24
TORSDOF 2
ENDMDL
MODEL 9
REMARK VINA RESULT:      -7.8      8.133     12.408
REMARK  Name = 
REMARK  2 active torsions:
REMARK  status: ('A' for Active; 'I' for Inactive)
REMARK    1  A    between atoms: N_8  and  C_9
REMARK    2  A    between atoms: C_20  and  C_21
REMARK                            x       y       z     vdW  Elec       q    Type
REMARK                         _______ _______ _______ _____ _____    ______ ____
ROOT
ATOM      1 BR   UNL     1      -0.430  16.365  26.189  0.00  0.00    +0.000 Br
ATOM      2  C   UNL     1      -1.964  15.897  25.188  0.00  0.00    +0.000 A 
ATOM      3  C   UNL     1      -3.168  16.543  25.415  0.00  0.00    +0.000 A 
ATOM      4  C   UNL     1      -4.293  16.158  24.675  0.00  0.00    +0.000 A 
ATOM      5  C   UNL     1      -4.266  15.113  23.761  0.00  0.00    +0.000 A 
ATOM      6  N   UNL     1      -5.399  14.801  23.117  0.00  0.00    +0.000 NA
ATOM      7  C   UNL     1      -5.365  13.792  22.239  0.00  0.00    +0.000 A 
ATOM      8  N   UNL     1      -6.547  13.488  21.560  0.00  0.00    +0.000 N 
ATOM      9  N   UNL     1      -4.277  13.051  22.020  0.00  0.00    +0.000 NA
ATOM     10  C   UNL     1      -3.137  13.333  22.686  0.00  0.00    +0.000 A 
ATOM     11  C   UNL     1      -3.056  14.433  23.560  0.00  0.00    +0.000 A 
ATOM     12  C   UNL     1      -1.891  14.885  24.247  0.00  0.00    +0.000 A 
ATOM     13  H   UNL     1      -7.269  14.143  21.815  0.00  0.00    +0.000 HD
ENDROOT
BRANCH   8  14
ATOM     14  C   UNL     1      -6.678  12.959  20.251  0.00  0.00    +0.000 A 
ATOM     15  C   UNL     1      -6.743  11.570  20.050  0.00  0.00    +0.000 A 
ATOM     16  C   UNL     1      -6.871  11.027  18.774  0.00  0.00    +0.000 A 
ATOM     17  C   UNL     1      -6.938  11.869  17.670  0.00  0.00    +0.000 A 
ATOM     18  C   UNL     1      -6.879  13.260  17.826  0.00  0.00    +0.000 A 
ATOM     19  C   UNL     1      -6.977  14.093  16.699  0.00  0.00    +0.000 A 
ATOM     20  C   UNL     1      -6.944  15.480  16.828  0.00  0.00    +0.000 A 
ATOM     21  C   UNL     1      -6.804  16.052  18.087  0.00  0.00    +0.000 A 
ATOM     22  C   UNL     1      -6.701  15.236  19.219  0.00  0.00    +0.000 A 
ATOM     23  C   UNL     1      -6.737  13.826  19.122  0.00  0.00    +0.000 A 
ENDBRANCH   8  14
BRANCH  10  24
ATOM     24  C   UNL     1      -2.051  12.351  22.418  0.00  0.00    +0.000 A 
ATOM     25  C   UNL     1      -1.321  12.402  21.214  0.00  0.00    +0.000 A 
ATOM     26  C   UNL     1      -0.298  11.489  20.934  0.00  0.00    +0.000 A 
ATOM     27  C   UNL     1       0.032  10.509  21.863  0.00  0.00    +0.000 A 
ATOM     28  C   UNL     1      -0.692  10.411  23.045  0.00  0.00    +0.000 A 
ATOM     29  C   UNL     1      -1.743  11.297  23.296  0.00  0.00    +0.000 A 
ENDBRANCH  10  24
TORSDOF 2
ENDMDL
