MODEL 1
REMARK VINA RESULT:      -6.9      0.000      0.000
REMARK  Name = 
REMARK  8 active torsions:
REMARK  status: ('A' for Active; 'I' for Inactive)
REMARK    1  A    between atoms: C_1  and  C_2
REMARK    2  A    between atoms: C_2  and  O_3
REMARK    3  A    between atoms: O_3  and  C_4
REMARK    4  A    between atoms: C_10  and  S_11
REMARK    5  A    between atoms: N_12  and  N_13
REMARK    6  A    between atoms: N_13  and  C_14
REMARK    7  A    between atoms: C_14  and  C_15
REMARK    8  A    between atoms: C_14  and  C_16
REMARK                            x       y       z     vdW  Elec       q    Type
REMARK                         _______ _______ _______ _____ _____    ______ ____
ROOT
ATOM      1  C   UNL     1       0.820   8.191  20.789  0.00  0.00    +0.000 C 
ATOM      2  O   UNL     1       0.070   7.923  21.720  0.00  0.00    +0.000 OA
ATOM      3  N   UNL     1       1.787   7.332  20.317  0.00  0.00    +0.000 N 
ATOM      4  C   UNL     1       1.895   5.993  20.883  0.00  0.00    +0.000 C 
ATOM      5  C   UNL     1       1.648   4.919  19.810  0.00  0.00    +0.000 C 
ATOM      6  N   UNL     1       2.554   5.118  18.668  0.00  0.00    +0.000 N 
ATOM      7  C   UNL     1       3.346   4.154  18.049  0.00  0.00    +0.000 C 
ATOM      8  N   UNL     1       4.157   4.467  17.070  0.00  0.00    +0.000 NA
ATOM      9  C   UNL     1       2.431   6.469  18.070  0.00  0.00    +0.000 C 
ATOM     10  C   UNL     1       2.621   7.572  19.134  0.00  0.00    +0.000 C 
ENDROOT
BRANCH   7  11
ATOM     11  S   UNL     1       3.264   2.477  18.637  0.00  0.00    +0.000 S 
ATOM     12  H   UNL     1       4.452   2.075  18.179  0.00  0.00    +0.000 HD
ENDBRANCH   7  11
BRANCH   8  13
ATOM     13  N   UNL     1       4.871   3.488  16.448  0.00  0.00    +0.000 N 
ATOM     14  H   UNL     1       4.846   2.586  16.937  0.00  0.00    +0.000 HD
BRANCH  13  15
ATOM     15  C   UNL     1       6.243   3.801  16.033  0.00  0.00    +0.000 C 
ATOM     16  C   UNL     1       6.344   3.958  14.510  0.00  0.00    +0.000 C 
BRANCH  15  17
ATOM     17  C   UNL     1       6.819   4.936  16.859  0.00  0.00    +0.000 A 
ATOM     18  C   UNL     1       7.573   4.642  18.017  0.00  0.00    +0.000 A 
ATOM     19  C   UNL     1       8.124   5.653  18.796  0.00  0.00    +0.000 A 
ATOM     20  C   UNL     1       7.926   6.978  18.433  0.00  0.00    +0.000 A 
ATOM     21  C   UNL     1       7.156   7.263  17.309  0.00  0.00    +0.000 A 
ATOM     22  N   UNL     1       6.584   6.265  16.521  0.00  0.00    +0.000 N 
ATOM     23  O   UNL     1       5.870   6.612  15.531  0.00  0.00    +0.000 OA
ENDBRANCH  15  17
ENDBRANCH  13  15
ENDBRANCH   8  13
BRANCH   1  24
ATOM     24  O   UNL     1       0.741   9.337  20.061  0.00  0.00    +0.000 OA
BRANCH  24  26
ATOM     25  C   UNL     1      -0.901  10.505  18.778  0.00  0.00    +0.000 C 
ATOM     26  C   UNL     1      -0.503  10.042  20.170  0.00  0.00    +0.000 C 
ENDBRANCH  24  26
ENDBRANCH   1  24
TORSDOF 6
ENDMDL
MODEL 2
REMARK VINA RESULT:      -6.8      3.212      8.579
REMARK  Name = 
REMARK  8 active torsions:
REMARK  status: ('A' for Active; 'I' for Inactive)
REMARK    1  A    between atoms: C_1  and  C_2
REMARK    2  A    between atoms: C_2  and  O_3
REMARK    3  A    between atoms: O_3  and  C_4
REMARK    4  A    between atoms: C_10  and  S_11
REMARK    5  A    between atoms: N_12  and  N_13
REMARK    6  A    between atoms: N_13  and  C_14
REMARK    7  A    between atoms: C_14  and  C_15
REMARK    8  A    between atoms: C_14  and  C_16
REMARK                            x       y       z     vdW  Elec       q    Type
REMARK                         _______ _______ _______ _____ _____    ______ ____
ROOT
ATOM      1  C   UNL     1       4.368   3.866  17.923  0.00  0.00    +0.000 C 
ATOM      2  O   UNL     1       4.732   3.690  16.767  0.00  0.00    +0.000 OA
ATOM      3  N   UNL     1       4.113   5.108  18.461  0.00  0.00    +0.000 N 
ATOM      4  C   UNL     1       4.193   6.288  17.610  0.00  0.00    +0.000 C 
ATOM      5  C   UNL     1       2.834   7.004  17.527  0.00  0.00    +0.000 C 
ATOM      6  N   UNL     1       2.339   7.319  18.877  0.00  0.00    +0.000 N 
ATOM      7  C   UNL     1       1.849   8.544  19.323  0.00  0.00    +0.000 C 
ATOM      8  N   UNL     1       1.487   8.717  20.570  0.00  0.00    +0.000 NA
ATOM      9  C   UNL     1       2.229   6.119  19.740  0.00  0.00    +0.000 C 
ATOM     10  C   UNL     1       3.565   5.348  19.801  0.00  0.00    +0.000 C 
ENDROOT
BRANCH   7  11
ATOM     11  S   UNL     1       1.754   9.897  18.172  0.00  0.00    +0.000 S 
ATOM     12  H   UNL     1       0.473   9.742  17.829  0.00  0.00    +0.000 HD
ENDBRANCH   7  11
BRANCH   8  13
ATOM     13  N   UNL     1       0.956   9.910  20.958  0.00  0.00    +0.000 N 
ATOM     14  H   UNL     1       1.649  10.564  21.338  0.00  0.00    +0.000 HD
BRANCH  13  15
ATOM     15  C   UNL     1      -0.237   9.883  21.810  0.00  0.00    +0.000 C 
ATOM     16  C   UNL     1       0.094   9.376  23.220  0.00  0.00    +0.000 C 
BRANCH  15  17
ATOM     17  C   UNL     1      -0.993  11.197  21.737  0.00  0.00    +0.000 A 
ATOM     18  C   UNL     1      -1.205  11.945  22.916  0.00  0.00    +0.000 A 
ATOM     19  C   UNL     1      -1.885  13.158  22.889  0.00  0.00    +0.000 A 
ATOM     20  C   UNL     1      -2.371  13.641  21.683  0.00  0.00    +0.000 A 
ATOM     21  C   UNL     1      -2.186  12.885  20.528  0.00  0.00    +0.000 A 
ATOM     22  N   UNL     1      -1.518  11.661  20.535  0.00  0.00    +0.000 N 
ATOM     23  O   UNL     1      -1.421  11.020  19.443  0.00  0.00    +0.000 OA
ENDBRANCH  15  17
ENDBRANCH  13  15
ENDBRANCH   8  13
BRANCH   1  24
ATOM     24  O   UNL     1       4.101   2.857  18.793  0.00  0.00    +0.000 OA
BRANCH  24  26
ATOM     25  C   UNL     1       1.808   2.188  18.839  0.00  0.00    +0.000 C 
ATOM     26  C   UNL     1       3.194   1.859  18.307  0.00  0.00    +0.000 C 
ENDBRANCH  24  26
ENDBRANCH   1  24
TORSDOF 6
ENDMDL
MODEL 3
REMARK VINA RESULT:      -6.7      2.523      3.940
REMARK  Name = 
REMARK  8 active torsions:
REMARK  status: ('A' for Active; 'I' for Inactive)
REMARK    1  A    between atoms: C_1  and  C_2
REMARK    2  A    between atoms: C_2  and  O_3
REMARK    3  A    between atoms: O_3  and  C_4
REMARK    4  A    between atoms: C_10  and  S_11
REMARK    5  A    between atoms: N_12  and  N_13
REMARK    6  A    between atoms: N_13  and  C_14
REMARK    7  A    between atoms: C_14  and  C_15
REMARK    8  A    between atoms: C_14  and  C_16
REMARK                            x       y       z     vdW  Elec       q    Type
REMARK                         _______ _______ _______ _____ _____    ______ ____
ROOT
ATOM      1  C   UNL     1      -0.608  11.533  21.194  0.00  0.00    +0.000 C 
ATOM      2  O   UNL     1      -0.577  12.635  20.662  0.00  0.00    +0.000 OA
ATOM      3  N   UNL     1      -0.297  10.361  20.541  0.00  0.00    +0.000 N 
ATOM      4  C   UNL     1       0.175  10.412  19.163  0.00  0.00    +0.000 C 
ATOM      5  C   UNL     1       1.598   9.839  19.045  0.00  0.00    +0.000 C 
ATOM      6  N   UNL     1       1.650   8.479  19.604  0.00  0.00    +0.000 N 
ATOM      7  C   UNL     1       2.203   7.350  19.007  0.00  0.00    +0.000 C 
ATOM      8  N   UNL     1       2.139   6.175  19.584  0.00  0.00    +0.000 NA
ATOM      9  C   UNL     1       1.196   8.423  21.014  0.00  0.00    +0.000 C 
ATOM     10  C   UNL     1      -0.210   9.041  21.175  0.00  0.00    +0.000 C 
ENDROOT
BRANCH   7  11
ATOM     11  S   UNL     1       2.977   7.517  17.414  0.00  0.00    +0.000 S 
ATOM     12  H   UNL     1       3.828   8.495  17.737  0.00  0.00    +0.000 HD
ENDBRANCH   7  11
BRANCH   8  13
ATOM     13  N   UNL     1       2.744   5.104  19.000  0.00  0.00    +0.000 N 
ATOM     14  H   UNL     1       2.091   4.360  18.729  0.00  0.00    +0.000 HD
BRANCH  13  15
ATOM     15  C   UNL     1       3.916   4.530  19.670  0.00  0.00    +0.000 C 
ATOM     16  C   UNL     1       3.615   3.131  20.224  0.00  0.00    +0.000 C 
BRANCH  15  17
ATOM     17  C   UNL     1       5.155   4.649  18.802  0.00  0.00    +0.000 A 
ATOM     18  C   UNL     1       6.319   5.251  19.330  0.00  0.00    +0.000 A 
ATOM     19  C   UNL     1       7.478   5.372  18.570  0.00  0.00    +0.000 A 
ATOM     20  C   UNL     1       7.490   4.899  17.266  0.00  0.00    +0.000 A 
ATOM     21  C   UNL     1       6.330   4.335  16.740  0.00  0.00    +0.000 A 
ATOM     22  N   UNL     1       5.155   4.215  17.481  0.00  0.00    +0.000 N 
ATOM     23  O   UNL     1       4.133   3.718  16.915  0.00  0.00    +0.000 OA
ENDBRANCH  15  17
ENDBRANCH  13  15
ENDBRANCH   8  13
BRANCH   1  24
ATOM     24  O   UNL     1      -0.881  11.337  22.511  0.00  0.00    +0.000 OA
BRANCH  24  26
ATOM     25  C   UNL     1      -2.932  12.111  23.462  0.00  0.00    +0.000 C 
ATOM     26  C   UNL     1      -1.478  12.456  23.181  0.00  0.00    +0.000 C 
ENDBRANCH  24  26
ENDBRANCH   1  24
TORSDOF 6
ENDMDL
MODEL 4
REMARK VINA RESULT:      -6.7      2.566      4.020
REMARK  Name = 
REMARK  8 active torsions:
REMARK  status: ('A' for Active; 'I' for Inactive)
REMARK    1  A    between atoms: C_1  and  C_2
REMARK    2  A    between atoms: C_2  and  O_3
REMARK    3  A    between atoms: O_3  and  C_4
REMARK    4  A    between atoms: C_10  and  S_11
REMARK    5  A    between atoms: N_12  and  N_13
REMARK    6  A    between atoms: N_13  and  C_14
REMARK    7  A    between atoms: C_14  and  C_15
REMARK    8  A    between atoms: C_14  and  C_16
REMARK                            x       y       z     vdW  Elec       q    Type
REMARK                         _______ _______ _______ _____ _____    ______ ____
ROOT
ATOM      1  C   UNL     1      -0.205  11.536  21.512  0.00  0.00    +0.000 C 
ATOM      2  O   UNL     1      -0.148  12.652  21.012  0.00  0.00    +0.000 OA
ATOM      3  N   UNL     1       0.012  10.373  20.809  0.00  0.00    +0.000 N 
ATOM      4  C   UNL     1       0.413  10.445  19.409  0.00  0.00    +0.000 C 
ATOM      5  C   UNL     1       1.798   9.810  19.197  0.00  0.00    +0.000 C 
ATOM      6  N   UNL     1       1.812   8.431  19.712  0.00  0.00    +0.000 N 
ATOM      7  C   UNL     1       2.276   7.296  19.052  0.00  0.00    +0.000 C 
ATOM      8  N   UNL     1       2.185   6.108  19.597  0.00  0.00    +0.000 NA
ATOM      9  C   UNL     1       1.430   8.351  21.142  0.00  0.00    +0.000 C 
ATOM     10  C   UNL     1       0.067   9.030  21.398  0.00  0.00    +0.000 C 
ENDROOT
BRANCH   7  11
ATOM     11  S   UNL     1       2.972   7.478  17.425  0.00  0.00    +0.000 S 
ATOM     12  H   UNL     1       4.256   7.376  17.773  0.00  0.00    +0.000 HD
ENDBRANCH   7  11
BRANCH   8  13
ATOM     13  N   UNL     1       2.703   5.028  18.948  0.00  0.00    +0.000 N 
ATOM     14  H   UNL     1       2.019   4.284  18.776  0.00  0.00    +0.000 HD
BRANCH  13  15
ATOM     15  C   UNL     1       3.954   4.459  19.461  0.00  0.00    +0.000 C 
ATOM     16  C   UNL     1       3.712   3.112  20.157  0.00  0.00    +0.000 C 
BRANCH  15  17
ATOM     17  C   UNL     1       5.038   4.473  18.400  0.00  0.00    +0.000 A 
ATOM     18  C   UNL     1       4.740   4.024  17.094  0.00  0.00    +0.000 A 
ATOM     19  C   UNL     1       5.704   4.030  16.091  0.00  0.00    +0.000 A 
ATOM     20  C   UNL     1       6.985   4.478  16.379  0.00  0.00    +0.000 A 
ATOM     21  C   UNL     1       7.282   4.890  17.675  0.00  0.00    +0.000 A 
ATOM     22  N   UNL     1       6.334   4.882  18.698  0.00  0.00    +0.000 N 
ATOM     23  O   UNL     1       6.696   5.243  19.860  0.00  0.00    +0.000 OA
ENDBRANCH  15  17
ENDBRANCH  13  15
ENDBRANCH   8  13
BRANCH   1  24
ATOM     24  O   UNL     1      -0.417  11.311  22.836  0.00  0.00    +0.000 OA
BRANCH  24  26
ATOM     25  C   UNL     1      -2.324  12.661  23.337  0.00  0.00    +0.000 C 
ATOM     26  C   UNL     1      -1.795  11.240  23.227  0.00  0.00    +0.000 C 
ENDBRANCH  24  26
ENDBRANCH   1  24
TORSDOF 6
ENDMDL
MODEL 5
REMARK VINA RESULT:      -6.7      1.447      1.680
REMARK  Name = 
REMARK  8 active torsions:
REMARK  status: ('A' for Active; 'I' for Inactive)
REMARK    1  A    between atoms: C_1  and  C_2
REMARK    2  A    between atoms: C_2  and  O_3
REMARK    3  A    between atoms: O_3  and  C_4
REMARK    4  A    between atoms: C_10  and  S_11
REMARK    5  A    between atoms: N_12  and  N_13
REMARK    6  A    between atoms: N_13  and  C_14
REMARK    7  A    between atoms: C_14  and  C_15
REMARK    8  A    between atoms: C_14  and  C_16
REMARK                            x       y       z     vdW  Elec       q    Type
REMARK                         _______ _______ _______ _____ _____    ______ ____
ROOT
ATOM      1  C   UNL     1       0.524   9.514  20.270  0.00  0.00    +0.000 C 
ATOM      2  O   UNL     1      -0.068   9.494  21.341  0.00  0.00    +0.000 OA
ATOM      3  N   UNL     1       1.511   8.617  19.927  0.00  0.00    +0.000 N 
ATOM      4  C   UNL     1       1.834   7.524  20.836  0.00  0.00    +0.000 C 
ATOM      5  C   UNL     1       1.571   6.160  20.176  0.00  0.00    +0.000 C 
ATOM      6  N   UNL     1       2.299   6.061  18.900  0.00  0.00    +0.000 N 
ATOM      7  C   UNL     1       3.105   5.007  18.478  0.00  0.00    +0.000 C 
ATOM      8  N   UNL     1       3.748   5.059  17.337  0.00  0.00    +0.000 NA
ATOM      9  C   UNL     1       1.957   7.154  17.960  0.00  0.00    +0.000 C 
ATOM     10  C   UNL     1       2.159   8.539  18.613  0.00  0.00    +0.000 C 
ENDROOT
BRANCH   7  11
ATOM     11  S   UNL     1       3.279   3.587  19.534  0.00  0.00    +0.000 S 
ATOM     12  H   UNL     1       2.018   3.539  19.970  0.00  0.00    +0.000 HD
ENDBRANCH   7  11
BRANCH   8  13
ATOM     13  N   UNL     1       4.479   3.985  16.927  0.00  0.00    +0.000 N 
ATOM     14  H   UNL     1       4.563   3.249  17.637  0.00  0.00    +0.000 HD
BRANCH  13  15
ATOM     15  C   UNL     1       5.783   4.243  16.307  0.00  0.00    +0.000 C 
ATOM     16  C   UNL     1       5.644   4.518  14.804  0.00  0.00    +0.000 C 
BRANCH  15  17
ATOM     17  C   UNL     1       6.573   5.268  17.100  0.00  0.00    +0.000 A 
ATOM     18  C   UNL     1       7.001   6.458  16.469  0.00  0.00    +0.000 A 
ATOM     19  C   UNL     1       7.719   7.425  17.164  0.00  0.00    +0.000 A 
ATOM     20  C   UNL     1       8.029   7.216  18.499  0.00  0.00    +0.000 A 
ATOM     21  C   UNL     1       7.633   6.028  19.108  0.00  0.00    +0.000 A 
ATOM     22  N   UNL     1       6.922   5.040  18.428  0.00  0.00    +0.000 N 
ATOM     23  O   UNL     1       6.628   3.973  19.048  0.00  0.00    +0.000 OA
ENDBRANCH  15  17
ENDBRANCH  13  15
ENDBRANCH   8  13
BRANCH   1  24
ATOM     24  O   UNL     1       0.232  10.376  19.260  0.00  0.00    +0.000 OA
BRANCH  24  26
ATOM     25  C   UNL     1      -1.946  11.244  18.804  0.00  0.00    +0.000 C 
ATOM     26  C   UNL     1      -0.670  11.435  19.607  0.00  0.00    +0.000 C 
ENDBRANCH  24  26
ENDBRANCH   1  24
TORSDOF 6
ENDMDL
MODEL 6
REMARK VINA RESULT:      -6.5      2.787      4.417
REMARK  Name = 
REMARK  8 active torsions:
REMARK  status: ('A' for Active; 'I' for Inactive)
REMARK    1  A    between atoms: C_1  and  C_2
REMARK    2  A    between atoms: C_2  and  O_3
REMARK    3  A    between atoms: O_3  and  C_4
REMARK    4  A    between atoms: C_10  and  S_11
REMARK    5  A    between atoms: N_12  and  N_13
REMARK    6  A    between atoms: N_13  and  C_14
REMARK    7  A    between atoms: C_14  and  C_15
REMARK    8  A    between atoms: C_14  and  C_16
REMARK                            x       y       z     vdW  Elec       q    Type
REMARK                         _______ _______ _______ _____ _____    ______ ____
ROOT
ATOM      1  C   UNL     1      -0.304  12.174  19.418  0.00  0.00    +0.000 C 
ATOM      2  O   UNL     1      -1.205  12.251  20.244  0.00  0.00    +0.000 OA
ATOM      3  N   UNL     1       0.725  11.263  19.495  0.00  0.00    +0.000 N 
ATOM      4  C   UNL     1       0.726  10.270  20.562  0.00  0.00    +0.000 C 
ATOM      5  C   UNL     1       0.662   8.844  19.990  0.00  0.00    +0.000 C 
ATOM      6  N   UNL     1       1.754   8.630  19.027  0.00  0.00    +0.000 N 
ATOM      7  C   UNL     1       2.635   7.552  18.986  0.00  0.00    +0.000 C 
ATOM      8  N   UNL     1       3.605   7.501  18.107  0.00  0.00    +0.000 NA
ATOM      9  C   UNL     1       1.744   9.620  17.923  0.00  0.00    +0.000 C 
ATOM     10  C   UNL     1       1.753  11.065  18.467  0.00  0.00    +0.000 C 
ENDROOT
BRANCH   7  11
ATOM     11  S   UNL     1       2.443   6.246  20.178  0.00  0.00    +0.000 S 
ATOM     12  H   UNL     1       3.584   5.604  19.917  0.00  0.00    +0.000 HD
ENDBRANCH   7  11
BRANCH   8  13
ATOM     13  N   UNL     1       4.411   6.404  18.057  0.00  0.00    +0.000 N 
ATOM     14  H   UNL     1       5.412   6.628  18.070  0.00  0.00    +0.000 HD
BRANCH  13  15
ATOM     15  C   UNL     1       4.130   5.396  17.030  0.00  0.00    +0.000 C 
ATOM     16  C   UNL     1       5.226   5.371  15.956  0.00  0.00    +0.000 C 
BRANCH  15  17
ATOM     17  C   UNL     1       3.782   4.058  17.656  0.00  0.00    +0.000 A 
ATOM     18  C   UNL     1       2.621   3.372  17.234  0.00  0.00    +0.000 A 
ATOM     19  C   UNL     1       2.273   2.140  17.777  0.00  0.00    +0.000 A 
ATOM     20  C   UNL     1       3.075   1.576  18.758  0.00  0.00    +0.000 A 
ATOM     21  C   UNL     1       4.201   2.271  19.193  0.00  0.00    +0.000 A 
ATOM     22  N   UNL     1       4.562   3.512  18.670  0.00  0.00    +0.000 N 
ATOM     23  O   UNL     1       5.586   4.092  19.145  0.00  0.00    +0.000 OA
ENDBRANCH  15  17
ENDBRANCH  13  15
ENDBRANCH   8  13
BRANCH   1  24
ATOM     24  O   UNL     1      -0.249  12.928  18.288  0.00  0.00    +0.000 OA
BRANCH  24  26
ATOM     25  C   UNL     1       1.043  14.737  19.162  0.00  0.00    +0.000 C 
ATOM     26  C   UNL     1      -0.269  14.345  18.502  0.00  0.00    +0.000 C 
ENDBRANCH  24  26
ENDBRANCH   1  24
TORSDOF 6
ENDMDL
MODEL 7
REMARK VINA RESULT:      -6.5      3.281      8.484
REMARK  Name = 
REMARK  8 active torsions:
REMARK  status: ('A' for Active; 'I' for Inactive)
REMARK    1  A    between atoms: C_1  and  C_2
REMARK    2  A    between atoms: C_2  and  O_3
REMARK    3  A    between atoms: O_3  and  C_4
REMARK    4  A    between atoms: C_10  and  S_11
REMARK    5  A    between atoms: N_12  and  N_13
REMARK    6  A    between atoms: N_13  and  C_14
REMARK    7  A    between atoms: C_14  and  C_15
REMARK    8  A    between atoms: C_14  and  C_16
REMARK                            x       y       z     vdW  Elec       q    Type
REMARK                         _______ _______ _______ _____ _____    ______ ____
ROOT
ATOM      1  C   UNL     1       4.850   4.100  18.026  0.00  0.00    +0.000 C 
ATOM      2  O   UNL     1       5.477   4.027  16.976  0.00  0.00    +0.000 OA
ATOM      3  N   UNL     1       4.398   5.284  18.563  0.00  0.00    +0.000 N 
ATOM      4  C   UNL     1       4.591   6.527  17.826  0.00  0.00    +0.000 C 
ATOM      5  C   UNL     1       3.242   7.176  17.474  0.00  0.00    +0.000 C 
ATOM      6  N   UNL     1       2.434   7.367  18.690  0.00  0.00    +0.000 N 
ATOM      7  C   UNL     1       1.776   8.529  19.083  0.00  0.00    +0.000 C 
ATOM      8  N   UNL     1       1.129   8.592  20.221  0.00  0.00    +0.000 NA
ATOM      9  C   UNL     1       2.211   6.103  19.432  0.00  0.00    +0.000 C 
ATOM     10  C   UNL     1       3.546   5.398  19.753  0.00  0.00    +0.000 C 
ENDROOT
BRANCH   7  11
ATOM     11  S   UNL     1       1.855   9.956  18.024  0.00  0.00    +0.000 S 
ATOM     12  H   UNL     1       0.578   9.953  17.634  0.00  0.00    +0.000 HD
ENDBRANCH   7  11
BRANCH   8  13
ATOM     13  N   UNL     1       0.447   9.725  20.546  0.00  0.00    +0.000 N 
ATOM     14  H   UNL     1       0.912  10.588  20.241  0.00  0.00    +0.000 HD
BRANCH  13  15
ATOM     15  C   UNL     1      -0.027   9.866  21.926  0.00  0.00    +0.000 C 
ATOM     16  C   UNL     1       0.964   9.252  22.924  0.00  0.00    +0.000 C 
BRANCH  15  17
ATOM     17  C   UNL     1      -0.463  11.291  22.214  0.00  0.00    +0.000 A 
ATOM     18  C   UNL     1      -1.665  11.523  22.919  0.00  0.00    +0.000 A 
ATOM     19  C   UNL     1      -2.094  12.814  23.209  0.00  0.00    +0.000 A 
ATOM     20  C   UNL     1      -1.332  13.895  22.792  0.00  0.00    +0.000 A 
ATOM     21  C   UNL     1      -0.165  13.662  22.070  0.00  0.00    +0.000 A 
ATOM     22  N   UNL     1       0.278  12.377  21.758  0.00  0.00    +0.000 N 
ATOM     23  O   UNL     1       1.336  12.253  21.069  0.00  0.00    +0.000 OA
ENDBRANCH  15  17
ENDBRANCH  13  15
ENDBRANCH   8  13
BRANCH   1  24
ATOM     24  O   UNL     1       4.460   3.018  18.750  0.00  0.00    +0.000 OA
BRANCH  24  26
ATOM     25  C   UNL     1       2.255   2.099  18.776  0.00  0.00    +0.000 C 
ATOM     26  C   UNL     1       3.596   2.105  18.060  0.00  0.00    +0.000 C 
ENDBRANCH  24  26
ENDBRANCH   1  24
TORSDOF 6
ENDMDL
MODEL 8
REMARK VINA RESULT:      -6.4      4.104      6.540
REMARK  Name = 
REMARK  8 active torsions:
REMARK  status: ('A' for Active; 'I' for Inactive)
REMARK    1  A    between atoms: C_1  and  C_2
REMARK    2  A    between atoms: C_2  and  O_3
REMARK    3  A    between atoms: O_3  and  C_4
REMARK    4  A    between atoms: C_10  and  S_11
REMARK    5  A    between atoms: N_12  and  N_13
REMARK    6  A    between atoms: N_13  and  C_14
REMARK    7  A    between atoms: C_14  and  C_15
REMARK    8  A    between atoms: C_14  and  C_16
REMARK                            x       y       z     vdW  Elec       q    Type
REMARK                         _______ _______ _______ _____ _____    ______ ____
ROOT
ATOM      1  C   UNL     1       0.842  14.826  19.567  0.00  0.00    +0.000 C 
ATOM      2  O   UNL     1      -0.027  15.527  20.070  0.00  0.00    +0.000 OA
ATOM      3  N   UNL     1       1.188  13.581  20.042  0.00  0.00    +0.000 N 
ATOM      4  C   UNL     1       0.441  13.005  21.154  0.00  0.00    +0.000 C 
ATOM      5  C   UNL     1      -0.252  11.697  20.736  0.00  0.00    +0.000 C 
ATOM      6  N   UNL     1       0.730  10.755  20.173  0.00  0.00    +0.000 N 
ATOM      7  C   UNL     1       0.889   9.413  20.508  0.00  0.00    +0.000 C 
ATOM      8  N   UNL     1       1.840   8.688  19.974  0.00  0.00    +0.000 NA
ATOM      9  C   UNL     1       1.475  11.324  19.025  0.00  0.00    +0.000 C 
ATOM     10  C   UNL     1       2.138  12.668  19.398  0.00  0.00    +0.000 C 
ENDROOT
BRANCH   7  11
ATOM     11  S   UNL     1      -0.207   8.697  21.712  0.00  0.00    +0.000 S 
ATOM     12  H   UNL     1       0.398   9.174  22.803  0.00  0.00    +0.000 HD
ENDBRANCH   7  11
BRANCH   8  13
ATOM     13  N   UNL     1       1.930   7.363  20.280  0.00  0.00    +0.000 N 
ATOM     14  H   UNL     1       2.574   7.162  21.052  0.00  0.00    +0.000 HD
BRANCH  13  15
ATOM     15  C   UNL     1       2.149   6.421  19.178  0.00  0.00    +0.000 C 
ATOM     16  C   UNL     1       3.484   6.688  18.470  0.00  0.00    +0.000 C 
BRANCH  15  17
ATOM     17  C   UNL     1       1.908   4.990  19.625  0.00  0.00    +0.000 A 
ATOM     18  C   UNL     1       2.192   4.620  20.959  0.00  0.00    +0.000 A 
ATOM     19  C   UNL     1       1.978   3.322  21.409  0.00  0.00    +0.000 A 
ATOM     20  C   UNL     1       1.481   2.369  20.531  0.00  0.00    +0.000 A 
ATOM     21  C   UNL     1       1.233   2.731  19.210  0.00  0.00    +0.000 A 
ATOM     22  N   UNL     1       1.452   4.024  18.734  0.00  0.00    +0.000 N 
ATOM     23  O   UNL     1       1.230   4.261  17.508  0.00  0.00    +0.000 OA
ENDBRANCH  15  17
ENDBRANCH  13  15
ENDBRANCH   8  13
BRANCH   1  24
ATOM     24  O   UNL     1       1.520  15.158  18.437  0.00  0.00    +0.000 OA
BRANCH  24  26
ATOM     25  C   UNL     1       2.634  16.931  17.287  0.00  0.00    +0.000 C 
ATOM     26  C   UNL     1       2.513  16.179  18.602  0.00  0.00    +0.000 C 
ENDBRANCH  24  26
ENDBRANCH   1  24
TORSDOF 6
ENDMDL
MODEL 9
REMARK VINA RESULT:      -6.4      2.014      2.986
REMARK  Name = 
REMARK  8 active torsions:
REMARK  status: ('A' for Active; 'I' for Inactive)
REMARK    1  A    between atoms: C_1  and  C_2
REMARK    2  A    between atoms: C_2  and  O_3
REMARK    3  A    between atoms: O_3  and  C_4
REMARK    4  A    between atoms: C_10  and  S_11
REMARK    5  A    between atoms: N_12  and  N_13
REMARK    6  A    between atoms: N_13  and  C_14
REMARK    7  A    between atoms: C_14  and  C_15
REMARK    8  A    between atoms: C_14  and  C_16
REMARK                            x       y       z     vdW  Elec       q    Type
REMARK                         _______ _______ _______ _____ _____    ______ ____
ROOT
ATOM      1  C   UNL     1       0.126  10.500  19.861  0.00  0.00    +0.000 C 
ATOM      2  O   UNL     1      -0.750  10.721  20.688  0.00  0.00    +0.000 OA
ATOM      3  N   UNL     1       1.093   9.532  20.014  0.00  0.00    +0.000 N 
ATOM      4  C   UNL     1       1.050   8.652  21.176  0.00  0.00    +0.000 C 
ATOM      5  C   UNL     1       0.878   7.184  20.751  0.00  0.00    +0.000 C 
ATOM      6  N   UNL     1       1.931   6.800  19.798  0.00  0.00    +0.000 N 
ATOM      7  C   UNL     1       2.736   5.666  19.853  0.00  0.00    +0.000 C 
ATOM      8  N   UNL     1       3.682   5.460  18.971  0.00  0.00    +0.000 NA
ATOM      9  C   UNL     1       1.965   7.674  18.601  0.00  0.00    +0.000 C 
ATOM     10  C   UNL     1       2.083   9.162  18.996  0.00  0.00    +0.000 C 
ENDROOT
BRANCH   7  11
ATOM     11  S   UNL     1       2.483   4.501  21.174  0.00  0.00    +0.000 S 
ATOM     12  H   UNL     1       1.636   5.239  21.895  0.00  0.00    +0.000 HD
ENDBRANCH   7  11
BRANCH   8  13
ATOM     13  N   UNL     1       4.411   4.310  19.019  0.00  0.00    +0.000 N 
ATOM     14  H   UNL     1       5.370   4.445  19.359  0.00  0.00    +0.000 HD
BRANCH  13  15
ATOM     15  C   UNL     1       4.410   3.449  17.832  0.00  0.00    +0.000 C 
ATOM     16  C   UNL     1       2.980   3.132  17.373  0.00  0.00    +0.000 C 
BRANCH  15  17
ATOM     17  C   UNL     1       5.347   3.986  16.766  0.00  0.00    +0.000 A 
ATOM     18  C   UNL     1       4.925   4.013  15.418  0.00  0.00    +0.000 A 
ATOM     19  C   UNL     1       5.751   4.504  14.413  0.00  0.00    +0.000 A 
ATOM     20  C   UNL     1       7.017   4.970  14.737  0.00  0.00    +0.000 A 
ATOM     21  C   UNL     1       7.439   4.912  16.063  0.00  0.00    +0.000 A 
ATOM     22  N   UNL     1       6.632   4.413  17.084  0.00  0.00    +0.000 N 
ATOM     23  O   UNL     1       7.107   4.366  18.260  0.00  0.00    +0.000 OA
ENDBRANCH  15  17
ENDBRANCH  13  15
ENDBRANCH   8  13
BRANCH   1  24
ATOM     24  O   UNL     1       0.208  11.132  18.661  0.00  0.00    +0.000 OA
BRANCH  24  26
ATOM     25  C   UNL     1       0.910  13.385  19.033  0.00  0.00    +0.000 C 
ATOM     26  C   UNL     1      -0.257  12.488  18.654  0.00  0.00    +0.000 C 
ENDBRANCH  24  26
ENDBRANCH   1  24
TORSDOF 6
ENDMDL
