MODEL 1
REMARK VINA RESULT:      -7.0      0.000      0.000
REMARK  Name = 
REMARK  8 active torsions:
REMARK  status: ('A' for Active; 'I' for Inactive)
REMARK    1  A    between atoms: C_1  and  C_2
REMARK    2  A    between atoms: C_2  and  N_3
REMARK    3  A    between atoms: N_3  and  C_4
REMARK    4  A    between atoms: C_4  and  C_5
REMARK    5  A    between atoms: C_6  and  C_8
REMARK    6  A    between atoms: C_8  and  C_9
REMARK    7  A    between atoms: C_9  and  C_10
REMARK    8  A    between atoms: N_23  and  C_24
REMARK                            x       y       z     vdW  Elec       q    Type
REMARK                         _______ _______ _______ _____ _____    ______ ____
ROOT
ATOM      1  C   UNL     1       4.492   4.760  17.066  0.00  0.00    +0.000 C 
ATOM      2  C   UNL     1       4.459   6.309  17.120  0.00  0.00    +0.000 C 
ATOM      3  O   UNL     1       5.318   7.013  16.575  0.00  0.00    +0.000 OA
ATOM      4  N   UNL     1       3.393   7.017  17.596  0.00  0.00    +0.000 N 
ATOM      5  C   UNL     1       2.561   6.738  18.691  0.00  0.00    +0.000 A 
ATOM      6  C   UNL     1       2.197   7.862  19.450  0.00  0.00    +0.000 A 
ATOM      7  C   UNL     1       1.554   7.713  20.676  0.00  0.00    +0.000 A 
ATOM      8 CL   UNL     1       1.267   9.098  21.655  0.00  0.00    +0.000 Cl
ATOM      9  C   UNL     1       1.197   6.452  21.138  0.00  0.00    +0.000 A 
ATOM     10  C   UNL     1       1.469   5.337  20.349  0.00  0.00    +0.000 A 
ATOM     11  C   UNL     1       2.155   5.479  19.137  0.00  0.00    +0.000 A 
ATOM     12  C   UNL     1       2.547   4.232  18.457  0.00  0.00    +0.000 C 
ATOM     13  O   UNL     1       1.778   3.281  18.386  0.00  0.00    +0.000 OA
ATOM     14  N   UNL     1       3.906   4.169  18.280  0.00  0.00    +0.000 N 
ATOM     15  C   UNL     1       4.620   3.203  19.095  0.00  0.00    +0.000 C 
ATOM     16  H   UNL     1       3.556   8.001  17.407  0.00  0.00    +0.000 HD
ENDROOT
BRANCH   1  17
ATOM     17  C   UNL     1       5.918   4.231  16.759  0.00  0.00    +0.000 C 
BRANCH  17  18
ATOM     18  C   UNL     1       6.137   3.676  15.347  0.00  0.00    +0.000 C 
BRANCH  18  20
ATOM     19  N   UNL     1       6.879   4.375  13.077  0.00  0.00    +0.000 N 
ATOM     20  C   UNL     1       6.906   4.643  14.452  0.00  0.00    +0.000 C 
ATOM     21  O   UNL     1       7.499   5.615  14.926  0.00  0.00    +0.000 OA
BRANCH  19  23
ATOM     22  C   UNL     1       8.836   5.855  12.677  0.00  0.00    +0.000 C 
ATOM     23  C   UNL     1       7.479   5.372  12.188  0.00  0.00    +0.000 C 
ENDBRANCH  19  23
BRANCH  19  24
ATOM     24  C   UNL     1       6.189   3.193  12.541  0.00  0.00    +0.000 C 
ATOM     25  C   UNL     1       4.853   3.388  11.842  0.00  0.00    +0.000 C 
ENDBRANCH  19  24
ENDBRANCH  18  20
ENDBRANCH  17  18
ENDBRANCH   1  17
TORSDOF 5
ENDMDL
MODEL 2
REMARK VINA RESULT:      -6.9      4.406      6.906
REMARK  Name = 
REMARK  8 active torsions:
REMARK  status: ('A' for Active; 'I' for Inactive)
REMARK    1  A    between atoms: C_1  and  C_2
REMARK    2  A    between atoms: C_2  and  N_3
REMARK    3  A    between atoms: N_3  and  C_4
REMARK    4  A    between atoms: C_4  and  C_5
REMARK    5  A    between atoms: C_6  and  C_8
REMARK    6  A    between atoms: C_8  and  C_9
REMARK    7  A    between atoms: C_9  and  C_10
REMARK    8  A    between atoms: N_23  and  C_24
REMARK                            x       y       z     vdW  Elec       q    Type
REMARK                         _______ _______ _______ _____ _____    ______ ____
ROOT
ATOM      1  C   UNL     1       1.012   9.774  19.132  0.00  0.00    +0.000 C 
ATOM      2  C   UNL     1       0.934   9.461  20.648  0.00  0.00    +0.000 C 
ATOM      3  O   UNL     1       1.423   8.439  21.144  0.00  0.00    +0.000 OA
ATOM      4  N   UNL     1       0.505  10.367  21.577  0.00  0.00    +0.000 N 
ATOM      5  C   UNL     1      -0.540  11.299  21.488  0.00  0.00    +0.000 A 
ATOM      6  C   UNL     1      -1.296  11.442  22.662  0.00  0.00    +0.000 A 
ATOM      7  C   UNL     1      -2.485  12.169  22.658  0.00  0.00    +0.000 A 
ATOM      8 CL   UNL     1      -3.469  12.192  24.068  0.00  0.00    +0.000 Cl
ATOM      9  C   UNL     1      -2.907  12.824  21.507  0.00  0.00    +0.000 A 
ATOM     10  C   UNL     1      -2.116  12.766  20.362  0.00  0.00    +0.000 A 
ATOM     11  C   UNL     1      -0.944  12.000  20.351  0.00  0.00    +0.000 A 
ATOM     12  C   UNL     1      -0.267  11.862  19.050  0.00  0.00    +0.000 C 
ATOM     13  O   UNL     1      -0.141  12.819  18.296  0.00  0.00    +0.000 OA
ATOM     14  N   UNL     1      -0.161  10.543  18.684  0.00  0.00    +0.000 N 
ATOM     15  C   UNL     1      -0.998  10.110  17.579  0.00  0.00    +0.000 C 
ATOM     16  H   UNL     1       0.670   9.977  22.500  0.00  0.00    +0.000 HD
ENDROOT
BRANCH   1  17
ATOM     17  C   UNL     1       1.251   8.488  18.298  0.00  0.00    +0.000 C 
BRANCH  17  18
ATOM     18  C   UNL     1       2.714   8.071  18.114  0.00  0.00    +0.000 C 
BRANCH  18  20
ATOM     19  N   UNL     1       4.030   5.988  17.770  0.00  0.00    +0.000 N 
ATOM     20  C   UNL     1       2.943   6.593  18.414  0.00  0.00    +0.000 C 
ATOM     21  O   UNL     1       2.214   5.982  19.198  0.00  0.00    +0.000 OA
BRANCH  19  23
ATOM     22  C   UNL     1       4.173   3.620  17.024  0.00  0.00    +0.000 C 
ATOM     23  C   UNL     1       4.360   4.616  18.159  0.00  0.00    +0.000 C 
ENDBRANCH  19  23
BRANCH  19  24
ATOM     24  C   UNL     1       4.866   6.731  16.816  0.00  0.00    +0.000 C 
ATOM     25  C   UNL     1       6.290   7.078  17.217  0.00  0.00    +0.000 C 
ENDBRANCH  19  24
ENDBRANCH  18  20
ENDBRANCH  17  18
ENDBRANCH   1  17
TORSDOF 5
ENDMDL
MODEL 3
REMARK VINA RESULT:      -6.8      4.566      6.658
REMARK  Name = 
REMARK  8 active torsions:
REMARK  status: ('A' for Active; 'I' for Inactive)
REMARK    1  A    between atoms: C_1  and  C_2
REMARK    2  A    between atoms: C_2  and  N_3
REMARK    3  A    between atoms: N_3  and  C_4
REMARK    4  A    between atoms: C_4  and  C_5
REMARK    5  A    between atoms: C_6  and  C_8
REMARK    6  A    between atoms: C_8  and  C_9
REMARK    7  A    between atoms: C_9  and  C_10
REMARK    8  A    between atoms: N_23  and  C_24
REMARK                            x       y       z     vdW  Elec       q    Type
REMARK                         _______ _______ _______ _____ _____    ______ ____
ROOT
ATOM      1  C   UNL     1       1.481   8.278  19.441  0.00  0.00    +0.000 C 
ATOM      2  C   UNL     1       2.285   8.945  18.296  0.00  0.00    +0.000 C 
ATOM      3  O   UNL     1       3.101   8.323  17.605  0.00  0.00    +0.000 OA
ATOM      4  N   UNL     1       2.021  10.201  17.831  0.00  0.00    +0.000 N 
ATOM      5  C   UNL     1       1.656  11.352  18.546  0.00  0.00    +0.000 A 
ATOM      6  C   UNL     1       2.253  12.538  18.089  0.00  0.00    +0.000 A 
ATOM      7  C   UNL     1       2.149  13.715  18.826  0.00  0.00    +0.000 A 
ATOM      8 CL   UNL     1       3.025  15.108  18.324  0.00  0.00    +0.000 Cl
ATOM      9  C   UNL     1       1.394  13.754  19.992  0.00  0.00    +0.000 A 
ATOM     10  C   UNL     1       0.721  12.607  20.405  0.00  0.00    +0.000 A 
ATOM     11  C   UNL     1       0.859  11.411  19.690  0.00  0.00    +0.000 A 
ATOM     12  C   UNL     1       0.249  10.215  20.296  0.00  0.00    +0.000 C 
ATOM     13  O   UNL     1      -0.861  10.261  20.811  0.00  0.00    +0.000 OA
ATOM     14  N   UNL     1       1.187   9.238  20.518  0.00  0.00    +0.000 N 
ATOM     15  C   UNL     1       1.538   8.982  21.904  0.00  0.00    +0.000 C 
ATOM     16  H   UNL     1       2.587  10.359  17.003  0.00  0.00    +0.000 HD
ENDROOT
BRANCH   1  17
ATOM     17  C   UNL     1       2.178   6.988  19.950  0.00  0.00    +0.000 C 
BRANCH  17  18
ATOM     18  C   UNL     1       1.923   5.720  19.127  0.00  0.00    +0.000 C 
BRANCH  18  20
ATOM     19  N   UNL     1       2.905   3.484  19.602  0.00  0.00    +0.000 N 
ATOM     20  C   UNL     1       3.124   4.780  19.117  0.00  0.00    +0.000 C 
ATOM     21  O   UNL     1       4.218   5.149  18.683  0.00  0.00    +0.000 OA
BRANCH  19  23
ATOM     22  C   UNL     1       3.663   1.386  18.501  0.00  0.00    +0.000 C 
ATOM     23  C   UNL     1       3.999   2.521  19.458  0.00  0.00    +0.000 C 
ENDBRANCH  19  23
BRANCH  19  24
ATOM     24  C   UNL     1       1.599   3.079  20.140  0.00  0.00    +0.000 C 
ATOM     25  C   UNL     1       1.507   2.691  21.606  0.00  0.00    +0.000 C 
ENDBRANCH  19  24
ENDBRANCH  18  20
ENDBRANCH  17  18
ENDBRANCH   1  17
TORSDOF 5
ENDMDL
MODEL 4
REMARK VINA RESULT:      -6.8      3.513      8.030
REMARK  Name = 
REMARK  8 active torsions:
REMARK  status: ('A' for Active; 'I' for Inactive)
REMARK    1  A    between atoms: C_1  and  C_2
REMARK    2  A    between atoms: C_2  and  N_3
REMARK    3  A    between atoms: N_3  and  C_4
REMARK    4  A    between atoms: C_4  and  C_5
REMARK    5  A    between atoms: C_6  and  C_8
REMARK    6  A    between atoms: C_8  and  C_9
REMARK    7  A    between atoms: C_9  and  C_10
REMARK    8  A    between atoms: N_23  and  C_24
REMARK                            x       y       z     vdW  Elec       q    Type
REMARK                         _______ _______ _______ _____ _____    ______ ____
ROOT
ATOM      1  C   UNL     1       3.345   6.916  19.046  0.00  0.00    +0.000 C 
ATOM      2  C   UNL     1       3.325   7.436  17.586  0.00  0.00    +0.000 C 
ATOM      3  O   UNL     1       2.459   8.215  17.168  0.00  0.00    +0.000 OA
ATOM      4  N   UNL     1       4.354   7.242  16.710  0.00  0.00    +0.000 N 
ATOM      5  C   UNL     1       5.165   6.111  16.531  0.00  0.00    +0.000 A 
ATOM      6  C   UNL     1       5.470   5.816  15.193  0.00  0.00    +0.000 A 
ATOM      7  C   UNL     1       6.085   4.613  14.853  0.00  0.00    +0.000 A 
ATOM      8 CL   UNL     1       6.299   4.211  13.195  0.00  0.00    +0.000 Cl
ATOM      9  C   UNL     1       6.470   3.714  15.840  0.00  0.00    +0.000 A 
ATOM     10  C   UNL     1       6.256   4.038  17.178  0.00  0.00    +0.000 A 
ATOM     11  C   UNL     1       5.599   5.226  17.520  0.00  0.00    +0.000 A 
ATOM     12  C   UNL     1       5.268   5.402  18.945  0.00  0.00    +0.000 C 
ATOM     13  O   UNL     1       6.069   5.107  19.822  0.00  0.00    +0.000 OA
ATOM     14  N   UNL     1       3.916   5.561  19.123  0.00  0.00    +0.000 N 
ATOM     15  C   UNL     1       3.213   4.456  19.750  0.00  0.00    +0.000 C 
ATOM     16  H   UNL     1       4.164   7.784  15.872  0.00  0.00    +0.000 HD
ENDROOT
BRANCH   1  17
ATOM     17  C   UNL     1       1.946   7.024  19.708  0.00  0.00    +0.000 C 
BRANCH  17  18
ATOM     18  C   UNL     1       1.780   8.141  20.744  0.00  0.00    +0.000 C 
BRANCH  18  20
ATOM     19  N   UNL     1      -0.132   9.719  20.963  0.00  0.00    +0.000 N 
ATOM     20  C   UNL     1       0.979   9.323  20.207  0.00  0.00    +0.000 C 
ATOM     21  O   UNL     1       1.315   9.901  19.171  0.00  0.00    +0.000 OA
BRANCH  19  23
ATOM     22  C   UNL     1      -0.263  12.189  21.220  0.00  0.00    +0.000 C 
ATOM     23  C   UNL     1      -0.822  10.942  20.550  0.00  0.00    +0.000 C 
ENDBRANCH  19  23
BRANCH  19  24
ATOM     24  C   UNL     1      -0.528   8.993  22.179  0.00  0.00    +0.000 C 
ATOM     25  C   UNL     1      -0.099   9.548  23.527  0.00  0.00    +0.000 C 
ENDBRANCH  19  24
ENDBRANCH  18  20
ENDBRANCH  17  18
ENDBRANCH   1  17
TORSDOF 5
ENDMDL
MODEL 5
REMARK VINA RESULT:      -6.8      4.425      6.020
REMARK  Name = 
REMARK  8 active torsions:
REMARK  status: ('A' for Active; 'I' for Inactive)
REMARK    1  A    between atoms: C_1  and  C_2
REMARK    2  A    between atoms: C_2  and  N_3
REMARK    3  A    between atoms: N_3  and  C_4
REMARK    4  A    between atoms: C_4  and  C_5
REMARK    5  A    between atoms: C_6  and  C_8
REMARK    6  A    between atoms: C_8  and  C_9
REMARK    7  A    between atoms: C_9  and  C_10
REMARK    8  A    between atoms: N_23  and  C_24
REMARK                            x       y       z     vdW  Elec       q    Type
REMARK                         _______ _______ _______ _____ _____    ______ ____
ROOT
ATOM      1  C   UNL     1       6.025   6.935  18.136  0.00  0.00    +0.000 C 
ATOM      2  C   UNL     1       6.216   5.675  19.018  0.00  0.00    +0.000 C 
ATOM      3  O   UNL     1       7.330   5.274  19.374  0.00  0.00    +0.000 OA
ATOM      4  N   UNL     1       5.180   5.028  19.630  0.00  0.00    +0.000 N 
ATOM      5  C   UNL     1       3.889   4.769  19.148  0.00  0.00    +0.000 A 
ATOM      6  C   UNL     1       3.385   3.501  19.479  0.00  0.00    +0.000 A 
ATOM      7  C   UNL     1       2.211   3.029  18.896  0.00  0.00    +0.000 A 
ATOM      8 CL   UNL     1       1.707   1.413  19.198  0.00  0.00    +0.000 Cl
ATOM      9  C   UNL     1       1.480   3.832  18.030  0.00  0.00    +0.000 A 
ATOM     10  C   UNL     1       1.921   5.127  17.767  0.00  0.00    +0.000 A 
ATOM     11  C   UNL     1       3.124   5.589  18.316  0.00  0.00    +0.000 A 
ATOM     12  C   UNL     1       3.593   6.904  17.848  0.00  0.00    +0.000 C 
ATOM     13  O   UNL     1       2.817   7.841  17.709  0.00  0.00    +0.000 OA
ATOM     14  N   UNL     1       4.837   6.812  17.275  0.00  0.00    +0.000 N 
ATOM     15  C   UNL     1       4.900   6.984  15.835  0.00  0.00    +0.000 C 
ATOM     16  H   UNL     1       5.568   4.323  20.249  0.00  0.00    +0.000 HD
ENDROOT
BRANCH   1  17
ATOM     17  C   UNL     1       7.316   7.277  17.345  0.00  0.00    +0.000 C 
BRANCH  17  18
ATOM     18  C   UNL     1       7.763   8.742  17.395  0.00  0.00    +0.000 C 
BRANCH  18  20
ATOM     19  N   UNL     1       9.103  10.359  18.730  0.00  0.00    +0.000 N 
ATOM     20  C   UNL     1       8.690   9.030  18.573  0.00  0.00    +0.000 C 
ATOM     21  O   UNL     1       9.031   8.133  19.348  0.00  0.00    +0.000 OA
BRANCH  19  23
ATOM     22  C   UNL     1       9.006  11.322  21.021  0.00  0.00    +0.000 C 
ATOM     23  C   UNL     1       9.865  10.685  19.938  0.00  0.00    +0.000 C 
ENDBRANCH  19  23
BRANCH  19  24
ATOM     24  C   UNL     1       8.705  11.403  17.775  0.00  0.00    +0.000 C 
ATOM     25  C   UNL     1       9.558  12.657  17.674  0.00  0.00    +0.000 C 
ENDBRANCH  19  24
ENDBRANCH  18  20
ENDBRANCH  17  18
ENDBRANCH   1  17
TORSDOF 5
ENDMDL
MODEL 6
REMARK VINA RESULT:      -6.7      3.568      7.700
REMARK  Name = 
REMARK  8 active torsions:
REMARK  status: ('A' for Active; 'I' for Inactive)
REMARK    1  A    between atoms: C_1  and  C_2
REMARK    2  A    between atoms: C_2  and  N_3
REMARK    3  A    between atoms: N_3  and  C_4
REMARK    4  A    between atoms: C_4  and  C_5
REMARK    5  A    between atoms: C_6  and  C_8
REMARK    6  A    between atoms: C_8  and  C_9
REMARK    7  A    between atoms: C_9  and  C_10
REMARK    8  A    between atoms: N_23  and  C_24
REMARK                            x       y       z     vdW  Elec       q    Type
REMARK                         _______ _______ _______ _____ _____    ______ ____
ROOT
ATOM      1  C   UNL     1       3.290   7.004  19.172  0.00  0.00    +0.000 C 
ATOM      2  C   UNL     1       3.259   7.524  17.713  0.00  0.00    +0.000 C 
ATOM      3  O   UNL     1       2.432   8.355  17.319  0.00  0.00    +0.000 OA
ATOM      4  N   UNL     1       4.247   7.264  16.806  0.00  0.00    +0.000 N 
ATOM      5  C   UNL     1       4.978   6.083  16.606  0.00  0.00    +0.000 A 
ATOM      6  C   UNL     1       5.224   5.769  15.260  0.00  0.00    +0.000 A 
ATOM      7  C   UNL     1       5.750   4.529  14.905  0.00  0.00    +0.000 A 
ATOM      8 CL   UNL     1       5.888   4.113  13.242  0.00  0.00    +0.000 Cl
ATOM      9  C   UNL     1       6.107   3.607  15.882  0.00  0.00    +0.000 A 
ATOM     10  C   UNL     1       5.955   3.946  17.224  0.00  0.00    +0.000 A 
ATOM     11  C   UNL     1       5.385   5.173  17.583  0.00  0.00    +0.000 A 
ATOM     12  C   UNL     1       5.109   5.370  19.017  0.00  0.00    +0.000 C 
ATOM     13  O   UNL     1       5.916   5.025  19.871  0.00  0.00    +0.000 OA
ATOM     14  N   UNL     1       3.776   5.615  19.236  0.00  0.00    +0.000 N 
ATOM     15  C   UNL     1       3.023   4.558  19.886  0.00  0.00    +0.000 C 
ATOM     16  H   UNL     1       4.067   7.816  15.973  0.00  0.00    +0.000 HD
ENDROOT
BRANCH   1  17
ATOM     17  C   UNL     1       1.921   7.202  19.876  0.00  0.00    +0.000 C 
BRANCH  17  18
ATOM     18  C   UNL     1       1.796   8.449  20.758  0.00  0.00    +0.000 C 
BRANCH  18  20
ATOM     19  N   UNL     1       0.246  10.192  19.892  0.00  0.00    +0.000 N 
ATOM     20  C   UNL     1       0.401   9.063  20.707  0.00  0.00    +0.000 C 
ATOM     21  O   UNL     1      -0.536   8.569  21.339  0.00  0.00    +0.000 OA
BRANCH  19  23
ATOM     22  C   UNL     1      -1.715  10.307  18.367  0.00  0.00    +0.000 C 
ATOM     23  C   UNL     1      -1.113  10.703  19.707  0.00  0.00    +0.000 C 
ENDBRANCH  19  23
BRANCH  19  24
ATOM     24  C   UNL     1       1.386  10.778  19.172  0.00  0.00    +0.000 C 
ATOM     25  C   UNL     1       1.427  12.285  18.984  0.00  0.00    +0.000 C 
ENDBRANCH  19  24
ENDBRANCH  18  20
ENDBRANCH  17  18
ENDBRANCH   1  17
TORSDOF 5
ENDMDL
MODEL 7
REMARK VINA RESULT:      -6.7      6.703     11.601
REMARK  Name = 
REMARK  8 active torsions:
REMARK  status: ('A' for Active; 'I' for Inactive)
REMARK    1  A    between atoms: C_1  and  C_2
REMARK    2  A    between atoms: C_2  and  N_3
REMARK    3  A    between atoms: N_3  and  C_4
REMARK    4  A    between atoms: C_4  and  C_5
REMARK    5  A    between atoms: C_6  and  C_8
REMARK    6  A    between atoms: C_8  and  C_9
REMARK    7  A    between atoms: C_9  and  C_10
REMARK    8  A    between atoms: N_23  and  C_24
REMARK                            x       y       z     vdW  Elec       q    Type
REMARK                         _______ _______ _______ _____ _____    ______ ____
ROOT
ATOM      1  C   UNL     1      -0.361  11.181  21.475  0.00  0.00    +0.000 C 
ATOM      2  C   UNL     1       0.182   9.934  22.217  0.00  0.00    +0.000 C 
ATOM      3  O   UNL     1       0.250   9.869  23.451  0.00  0.00    +0.000 OA
ATOM      4  N   UNL     1       0.440   8.747  21.592  0.00  0.00    +0.000 N 
ATOM      5  C   UNL     1       1.000   8.515  20.327  0.00  0.00    +0.000 A 
ATOM      6  C   UNL     1       1.897   7.436  20.274  0.00  0.00    +0.000 A 
ATOM      7  C   UNL     1       2.683   7.221  19.144  0.00  0.00    +0.000 A 
ATOM      8 CL   UNL     1       3.886   5.992  19.171  0.00  0.00    +0.000 Cl
ATOM      9  C   UNL     1       2.542   8.028  18.022  0.00  0.00    +0.000 A 
ATOM     10  C   UNL     1       1.589   9.044  18.030  0.00  0.00    +0.000 A 
ATOM     11  C   UNL     1       0.828   9.290  19.179  0.00  0.00    +0.000 A 
ATOM     12  C   UNL     1      -0.030  10.488  19.150  0.00  0.00    +0.000 C 
ATOM     13  O   UNL     1      -0.683  10.774  18.155  0.00  0.00    +0.000 OA
ATOM     14  N   UNL     1       0.291  11.352  20.167  0.00  0.00    +0.000 N 
ATOM     15  C   UNL     1       0.945  12.589  19.780  0.00  0.00    +0.000 C 
ATOM     16  H   UNL     1       0.656   8.055  22.303  0.00  0.00    +0.000 HD
ENDROOT
BRANCH   1  17
ATOM     17  C   UNL     1      -0.282  12.451  22.364  0.00  0.00    +0.000 C 
BRANCH  17  18
ATOM     18  C   UNL     1      -1.538  13.330  22.389  0.00  0.00    +0.000 C 
BRANCH  18  20
ATOM     19  N   UNL     1      -2.741  14.443  24.261  0.00  0.00    +0.000 N 
ATOM     20  C   UNL     1      -1.538  14.315  23.554  0.00  0.00    +0.000 C 
ATOM     21  O   UNL     1      -0.521  14.943  23.857  0.00  0.00    +0.000 OA
BRANCH  19  23
ATOM     22  C   UNL     1      -3.402  16.612  25.283  0.00  0.00    +0.000 C 
ATOM     23  C   UNL     1      -2.721  15.264  25.473  0.00  0.00    +0.000 C 
ENDBRANCH  19  23
BRANCH  19  24
ATOM     24  C   UNL     1      -3.947  13.705  23.861  0.00  0.00    +0.000 C 
ATOM     25  C   UNL     1      -4.392  12.527  24.711  0.00  0.00    +0.000 C 
ENDBRANCH  19  24
ENDBRANCH  18  20
ENDBRANCH  17  18
ENDBRANCH   1  17
TORSDOF 5
ENDMDL
MODEL 8
REMARK VINA RESULT:      -6.7      5.073      8.060
REMARK  Name = 
REMARK  8 active torsions:
REMARK  status: ('A' for Active; 'I' for Inactive)
REMARK    1  A    between atoms: C_1  and  C_2
REMARK    2  A    between atoms: C_2  and  N_3
REMARK    3  A    between atoms: N_3  and  C_4
REMARK    4  A    between atoms: C_4  and  C_5
REMARK    5  A    between atoms: C_6  and  C_8
REMARK    6  A    between atoms: C_8  and  C_9
REMARK    7  A    between atoms: C_9  and  C_10
REMARK    8  A    between atoms: N_23  and  C_24
REMARK                            x       y       z     vdW  Elec       q    Type
REMARK                         _______ _______ _______ _____ _____    ______ ____
ROOT
ATOM      1  C   UNL     1       0.731   9.923  21.020  0.00  0.00    +0.000 C 
ATOM      2  C   UNL     1      -0.401   9.487  21.985  0.00  0.00    +0.000 C 
ATOM      3  O   UNL     1      -0.762   8.310  22.100  0.00  0.00    +0.000 OA
ATOM      4  N   UNL     1      -0.951  10.321  22.917  0.00  0.00    +0.000 N 
ATOM      5  C   UNL     1      -1.260  11.685  22.812  0.00  0.00    +0.000 A 
ATOM      6  C   UNL     1      -2.467  12.059  23.424  0.00  0.00    +0.000 A 
ATOM      7  C   UNL     1      -3.003  13.329  23.221  0.00  0.00    +0.000 A 
ATOM      8 CL   UNL     1      -4.559  13.702  23.850  0.00  0.00    +0.000 Cl
ATOM      9  C   UNL     1      -2.316  14.273  22.467  0.00  0.00    +0.000 A 
ATOM     10  C   UNL     1      -1.072  13.943  21.934  0.00  0.00    +0.000 A 
ATOM     11  C   UNL     1      -0.552  12.654  22.098  0.00  0.00    +0.000 A 
ATOM     12  C   UNL     1       0.684  12.349  21.357  0.00  0.00    +0.000 C 
ATOM     13  O   UNL     1       1.601  13.158  21.296  0.00  0.00    +0.000 OA
ATOM     14  N   UNL     1       0.504  11.285  20.509  0.00  0.00    +0.000 N 
ATOM     15  C   UNL     1       0.482  11.588  19.089  0.00  0.00    +0.000 C 
ATOM     16  H   UNL     1      -1.570   9.773  23.507  0.00  0.00    +0.000 HD
ENDROOT
BRANCH   1  17
ATOM     17  C   UNL     1       0.952   8.880  19.893  0.00  0.00    +0.000 C 
BRANCH  17  18
ATOM     18  C   UNL     1       1.977   7.779  20.191  0.00  0.00    +0.000 C 
BRANCH  18  20
ATOM     19  N   UNL     1       2.689   5.709  19.009  0.00  0.00    +0.000 N 
ATOM     20  C   UNL     1       2.479   7.091  18.925  0.00  0.00    +0.000 C 
ATOM     21  O   UNL     1       2.668   7.728  17.886  0.00  0.00    +0.000 OA
BRANCH  19  23
ATOM     22  C   UNL     1       3.915   3.795  18.000  0.00  0.00    +0.000 C 
ATOM     23  C   UNL     1       3.022   5.005  17.769  0.00  0.00    +0.000 C 
ENDBRANCH  19  23
BRANCH  19  24
ATOM     24  C   UNL     1       2.485   4.978  20.268  0.00  0.00    +0.000 C 
ATOM     25  C   UNL     1       1.178   4.231  20.470  0.00  0.00    +0.000 C 
ENDBRANCH  19  24
ENDBRANCH  18  20
ENDBRANCH  17  18
ENDBRANCH   1  17
TORSDOF 5
ENDMDL
MODEL 9
REMARK VINA RESULT:      -6.7      2.463      4.192
REMARK  Name = 
REMARK  8 active torsions:
REMARK  status: ('A' for Active; 'I' for Inactive)
REMARK    1  A    between atoms: C_1  and  C_2
REMARK    2  A    between atoms: C_2  and  N_3
REMARK    3  A    between atoms: N_3  and  C_4
REMARK    4  A    between atoms: C_4  and  C_5
REMARK    5  A    between atoms: C_6  and  C_8
REMARK    6  A    between atoms: C_8  and  C_9
REMARK    7  A    between atoms: C_9  and  C_10
REMARK    8  A    between atoms: N_23  and  C_24
REMARK                            x       y       z     vdW  Elec       q    Type
REMARK                         _______ _______ _______ _____ _____    ______ ____
ROOT
ATOM      1  C   UNL     1       2.618   4.826  19.296  0.00  0.00    +0.000 C 
ATOM      2  C   UNL     1       2.101   5.205  20.707  0.00  0.00    +0.000 C 
ATOM      3  O   UNL     1       1.858   4.360  21.578  0.00  0.00    +0.000 OA
ATOM      4  N   UNL     1       2.061   6.491  21.167  0.00  0.00    +0.000 N 
ATOM      5  C   UNL     1       1.721   7.666  20.482  0.00  0.00    +0.000 A 
ATOM      6  C   UNL     1       0.956   8.577  21.229  0.00  0.00    +0.000 A 
ATOM      7  C   UNL     1       0.371   9.684  20.616  0.00  0.00    +0.000 A 
ATOM      8 CL   UNL     1      -0.690  10.690  21.521  0.00  0.00    +0.000 Cl
ATOM      9  C   UNL     1       0.593   9.944  19.269  0.00  0.00    +0.000 A 
ATOM     10  C   UNL     1       1.427   9.099  18.541  0.00  0.00    +0.000 A 
ATOM     11  C   UNL     1       1.980   7.962  19.142  0.00  0.00    +0.000 A 
ATOM     12  C   UNL     1       2.706   7.040  18.252  0.00  0.00    +0.000 C 
ATOM     13  O   UNL     1       3.466   7.460  17.389  0.00  0.00    +0.000 OA
ATOM     14  N   UNL     1       2.152   5.784  18.280  0.00  0.00    +0.000 N 
ATOM     15  C   UNL     1       1.440   5.366  17.086  0.00  0.00    +0.000 C 
ATOM     16  H   UNL     1       1.813   6.467  22.152  0.00  0.00    +0.000 HD
ENDROOT
BRANCH   1  17
ATOM     17  C   UNL     1       2.279   3.353  18.943  0.00  0.00    +0.000 C 
BRANCH  17  18
ATOM     18  C   UNL     1       3.406   2.545  18.289  0.00  0.00    +0.000 C 
BRANCH  18  20
ATOM     19  N   UNL     1       5.397   3.859  17.580  0.00  0.00    +0.000 N 
ATOM     20  C   UNL     1       4.787   3.114  18.599  0.00  0.00    +0.000 C 
ATOM     21  O   UNL     1       5.318   2.935  19.697  0.00  0.00    +0.000 OA
BRANCH  19  23
ATOM     22  C   UNL     1       6.435   5.962  18.405  0.00  0.00    +0.000 C 
ATOM     23  C   UNL     1       6.650   4.540  17.908  0.00  0.00    +0.000 C 
ENDBRANCH  19  23
BRANCH  19  24
ATOM     24  C   UNL     1       4.755   4.031  16.269  0.00  0.00    +0.000 C 
ATOM     25  C   UNL     1       5.591   4.561  15.117  0.00  0.00    +0.000 C 
ENDBRANCH  19  24
ENDBRANCH  18  20
ENDBRANCH  17  18
ENDBRANCH   1  17
TORSDOF 5
ENDMDL
