MODEL 1
REMARK VINA RESULT:      -7.9      0.000      0.000
REMARK  Name = 
REMARK  3 active torsions:
REMARK  status: ('A' for Active; 'I' for Inactive)
REMARK    1  A    between atoms: C_2  and  C_3
REMARK    2  A    between atoms: C_7  and  N_8
REMARK    3  A    between atoms: C_17  and  O_18
REMARK                            x       y       z     vdW  Elec       q    Type
REMARK                         _______ _______ _______ _____ _____    ______ ____
ROOT
ATOM      1  N   UNL     1       4.812   5.163  18.414  0.00  0.00    +0.000 N 
ATOM      2  C   UNL     1       5.587   5.104  17.226  0.00  0.00    +0.000 A 
ATOM      3  N   UNL     1       5.150   4.356  16.184  0.00  0.00    +0.000 NA
ATOM      4  C   UNL     1       5.936   4.469  15.083  0.00  0.00    +0.000 A 
ATOM      5  N   UNL     1       5.740   3.873  13.909  0.00  0.00    +0.000 NA
ATOM      6  O   UNL     1       6.796   4.315  13.112  0.00  0.00    +0.000 OA
ATOM      7  N   UNL     1       7.651   5.181  13.799  0.00  0.00    +0.000 NA
ATOM      8  C   UNL     1       7.121   5.280  15.019  0.00  0.00    +0.000 A 
ATOM      9  N   UNL     1       7.597   6.022  16.063  0.00  0.00    +0.000 NA
ATOM     10  C   UNL     1       6.774   5.890  17.134  0.00  0.00    +0.000 A 
ATOM     11  H   UNL     1       5.414   5.223  19.230  0.00  0.00    +0.000 HD
ENDROOT
BRANCH   1  16
ATOM     12  C   UNL     1       1.961   3.394  20.088  0.00  0.00    +0.000 A 
ATOM     13  C   UNL     1       1.012   3.412  19.067  0.00  0.00    +0.000 A 
ATOM     14  C   UNL     1       1.332   3.982  17.835  0.00  0.00    +0.000 A 
ATOM     15  C   UNL     1       2.594   4.549  17.627  0.00  0.00    +0.000 A 
ATOM     16  C   UNL     1       3.551   4.577  18.651  0.00  0.00    +0.000 A 
ATOM     17  C   UNL     1       3.222   3.962  19.870  0.00  0.00    +0.000 A 
BRANCH  12  19
ATOM     18  N   UNL     1       1.404   2.296  22.374  0.00  0.00    +0.000 NA
ATOM     19  C   UNL     1       1.654   2.793  21.354  0.00  0.00    +0.000 C 
ENDBRANCH  12  19
ENDBRANCH   1  16
BRANCH  10  20
ATOM     20  O   UNL     1       7.206   6.605  18.218  0.00  0.00    +0.000 OA
ATOM     21  H   UNL     1       6.362   6.785  18.675  0.00  0.00    +0.000 HD
ENDBRANCH  10  20
TORSDOF 3
ENDMDL
MODEL 2
REMARK VINA RESULT:      -7.6      2.992      6.783
REMARK  Name = 
REMARK  3 active torsions:
REMARK  status: ('A' for Active; 'I' for Inactive)
REMARK    1  A    between atoms: C_2  and  C_3
REMARK    2  A    between atoms: C_7  and  N_8
REMARK    3  A    between atoms: C_17  and  O_18
REMARK                            x       y       z     vdW  Elec       q    Type
REMARK                         _______ _______ _______ _____ _____    ______ ____
ROOT
ATOM      1  N   UNL     1       3.456   4.444  16.926  0.00  0.00    +0.000 N 
ATOM      2  C   UNL     1       2.935   3.862  18.111  0.00  0.00    +0.000 A 
ATOM      3  N   UNL     1       3.788   3.462  19.084  0.00  0.00    +0.000 NA
ATOM      4  C   UNL     1       3.151   3.015  20.197  0.00  0.00    +0.000 A 
ATOM      5  N   UNL     1       3.727   2.584  21.317  0.00  0.00    +0.000 NA
ATOM      6  O   UNL     1       2.661   2.258  22.156  0.00  0.00    +0.000 OA
ATOM      7  N   UNL     1       1.423   2.481  21.548  0.00  0.00    +0.000 NA
ATOM      8  C   UNL     1       1.722   2.951  20.337  0.00  0.00    +0.000 A 
ATOM      9  N   UNL     1       0.841   3.323  19.360  0.00  0.00    +0.000 NA
ATOM     10  C   UNL     1       1.521   3.775  18.275  0.00  0.00    +0.000 A 
ATOM     11  H   UNL     1       2.893   4.182  16.122  0.00  0.00    +0.000 HD
ENDROOT
BRANCH   1  16
ATOM     12  C   UNL     1       6.799   6.141  16.862  0.00  0.00    +0.000 A 
ATOM     13  C   UNL     1       7.500   5.297  16.003  0.00  0.00    +0.000 A 
ATOM     14  C   UNL     1       6.856   4.197  15.436  0.00  0.00    +0.000 A 
ATOM     15  C   UNL     1       5.516   3.930  15.741  0.00  0.00    +0.000 A 
ATOM     16  C   UNL     1       4.803   4.744  16.632  0.00  0.00    +0.000 A 
ATOM     17  C   UNL     1       5.459   5.868  17.159  0.00  0.00    +0.000 A 
BRANCH  12  19
ATOM     18  N   UNL     1       7.954   8.218  17.909  0.00  0.00    +0.000 NA
ATOM     19  C   UNL     1       7.442   7.288  17.437  0.00  0.00    +0.000 C 
ENDBRANCH  12  19
ENDBRANCH   1  16
BRANCH  10  20
ATOM     20  O   UNL     1       0.690   4.154  17.257  0.00  0.00    +0.000 OA
ATOM     21  H   UNL     1       1.042   3.623  16.516  0.00  0.00    +0.000 HD
ENDBRANCH  10  20
TORSDOF 3
ENDMDL
MODEL 3
REMARK VINA RESULT:      -7.6      3.257      6.724
REMARK  Name = 
REMARK  3 active torsions:
REMARK  status: ('A' for Active; 'I' for Inactive)
REMARK    1  A    between atoms: C_2  and  C_3
REMARK    2  A    between atoms: C_7  and  N_8
REMARK    3  A    between atoms: C_17  and  O_18
REMARK                            x       y       z     vdW  Elec       q    Type
REMARK                         _______ _______ _______ _____ _____    ______ ____
ROOT
ATOM      1  N   UNL     1       5.982   3.628  18.755  0.00  0.00    +0.000 N 
ATOM      2  C   UNL     1       4.725   3.571  19.413  0.00  0.00    +0.000 A 
ATOM      3  N   UNL     1       3.827   4.566  19.216  0.00  0.00    +0.000 NA
ATOM      4  C   UNL     1       2.636   4.333  19.827  0.00  0.00    +0.000 A 
ATOM      5  N   UNL     1       1.563   5.120  19.788  0.00  0.00    +0.000 NA
ATOM      6  O   UNL     1       0.606   4.444  20.545  0.00  0.00    +0.000 OA
ATOM      7  N   UNL     1       1.094   3.240  21.060  0.00  0.00    +0.000 NA
ATOM      8  C   UNL     1       2.349   3.167  20.616  0.00  0.00    +0.000 A 
ATOM      9  N   UNL     1       3.247   2.163  20.851  0.00  0.00    +0.000 NA
ATOM     10  C   UNL     1       4.414   2.431  20.212  0.00  0.00    +0.000 A 
ATOM     11  H   UNL     1       6.712   3.240  19.345  0.00  0.00    +0.000 HD
ENDROOT
BRANCH   1  16
ATOM     12  C   UNL     1       7.343   6.790  17.270  0.00  0.00    +0.000 A 
ATOM     13  C   UNL     1       7.291   6.480  15.912  0.00  0.00    +0.000 A 
ATOM     14  C   UNL     1       6.785   5.246  15.503  0.00  0.00    +0.000 A 
ATOM     15  C   UNL     1       6.346   4.315  16.451  0.00  0.00    +0.000 A 
ATOM     16  C   UNL     1       6.424   4.590  17.823  0.00  0.00    +0.000 A 
ATOM     17  C   UNL     1       6.899   5.854  18.211  0.00  0.00    +0.000 A 
BRANCH  12  19
ATOM     18  N   UNL     1       8.235   9.097  18.062  0.00  0.00    +0.000 NA
ATOM     19  C   UNL     1       7.842   8.063  17.705  0.00  0.00    +0.000 C 
ENDBRANCH  12  19
ENDBRANCH   1  16
BRANCH  10  20
ATOM     20  O   UNL     1       5.358   1.462  20.418  0.00  0.00    +0.000 OA
ATOM     21  H   UNL     1       6.105   1.810  19.894  0.00  0.00    +0.000 HD
ENDBRANCH  10  20
TORSDOF 3
ENDMDL
MODEL 4
REMARK VINA RESULT:      -7.5      3.845      4.419
REMARK  Name = 
REMARK  3 active torsions:
REMARK  status: ('A' for Active; 'I' for Inactive)
REMARK    1  A    between atoms: C_2  and  C_3
REMARK    2  A    between atoms: C_7  and  N_8
REMARK    3  A    between atoms: C_17  and  O_18
REMARK                            x       y       z     vdW  Elec       q    Type
REMARK                         _______ _______ _______ _____ _____    ______ ____
ROOT
ATOM      1  N   UNL     1       2.922   6.069  19.499  0.00  0.00    +0.000 N 
ATOM      2  C   UNL     1       4.080   5.734  18.750  0.00  0.00    +0.000 A 
ATOM      3  N   UNL     1       4.610   6.649  17.903  0.00  0.00    +0.000 NA
ATOM      4  C   UNL     1       5.768   6.232  17.329  0.00  0.00    +0.000 A 
ATOM      5  N   UNL     1       6.521   6.925  16.477  0.00  0.00    +0.000 NA
ATOM      6  O   UNL     1       7.595   6.082  16.194  0.00  0.00    +0.000 OA
ATOM      7  N   UNL     1       7.499   4.860  16.865  0.00  0.00    +0.000 NA
ATOM      8  C   UNL     1       6.371   4.950  17.570  0.00  0.00    +0.000 A 
ATOM      9  N   UNL     1       5.842   4.000  18.399  0.00  0.00    +0.000 NA
ATOM     10  C   UNL     1       4.697   4.465  18.960  0.00  0.00    +0.000 A 
ATOM     11  H   UNL     1       2.323   5.255  19.613  0.00  0.00    +0.000 HD
ENDROOT
BRANCH   1  16
ATOM     12  C   UNL     1       1.078   9.086  20.747  0.00  0.00    +0.000 A 
ATOM     13  C   UNL     1       0.903   9.791  19.557  0.00  0.00    +0.000 A 
ATOM     14  C   UNL     1       1.370   9.252  18.358  0.00  0.00    +0.000 A 
ATOM     15  C   UNL     1       2.027   8.017  18.350  0.00  0.00    +0.000 A 
ATOM     16  C   UNL     1       2.248   7.308  19.539  0.00  0.00    +0.000 A 
ATOM     17  C   UNL     1       1.734   7.850  20.728  0.00  0.00    +0.000 A 
BRANCH  12  19
ATOM     18  N   UNL     1       0.193  10.056  22.987  0.00  0.00    +0.000 NA
ATOM     19  C   UNL     1       0.584   9.618  21.985  0.00  0.00    +0.000 C 
ENDBRANCH  12  19
ENDBRANCH   1  16
BRANCH  10  20
ATOM     20  O   UNL     1       4.115   3.552  19.795  0.00  0.00    +0.000 OA
ATOM     21  H   UNL     1       3.168   3.692  19.599  0.00  0.00    +0.000 HD
ENDBRANCH  10  20
TORSDOF 3
ENDMDL
MODEL 5
REMARK VINA RESULT:      -7.4      3.292      6.442
REMARK  Name = 
REMARK  3 active torsions:
REMARK  status: ('A' for Active; 'I' for Inactive)
REMARK    1  A    between atoms: C_2  and  C_3
REMARK    2  A    between atoms: C_7  and  N_8
REMARK    3  A    between atoms: C_17  and  O_18
REMARK                            x       y       z     vdW  Elec       q    Type
REMARK                         _______ _______ _______ _____ _____    ______ ____
ROOT
ATOM      1  N   UNL     1       5.835   3.795  18.820  0.00  0.00    +0.000 N 
ATOM      2  C   UNL     1       4.471   3.424  18.947  0.00  0.00    +0.000 A 
ATOM      3  N   UNL     1       3.545   4.019  18.158  0.00  0.00    +0.000 NA
ATOM      4  C   UNL     1       2.300   3.500  18.317  0.00  0.00    +0.000 A 
ATOM      5  N   UNL     1       1.202   3.867  17.660  0.00  0.00    +0.000 NA
ATOM      6  O   UNL     1       0.200   3.035  18.161  0.00  0.00    +0.000 OA
ATOM      7  N   UNL     1       0.681   2.158  19.136  0.00  0.00    +0.000 NA
ATOM      8  C   UNL     1       1.980   2.440  19.234  0.00  0.00    +0.000 A 
ATOM      9  N   UNL     1       2.891   1.842  20.059  0.00  0.00    +0.000 NA
ATOM     10  C   UNL     1       4.120   2.382  19.856  0.00  0.00    +0.000 A 
ATOM     11  H   UNL     1       6.298   3.769  19.725  0.00  0.00    +0.000 HD
ENDROOT
BRANCH   1  16
ATOM     12  C   UNL     1       7.412   6.851  17.324  0.00  0.00    +0.000 A 
ATOM     13  C   UNL     1       7.521   6.458  15.991  0.00  0.00    +0.000 A 
ATOM     14  C   UNL     1       7.049   5.205  15.598  0.00  0.00    +0.000 A 
ATOM     15  C   UNL     1       6.485   4.337  16.540  0.00  0.00    +0.000 A 
ATOM     16  C   UNL     1       6.401   4.696  17.893  0.00  0.00    +0.000 A 
ATOM     17  C   UNL     1       6.845   5.977  18.258  0.00  0.00    +0.000 A 
BRANCH  12  19
ATOM     18  N   UNL     1       8.244   9.196  18.066  0.00  0.00    +0.000 NA
ATOM     19  C   UNL     1       7.874   8.144  17.739  0.00  0.00    +0.000 C 
ENDBRANCH  12  19
ENDBRANCH   1  16
BRANCH  10  20
ATOM     20  O   UNL     1       5.075   1.828  20.663  0.00  0.00    +0.000 OA
ATOM     21  H   UNL     1       5.829   1.760  20.047  0.00  0.00    +0.000 HD
ENDBRANCH  10  20
TORSDOF 3
ENDMDL
MODEL 6
REMARK VINA RESULT:      -7.4      1.965      2.241
REMARK  Name = 
REMARK  3 active torsions:
REMARK  status: ('A' for Active; 'I' for Inactive)
REMARK    1  A    between atoms: C_2  and  C_3
REMARK    2  A    between atoms: C_7  and  N_8
REMARK    3  A    between atoms: C_17  and  O_18
REMARK                            x       y       z     vdW  Elec       q    Type
REMARK                         _______ _______ _______ _____ _____    ______ ____
ROOT
ATOM      1  N   UNL     1       5.274   4.550  19.207  0.00  0.00    +0.000 N 
ATOM      2  C   UNL     1       5.771   4.464  17.880  0.00  0.00    +0.000 A 
ATOM      3  N   UNL     1       4.899   4.343  16.850  0.00  0.00    +0.000 NA
ATOM      4  C   UNL     1       5.505   4.371  15.636  0.00  0.00    +0.000 A 
ATOM      5  N   UNL     1       4.902   4.298  14.451  0.00  0.00    +0.000 NA
ATOM      6  O   UNL     1       5.940   4.386  13.524  0.00  0.00    +0.000 OA
ATOM      7  N   UNL     1       7.189   4.505  14.139  0.00  0.00    +0.000 NA
ATOM      8  C   UNL     1       6.924   4.498  15.445  0.00  0.00    +0.000 A 
ATOM      9  N   UNL     1       7.826   4.595  16.468  0.00  0.00    +0.000 NA
ATOM     10  C   UNL     1       7.176   4.577  17.659  0.00  0.00    +0.000 A 
ATOM     11  H   UNL     1       5.902   4.082  19.854  0.00  0.00    +0.000 HD
ENDROOT
BRANCH   1  16
ATOM     12  C   UNL     1       1.955   5.816  20.408  0.00  0.00    +0.000 A 
ATOM     13  C   UNL     1       1.226   4.629  20.449  0.00  0.00    +0.000 A 
ATOM     14  C   UNL     1       1.843   3.426  20.107  0.00  0.00    +0.000 A 
ATOM     15  C   UNL     1       3.184   3.410  19.707  0.00  0.00    +0.000 A 
ATOM     16  C   UNL     1       3.926   4.597  19.621  0.00  0.00    +0.000 A 
ATOM     17  C   UNL     1       3.297   5.790  20.009  0.00  0.00    +0.000 A 
BRANCH  12  19
ATOM     18  N   UNL     1       0.851   8.068  21.082  0.00  0.00    +0.000 NA
ATOM     19  C   UNL     1       1.340   7.059  20.777  0.00  0.00    +0.000 C 
ENDBRANCH  12  19
ENDBRANCH   1  16
BRANCH  10  20
ATOM     20  O   UNL     1       8.030   4.662  18.724  0.00  0.00    +0.000 OA
ATOM     21  H   UNL     1       8.062   5.628  18.866  0.00  0.00    +0.000 HD
ENDBRANCH  10  20
TORSDOF 3
ENDMDL
MODEL 7
REMARK VINA RESULT:      -7.4      2.910      6.706
REMARK  Name = 
REMARK  3 active torsions:
REMARK  status: ('A' for Active; 'I' for Inactive)
REMARK    1  A    between atoms: C_2  and  C_3
REMARK    2  A    between atoms: C_7  and  N_8
REMARK    3  A    between atoms: C_17  and  O_18
REMARK                            x       y       z     vdW  Elec       q    Type
REMARK                         _______ _______ _______ _____ _____    ______ ____
ROOT
ATOM      1  N   UNL     1       4.011   6.127  17.843  0.00  0.00    +0.000 N 
ATOM      2  C   UNL     1       3.445   5.377  18.907  0.00  0.00    +0.000 A 
ATOM      3  N   UNL     1       3.918   4.134  19.168  0.00  0.00    +0.000 NA
ATOM      4  C   UNL     1       3.356   3.573  20.269  0.00  0.00    +0.000 A 
ATOM      5  N   UNL     1       3.642   2.377  20.779  0.00  0.00    +0.000 NA
ATOM      6  O   UNL     1       2.822   2.270  21.902  0.00  0.00    +0.000 OA
ATOM      7  N   UNL     1       2.022   3.401  22.081  0.00  0.00    +0.000 NA
ATOM      8  C   UNL     1       2.350   4.210  21.074  0.00  0.00    +0.000 A 
ATOM      9  N   UNL     1       1.838   5.451  20.817  0.00  0.00    +0.000 NA
ATOM     10  C   UNL     1       2.438   5.978  19.719  0.00  0.00    +0.000 A 
ATOM     11  H   UNL     1       3.300   6.693  17.388  0.00  0.00    +0.000 HD
ENDROOT
BRANCH   1  16
ATOM     12  C   UNL     1       6.028   4.723  15.011  0.00  0.00    +0.000 A 
ATOM     13  C   UNL     1       7.316   5.077  15.412  0.00  0.00    +0.000 A 
ATOM     14  C   UNL     1       7.504   5.748  16.620  0.00  0.00    +0.000 A 
ATOM     15  C   UNL     1       6.405   6.081  17.420  0.00  0.00    +0.000 A 
ATOM     16  C   UNL     1       5.099   5.770  17.019  0.00  0.00    +0.000 A 
ATOM     17  C   UNL     1       4.936   5.059  15.819  0.00  0.00    +0.000 A 
BRANCH  12  19
ATOM     18  N   UNL     1       5.647   3.450  12.781  0.00  0.00    +0.000 NA
ATOM     19  C   UNL     1       5.820   4.014  13.781  0.00  0.00    +0.000 C 
ENDBRANCH  12  19
ENDBRANCH   1  16
BRANCH  10  20
ATOM     20  O   UNL     1       1.958   7.219  19.404  0.00  0.00    +0.000 OA
ATOM     21  H   UNL     1       1.280   6.998  18.738  0.00  0.00    +0.000 HD
ENDBRANCH  10  20
TORSDOF 3
ENDMDL
MODEL 8
REMARK VINA RESULT:      -7.3      1.454      1.474
REMARK  Name = 
REMARK  3 active torsions:
REMARK  status: ('A' for Active; 'I' for Inactive)
REMARK    1  A    between atoms: C_2  and  C_3
REMARK    2  A    between atoms: C_7  and  N_8
REMARK    3  A    between atoms: C_17  and  O_18
REMARK                            x       y       z     vdW  Elec       q    Type
REMARK                         _______ _______ _______ _____ _____    ______ ____
ROOT
ATOM      1  N   UNL     1       5.455   4.788  19.167  0.00  0.00    +0.000 N 
ATOM      2  C   UNL     1       5.863   4.585  17.823  0.00  0.00    +0.000 A 
ATOM      3  N   UNL     1       4.923   4.426  16.860  0.00  0.00    +0.000 NA
ATOM      4  C   UNL     1       5.452   4.341  15.612  0.00  0.00    +0.000 A 
ATOM      5  N   UNL     1       4.772   4.207  14.475  0.00  0.00    +0.000 NA
ATOM      6  O   UNL     1       5.752   4.184  13.483  0.00  0.00    +0.000 OA
ATOM      7  N   UNL     1       7.041   4.295  14.010  0.00  0.00    +0.000 NA
ATOM      8  C   UNL     1       6.859   4.394  15.327  0.00  0.00    +0.000 A 
ATOM      9  N   UNL     1       7.828   4.527  16.283  0.00  0.00    +0.000 NA
ATOM     10  C   UNL     1       7.254   4.623  17.509  0.00  0.00    +0.000 A 
ATOM     11  H   UNL     1       6.106   4.343  19.809  0.00  0.00    +0.000 HD
ENDROOT
BRANCH   1  16
ATOM     12  C   UNL     1       2.203   4.072  20.891  0.00  0.00    +0.000 A 
ATOM     13  C   UNL     1       1.499   5.242  20.610  0.00  0.00    +0.000 A 
ATOM     14  C   UNL     1       2.094   6.238  19.835  0.00  0.00    +0.000 A 
ATOM     15  C   UNL     1       3.399   6.073  19.356  0.00  0.00    +0.000 A 
ATOM     16  C   UNL     1       4.139   4.921  19.658  0.00  0.00    +0.000 A 
ATOM     17  C   UNL     1       3.506   3.915  20.405  0.00  0.00    +0.000 A 
BRANCH  12  19
ATOM     18  N   UNL     1       1.103   2.193  22.306  0.00  0.00    +0.000 NA
ATOM     19  C   UNL     1       1.596   3.029  21.668  0.00  0.00    +0.000 C 
ENDBRANCH  12  19
ENDBRANCH   1  16
BRANCH  10  20
ATOM     20  O   UNL     1       8.178   4.749  18.511  0.00  0.00    +0.000 OA
ATOM     21  H   UNL     1       8.693   3.928  18.398  0.00  0.00    +0.000 HD
ENDBRANCH  10  20
TORSDOF 3
ENDMDL
MODEL 9
REMARK VINA RESULT:      -7.3      3.037      6.480
REMARK  Name = 
REMARK  3 active torsions:
REMARK  status: ('A' for Active; 'I' for Inactive)
REMARK    1  A    between atoms: C_2  and  C_3
REMARK    2  A    between atoms: C_7  and  N_8
REMARK    3  A    between atoms: C_17  and  O_18
REMARK                            x       y       z     vdW  Elec       q    Type
REMARK                         _______ _______ _______ _____ _____    ______ ____
ROOT
ATOM      1  N   UNL     1       5.894   3.961  16.704  0.00  0.00    +0.000 N 
ATOM      2  C   UNL     1       5.052   4.753  17.528  0.00  0.00    +0.000 A 
ATOM      3  N   UNL     1       4.491   5.876  17.019  0.00  0.00    +0.000 NA
ATOM      4  C   UNL     1       3.634   6.480  17.883  0.00  0.00    +0.000 A 
ATOM      5  N   UNL     1       2.923   7.581  17.649  0.00  0.00    +0.000 NA
ATOM      6  O   UNL     1       2.196   7.783  18.822  0.00  0.00    +0.000 OA
ATOM      7  N   UNL     1       2.467   6.809  19.786  0.00  0.00    +0.000 NA
ATOM      8  C   UNL     1       3.355   6.000  19.208  0.00  0.00    +0.000 A 
ATOM      9  N   UNL     1       3.928   4.885  19.754  0.00  0.00    +0.000 NA
ATOM     10  C   UNL     1       4.763   4.309  18.852  0.00  0.00    +0.000 A 
ATOM     11  H   UNL     1       6.648   3.555  17.251  0.00  0.00    +0.000 HD
ENDROOT
BRANCH   1  16
ATOM     12  C   UNL     1       5.699   3.834  12.962  0.00  0.00    +0.000 A 
ATOM     13  C   UNL     1       6.839   4.560  12.620  0.00  0.00    +0.000 A 
ATOM     14  C   UNL     1       7.669   5.058  13.624  0.00  0.00    +0.000 A 
ATOM     15  C   UNL     1       7.352   4.846  14.971  0.00  0.00    +0.000 A 
ATOM     16  C   UNL     1       6.191   4.152  15.338  0.00  0.00    +0.000 A 
ATOM     17  C   UNL     1       5.392   3.625  14.312  0.00  0.00    +0.000 A 
BRANCH  12  19
ATOM     18  N   UNL     1       4.147   2.866  11.119  0.00  0.00    +0.000 NA
ATOM     19  C   UNL     1       4.847   3.297  11.940  0.00  0.00    +0.000 C 
ENDBRANCH  12  19
ENDBRANCH   1  16
BRANCH  10  20
ATOM     20  O   UNL     1       5.376   3.190  19.347  0.00  0.00    +0.000 OA
ATOM     21  H   UNL     1       5.010   2.499  18.761  0.00  0.00    +0.000 HD
ENDBRANCH  10  20
TORSDOF 3
ENDMDL
