MODEL 1
REMARK VINA RESULT:      -6.4      0.000      0.000
REMARK  Name = 
REMARK  8 active torsions:
REMARK  status: ('A' for Active; 'I' for Inactive)
REMARK    1  A    between atoms: C_1  and  C_2
REMARK    2  A    between atoms: C_2  and  C_3
REMARK    3  A    between atoms: C_5  and  C_6
REMARK    4  A    between atoms: C_6  and  C_7
REMARK    5  A    between atoms: C_7  and  N_8
REMARK    6  A    between atoms: N_8  and  C_9
REMARK    7  A    between atoms: C_14  and  C_15
REMARK    8  A    between atoms: C_18  and  C_19
REMARK                            x       y       z     vdW  Elec       q    Type
REMARK                         _______ _______ _______ _____ _____    ______ ____
ROOT
ATOM      1  C   UNL     1       3.701   7.277  17.572  0.00  0.00    +0.000 C 
ENDROOT
BRANCH   1   2
ATOM      2  N   UNL     1       4.801   6.433  18.084  0.00  0.00    +0.000 N 
ATOM      3  H   UNL     1       4.471   5.751  18.764  0.00  0.00    +0.000 HD
BRANCH   2   4
ATOM      4  C   UNL     1       5.524   5.769  17.069  0.00  0.00    +0.000 A 
ATOM      5  N   UNL     1       4.968   5.678  15.840  0.00  0.00    +0.000 NA
ATOM      6  C   UNL     1       5.643   5.047  14.857  0.00  0.00    +0.000 A 
ATOM      7  C   UNL     1       6.893   4.488  15.023  0.00  0.00    +0.000 A 
ATOM      8  C   UNL     1       7.482   4.593  16.277  0.00  0.00    +0.000 A 
ATOM      9  C   UNL     1       6.799   5.238  17.318  0.00  0.00    +0.000 A 
BRANCH   9  10
ATOM     10  C   UNL     1       7.423   5.317  18.603  0.00  0.00    +0.000 C 
ATOM     11  N   UNL     1       7.881   5.402  19.667  0.00  0.00    +0.000 NA
ENDBRANCH   9  10
ENDBRANCH   2   4
ENDBRANCH   1   2
BRANCH   1  12
ATOM     12  C   UNL     1       2.467   7.164  18.470  0.00  0.00    +0.000 C 
BRANCH  12  15
ATOM     13  C   UNL     1       2.024   3.546  18.936  0.00  0.00    +0.000 A 
ATOM     14  N   UNL     1       2.316   4.680  18.192  0.00  0.00    +0.000 NA
ATOM     15  C   UNL     1       2.244   5.759  18.948  0.00  0.00    +0.000 A 
ATOM     16  S   UNL     1       1.825   5.467  20.588  0.00  0.00    +0.000 S 
ATOM     17  C   UNL     1       1.731   3.785  20.269  0.00  0.00    +0.000 A 
ATOM     18  C   UNL     1       1.372   2.821  21.343  0.00  0.00    +0.000 C 
BRANCH  13  20
ATOM     19  C   UNL     1       3.453   1.668  18.088  0.00  0.00    +0.000 C 
ATOM     20  C   UNL     1       2.045   2.221  18.241  0.00  0.00    +0.000 C 
ENDBRANCH  13  20
ENDBRANCH  12  15
ENDBRANCH   1  12
TORSDOF 6
ENDMDL
MODEL 2
REMARK VINA RESULT:      -6.3      1.904      5.646
REMARK  Name = 
REMARK  8 active torsions:
REMARK  status: ('A' for Active; 'I' for Inactive)
REMARK    1  A    between atoms: C_1  and  C_2
REMARK    2  A    between atoms: C_2  and  C_3
REMARK    3  A    between atoms: C_5  and  C_6
REMARK    4  A    between atoms: C_6  and  C_7
REMARK    5  A    between atoms: C_7  and  N_8
REMARK    6  A    between atoms: N_8  and  C_9
REMARK    7  A    between atoms: C_14  and  C_15
REMARK    8  A    between atoms: C_18  and  C_19
REMARK                            x       y       z     vdW  Elec       q    Type
REMARK                         _______ _______ _______ _____ _____    ______ ____
ROOT
ATOM      1  C   UNL     1       2.721   2.567  17.531  0.00  0.00    +0.000 C 
ENDROOT
BRANCH   1   2
ATOM      2  N   UNL     1       1.591   3.077  18.336  0.00  0.00    +0.000 N 
ATOM      3  H   UNL     1       1.347   2.442  19.093  0.00  0.00    +0.000 HD
BRANCH   2   4
ATOM      4  C   UNL     1       1.809   4.369  18.862  0.00  0.00    +0.000 A 
ATOM      5  N   UNL     1       1.970   5.396  17.995  0.00  0.00    +0.000 NA
ATOM      6  C   UNL     1       2.179   6.638  18.478  0.00  0.00    +0.000 A 
ATOM      7  C   UNL     1       2.229   6.938  19.823  0.00  0.00    +0.000 A 
ATOM      8  C   UNL     1       2.046   5.895  20.722  0.00  0.00    +0.000 A 
ATOM      9  C   UNL     1       1.833   4.593  20.247  0.00  0.00    +0.000 A 
BRANCH   9  10
ATOM     10  C   UNL     1       1.663   3.535  21.195  0.00  0.00    +0.000 C 
ATOM     11  N   UNL     1       1.480   2.706  21.988  0.00  0.00    +0.000 NA
ENDBRANCH   9  10
ENDBRANCH   2   4
ENDBRANCH   1   2
BRANCH   1  12
ATOM     12  C   UNL     1       4.035   2.680  18.309  0.00  0.00    +0.000 C 
BRANCH  12  15
ATOM     13  C   UNL     1       6.261   4.708  16.203  0.00  0.00    +0.000 A 
ATOM     14  N   UNL     1       5.378   3.665  16.438  0.00  0.00    +0.000 NA
ATOM     15  C   UNL     1       4.971   3.679  17.693  0.00  0.00    +0.000 A 
ATOM     16  S   UNL     1       5.625   4.946  18.652  0.00  0.00    +0.000 S 
ATOM     17  C   UNL     1       6.515   5.514  17.301  0.00  0.00    +0.000 A 
ATOM     18  C   UNL     1       7.401   6.703  17.414  0.00  0.00    +0.000 C 
BRANCH  13  20
ATOM     19  C   UNL     1       6.136   3.964  13.811  0.00  0.00    +0.000 C 
ATOM     20  C   UNL     1       6.840   4.847  14.830  0.00  0.00    +0.000 C 
ENDBRANCH  13  20
ENDBRANCH  12  15
ENDBRANCH   1  12
TORSDOF 6
ENDMDL
MODEL 3
REMARK VINA RESULT:      -6.1      1.730      4.111
REMARK  Name = 
REMARK  8 active torsions:
REMARK  status: ('A' for Active; 'I' for Inactive)
REMARK    1  A    between atoms: C_1  and  C_2
REMARK    2  A    between atoms: C_2  and  C_3
REMARK    3  A    between atoms: C_5  and  C_6
REMARK    4  A    between atoms: C_6  and  C_7
REMARK    5  A    between atoms: C_7  and  N_8
REMARK    6  A    between atoms: N_8  and  C_9
REMARK    7  A    between atoms: C_14  and  C_15
REMARK    8  A    between atoms: C_18  and  C_19
REMARK                            x       y       z     vdW  Elec       q    Type
REMARK                         _______ _______ _______ _____ _____    ______ ____
ROOT
ATOM      1  C   UNL     1       4.461   3.558  18.846  0.00  0.00    +0.000 C 
ENDROOT
BRANCH   1   2
ATOM      2  N   UNL     1       5.600   3.630  17.907  0.00  0.00    +0.000 N 
ATOM      3  H   UNL     1       5.295   3.587  16.936  0.00  0.00    +0.000 HD
BRANCH   2   4
ATOM      4  C   UNL     1       6.414   4.768  18.091  0.00  0.00    +0.000 A 
ATOM      5  N   UNL     1       7.095   4.888  19.254  0.00  0.00    +0.000 NA
ATOM      6  C   UNL     1       7.878   5.969  19.450  0.00  0.00    +0.000 A 
ATOM      7  C   UNL     1       8.044   6.973  18.519  0.00  0.00    +0.000 A 
ATOM      8  C   UNL     1       7.364   6.851  17.314  0.00  0.00    +0.000 A 
ATOM      9  C   UNL     1       6.538   5.741  17.088  0.00  0.00    +0.000 A 
BRANCH   9  10
ATOM     10  C   UNL     1       5.837   5.649  15.843  0.00  0.00    +0.000 C 
ATOM     11  N   UNL     1       5.263   5.517  14.842  0.00  0.00    +0.000 NA
ENDBRANCH   9  10
ENDBRANCH   2   4
ENDBRANCH   1   2
BRANCH   1  12
ATOM     12  C   UNL     1       3.171   4.035  18.172  0.00  0.00    +0.000 C 
BRANCH  12  15
ATOM     13  C   UNL     1       2.356   7.573  18.742  0.00  0.00    +0.000 A 
ATOM     14  N   UNL     1       2.803   6.505  17.978  0.00  0.00    +0.000 NA
ATOM     15  C   UNL     1       2.740   5.383  18.671  0.00  0.00    +0.000 A 
ATOM     16  S   UNL     1       2.139   5.555  20.271  0.00  0.00    +0.000 S 
ATOM     17  C   UNL     1       1.953   7.241  20.025  0.00  0.00    +0.000 A 
ATOM     18  C   UNL     1       1.429   8.119  21.106  0.00  0.00    +0.000 C 
BRANCH  13  20
ATOM     19  C   UNL     1       0.964   9.451  17.834  0.00  0.00    +0.000 C 
ATOM     20  C   UNL     1       2.365   8.935  18.123  0.00  0.00    +0.000 C 
ENDBRANCH  13  20
ENDBRANCH  12  15
ENDBRANCH   1  12
TORSDOF 6
ENDMDL
MODEL 4
REMARK VINA RESULT:      -6.1      1.064      1.064
REMARK  Name = 
REMARK  8 active torsions:
REMARK  status: ('A' for Active; 'I' for Inactive)
REMARK    1  A    between atoms: C_1  and  C_2
REMARK    2  A    between atoms: C_2  and  C_3
REMARK    3  A    between atoms: C_5  and  C_6
REMARK    4  A    between atoms: C_6  and  C_7
REMARK    5  A    between atoms: C_7  and  N_8
REMARK    6  A    between atoms: N_8  and  C_9
REMARK    7  A    between atoms: C_14  and  C_15
REMARK    8  A    between atoms: C_18  and  C_19
REMARK                            x       y       z     vdW  Elec       q    Type
REMARK                         _______ _______ _______ _____ _____    ______ ____
ROOT
ATOM      1  C   UNL     1       3.389   7.275  17.254  0.00  0.00    +0.000 C 
ENDROOT
BRANCH   1   2
ATOM      2  N   UNL     1       4.809   6.914  17.446  0.00  0.00    +0.000 N 
ATOM      3  H   UNL     1       4.997   6.611  18.400  0.00  0.00    +0.000 HD
BRANCH   2   4
ATOM      4  C   UNL     1       5.271   5.932  16.544  0.00  0.00    +0.000 A 
ATOM      5  N   UNL     1       5.338   6.249  15.230  0.00  0.00    +0.000 NA
ATOM      6  C   UNL     1       5.776   5.324  14.351  0.00  0.00    +0.000 A 
ATOM      7  C   UNL     1       6.179   4.056  14.712  0.00  0.00    +0.000 A 
ATOM      8  C   UNL     1       6.132   3.725  16.061  0.00  0.00    +0.000 A 
ATOM      9  C   UNL     1       5.674   4.666  16.994  0.00  0.00    +0.000 A 
BRANCH   9  10
ATOM     10  C   UNL     1       5.621   4.293  18.375  0.00  0.00    +0.000 C 
ATOM     11  N   UNL     1       5.563   3.937  19.479  0.00  0.00    +0.000 NA
ENDBRANCH   9  10
ENDBRANCH   2   4
ENDBRANCH   1   2
BRANCH   1  12
ATOM     12  C   UNL     1       2.643   7.279  18.591  0.00  0.00    +0.000 C 
BRANCH  12  15
ATOM     13  C   UNL     1       1.920   3.703  19.035  0.00  0.00    +0.000 A 
ATOM     14  N   UNL     1       2.278   4.819  18.292  0.00  0.00    +0.000 NA
ATOM     15  C   UNL     1       2.322   5.891  19.061  0.00  0.00    +0.000 A 
ATOM     16  S   UNL     1       1.940   5.612  20.713  0.00  0.00    +0.000 S 
ATOM     17  C   UNL     1       1.696   3.948  20.380  0.00  0.00    +0.000 A 
ATOM     18  C   UNL     1       1.298   3.002  21.457  0.00  0.00    +0.000 C 
BRANCH  13  20
ATOM     19  C   UNL     1       2.778   2.274  17.161  0.00  0.00    +0.000 C 
ATOM     20  C   UNL     1       1.808   2.391  18.326  0.00  0.00    +0.000 C 
ENDBRANCH  13  20
ENDBRANCH  12  15
ENDBRANCH   1  12
TORSDOF 6
ENDMDL
MODEL 5
REMARK VINA RESULT:      -6.1      2.320      5.734
REMARK  Name = 
REMARK  8 active torsions:
REMARK  status: ('A' for Active; 'I' for Inactive)
REMARK    1  A    between atoms: C_1  and  C_2
REMARK    2  A    between atoms: C_2  and  C_3
REMARK    3  A    between atoms: C_5  and  C_6
REMARK    4  A    between atoms: C_6  and  C_7
REMARK    5  A    between atoms: C_7  and  N_8
REMARK    6  A    between atoms: N_8  and  C_9
REMARK    7  A    between atoms: C_14  and  C_15
REMARK    8  A    between atoms: C_18  and  C_19
REMARK                            x       y       z     vdW  Elec       q    Type
REMARK                         _______ _______ _______ _____ _____    ______ ____
ROOT
ATOM      1  C   UNL     1       2.108   5.163  19.973  0.00  0.00    +0.000 C 
ENDROOT
BRANCH   1   2
ATOM      2  N   UNL     1       2.826   6.424  20.251  0.00  0.00    +0.000 N 
ATOM      3  H   UNL     1       3.739   6.449  19.802  0.00  0.00    +0.000 HD
BRANCH   2   4
ATOM      4  C   UNL     1       2.098   7.580  19.894  0.00  0.00    +0.000 A 
ATOM      5  N   UNL     1       1.229   8.095  20.795  0.00  0.00    +0.000 NA
ATOM      6  C   UNL     1       0.524   9.198  20.473  0.00  0.00    +0.000 A 
ATOM      7  C   UNL     1       0.640   9.856  19.267  0.00  0.00    +0.000 A 
ATOM      8  C   UNL     1       1.543   9.348  18.341  0.00  0.00    +0.000 A 
ATOM      9  C   UNL     1       2.284   8.198  18.648  0.00  0.00    +0.000 A 
BRANCH   9  10
ATOM     10  C   UNL     1       3.195   7.687  17.670  0.00  0.00    +0.000 C 
ATOM     11  N   UNL     1       3.959   7.240  16.918  0.00  0.00    +0.000 NA
ENDBRANCH   9  10
ENDBRANCH   2   4
ENDBRANCH   1   2
BRANCH   1  12
ATOM     12  C   UNL     1       3.073   3.974  19.992  0.00  0.00    +0.000 C 
BRANCH  12  15
ATOM     13  C   UNL     1       6.138   4.723  18.107  0.00  0.00    +0.000 A 
ATOM     14  N   UNL     1       5.349   4.709  19.249  0.00  0.00    +0.000 NA
ATOM     15  C   UNL     1       4.187   4.136  19.000  0.00  0.00    +0.000 A 
ATOM     16  S   UNL     1       3.984   3.583  17.385  0.00  0.00    +0.000 S 
ATOM     17  C   UNL     1       5.553   4.149  16.990  0.00  0.00    +0.000 A 
ATOM     18  C   UNL     1       6.099   3.995  15.615  0.00  0.00    +0.000 C 
BRANCH  13  20
ATOM     19  C   UNL     1       7.488   6.813  17.793  0.00  0.00    +0.000 C 
ATOM     20  C   UNL     1       7.495   5.346  18.196  0.00  0.00    +0.000 C 
ENDBRANCH  13  20
ENDBRANCH  12  15
ENDBRANCH   1  12
TORSDOF 6
ENDMDL
MODEL 6
REMARK VINA RESULT:      -6.1      1.406      3.203
REMARK  Name = 
REMARK  8 active torsions:
REMARK  status: ('A' for Active; 'I' for Inactive)
REMARK    1  A    between atoms: C_1  and  C_2
REMARK    2  A    between atoms: C_2  and  C_3
REMARK    3  A    between atoms: C_5  and  C_6
REMARK    4  A    between atoms: C_6  and  C_7
REMARK    5  A    between atoms: C_7  and  N_8
REMARK    6  A    between atoms: N_8  and  C_9
REMARK    7  A    between atoms: C_14  and  C_15
REMARK    8  A    between atoms: C_18  and  C_19
REMARK                            x       y       z     vdW  Elec       q    Type
REMARK                         _______ _______ _______ _____ _____    ______ ____
ROOT
ATOM      1  C   UNL     1       3.388   2.820  17.683  0.00  0.00    +0.000 C 
ENDROOT
BRANCH   1   2
ATOM      2  N   UNL     1       4.668   3.383  18.162  0.00  0.00    +0.000 N 
ATOM      3  H   UNL     1       5.223   2.691  18.662  0.00  0.00    +0.000 HD
BRANCH   2   4
ATOM      4  C   UNL     1       5.451   3.959  17.138  0.00  0.00    +0.000 A 
ATOM      5  N   UNL     1       5.149   3.659  15.854  0.00  0.00    +0.000 NA
ATOM      6  C   UNL     1       5.885   4.199  14.861  0.00  0.00    +0.000 A 
ATOM      7  C   UNL     1       6.939   5.063  15.073  0.00  0.00    +0.000 A 
ATOM      8  C   UNL     1       7.246   5.393  16.387  0.00  0.00    +0.000 A 
ATOM      9  C   UNL     1       6.501   4.840  17.438  0.00  0.00    +0.000 A 
BRANCH   9  10
ATOM     10  C   UNL     1       6.849   5.185  18.782  0.00  0.00    +0.000 C 
ATOM     11  N   UNL     1       7.187   5.470  19.857  0.00  0.00    +0.000 NA
ENDBRANCH   9  10
ENDBRANCH   2   4
ENDBRANCH   1   2
BRANCH   1  12
ATOM     12  C   UNL     1       2.252   3.153  18.654  0.00  0.00    +0.000 C 
BRANCH  12  15
ATOM     13  C   UNL     1       2.401   6.824  18.777  0.00  0.00    +0.000 A 
ATOM     14  N   UNL     1       2.536   5.591  18.154  0.00  0.00    +0.000 NA
ATOM     15  C   UNL     1       2.199   4.618  18.979  0.00  0.00    +0.000 A 
ATOM     16  S   UNL     1       1.701   5.133  20.541  0.00  0.00    +0.000 S 
ATOM     17  C   UNL     1       1.955   6.766  20.088  0.00  0.00    +0.000 A 
ATOM     18  C   UNL     1       1.704   7.874  21.047  0.00  0.00    +0.000 C 
BRANCH  13  20
ATOM     19  C   UNL     1       1.543   8.936  17.733  0.00  0.00    +0.000 C 
ATOM     20  C   UNL     1       2.751   8.051  17.996  0.00  0.00    +0.000 C 
ENDBRANCH  13  20
ENDBRANCH  12  15
ENDBRANCH   1  12
TORSDOF 6
ENDMDL
MODEL 7
REMARK VINA RESULT:      -6.0      2.755      5.837
REMARK  Name = 
REMARK  8 active torsions:
REMARK  status: ('A' for Active; 'I' for Inactive)
REMARK    1  A    between atoms: C_1  and  C_2
REMARK    2  A    between atoms: C_2  and  C_3
REMARK    3  A    between atoms: C_5  and  C_6
REMARK    4  A    between atoms: C_6  and  C_7
REMARK    5  A    between atoms: C_7  and  N_8
REMARK    6  A    between atoms: N_8  and  C_9
REMARK    7  A    between atoms: C_14  and  C_15
REMARK    8  A    between atoms: C_18  and  C_19
REMARK                            x       y       z     vdW  Elec       q    Type
REMARK                         _______ _______ _______ _____ _____    ______ ____
ROOT
ATOM      1  C   UNL     1       1.622   5.348  20.355  0.00  0.00    +0.000 C 
ENDROOT
BRANCH   1   2
ATOM      2  N   UNL     1       2.158   6.651  20.801  0.00  0.00    +0.000 N 
ATOM      3  H   UNL     1       3.156   6.603  20.998  0.00  0.00    +0.000 HD
BRANCH   2   4
ATOM      4  C   UNL     1       1.911   7.705  19.894  0.00  0.00    +0.000 A 
ATOM      5  N   UNL     1       2.336   7.567  18.618  0.00  0.00    +0.000 NA
ATOM      6  C   UNL     1       2.110   8.562  17.737  0.00  0.00    +0.000 A 
ATOM      7  C   UNL     1       1.450   9.731  18.055  0.00  0.00    +0.000 A 
ATOM      8  C   UNL     1       0.992   9.876  19.358  0.00  0.00    +0.000 A 
ATOM      9  C   UNL     1       1.220   8.859  20.296  0.00  0.00    +0.000 A 
BRANCH   9  10
ATOM     10  C   UNL     1       0.751   9.042  21.635  0.00  0.00    +0.000 C 
ATOM     11  N   UNL     1       0.422   9.173  22.741  0.00  0.00    +0.000 NA
ENDBRANCH   9  10
ENDBRANCH   2   4
ENDBRANCH   1   2
BRANCH   1  12
ATOM     12  C   UNL     1       2.699   4.263  20.430  0.00  0.00    +0.000 C 
BRANCH  12  15
ATOM     13  C   UNL     1       5.509   5.198  18.253  0.00  0.00    +0.000 A 
ATOM     14  N   UNL     1       4.753   5.275  19.414  0.00  0.00    +0.000 NA
ATOM     15  C   UNL     1       3.741   4.429  19.363  0.00  0.00    +0.000 A 
ATOM     16  S   UNL     1       3.648   3.499  17.921  0.00  0.00    +0.000 S 
ATOM     17  C   UNL     1       5.053   4.279  17.322  0.00  0.00    +0.000 A 
ATOM     18  C   UNL     1       5.605   3.939  15.984  0.00  0.00    +0.000 C 
BRANCH  13  20
ATOM     19  C   UNL     1       7.778   5.780  19.149  0.00  0.00    +0.000 C 
ATOM     20  C   UNL     1       6.698   6.096  18.126  0.00  0.00    +0.000 C 
ENDBRANCH  13  20
ENDBRANCH  12  15
ENDBRANCH   1  12
TORSDOF 6
ENDMDL
MODEL 8
REMARK VINA RESULT:      -6.0      2.601      6.298
REMARK  Name = 
REMARK  8 active torsions:
REMARK  status: ('A' for Active; 'I' for Inactive)
REMARK    1  A    between atoms: C_1  and  C_2
REMARK    2  A    between atoms: C_2  and  C_3
REMARK    3  A    between atoms: C_5  and  C_6
REMARK    4  A    between atoms: C_6  and  C_7
REMARK    5  A    between atoms: C_7  and  N_8
REMARK    6  A    between atoms: N_8  and  C_9
REMARK    7  A    between atoms: C_14  and  C_15
REMARK    8  A    between atoms: C_18  and  C_19
REMARK                            x       y       z     vdW  Elec       q    Type
REMARK                         _______ _______ _______ _____ _____    ______ ____
ROOT
ATOM      1  C   UNL     1       5.510   4.378  18.173  0.00  0.00    +0.000 C 
ENDROOT
BRANCH   1   2
ATOM      2  N   UNL     1       4.821   5.215  19.178  0.00  0.00    +0.000 N 
ATOM      3  H   UNL     1       4.563   6.125  18.801  0.00  0.00    +0.000 HD
BRANCH   2   4
ATOM      4  C   UNL     1       3.681   4.601  19.740  0.00  0.00    +0.000 A 
ATOM      5  N   UNL     1       3.765   3.301  20.102  0.00  0.00    +0.000 NA
ATOM      6  C   UNL     1       2.687   2.695  20.641  0.00  0.00    +0.000 A 
ATOM      7  C   UNL     1       1.483   3.331  20.862  0.00  0.00    +0.000 A 
ATOM      8  C   UNL     1       1.391   4.672  20.512  0.00  0.00    +0.000 A 
ATOM      9  C   UNL     1       2.495   5.323  19.944  0.00  0.00    +0.000 A 
BRANCH   9  10
ATOM     10  C   UNL     1       2.366   6.701  19.578  0.00  0.00    +0.000 C 
ATOM     11  N   UNL     1       2.205   7.813  19.286  0.00  0.00    +0.000 NA
ENDBRANCH   9  10
ENDBRANCH   2   4
ENDBRANCH   1   2
BRANCH   1  12
ATOM     12  C   UNL     1       4.626   4.173  16.941  0.00  0.00    +0.000 C 
BRANCH  12  15
ATOM     13  C   UNL     1       6.074   3.939  13.570  0.00  0.00    +0.000 A 
ATOM     14  N   UNL     1       5.146   3.625  14.552  0.00  0.00    +0.000 NA
ATOM     15  C   UNL     1       5.405   4.289  15.663  0.00  0.00    +0.000 A 
ATOM     16  S   UNL     1       6.774   5.325  15.583  0.00  0.00    +0.000 S 
ATOM     17  C   UNL     1       7.041   4.854  13.957  0.00  0.00    +0.000 A 
ATOM     18  C   UNL     1       8.179   5.409  13.176  0.00  0.00    +0.000 C 
BRANCH  13  20
ATOM     19  C   UNL     1       4.527   3.329  11.694  0.00  0.00    +0.000 C 
ATOM     20  C   UNL     1       5.945   3.271  12.238  0.00  0.00    +0.000 C 
ENDBRANCH  13  20
ENDBRANCH  12  15
ENDBRANCH   1  12
TORSDOF 6
ENDMDL
MODEL 9
REMARK VINA RESULT:      -6.0      1.153      1.917
REMARK  Name = 
REMARK  8 active torsions:
REMARK  status: ('A' for Active; 'I' for Inactive)
REMARK    1  A    between atoms: C_1  and  C_2
REMARK    2  A    between atoms: C_2  and  C_3
REMARK    3  A    between atoms: C_5  and  C_6
REMARK    4  A    between atoms: C_6  and  C_7
REMARK    5  A    between atoms: C_7  and  N_8
REMARK    6  A    between atoms: N_8  and  C_9
REMARK    7  A    between atoms: C_14  and  C_15
REMARK    8  A    between atoms: C_18  and  C_19
REMARK                            x       y       z     vdW  Elec       q    Type
REMARK                         _______ _______ _______ _____ _____    ______ ____
ROOT
ATOM      1  C   UNL     1       3.545   7.228  17.402  0.00  0.00    +0.000 C 
ENDROOT
BRANCH   1   2
ATOM      2  N   UNL     1       5.021   7.284  17.468  0.00  0.00    +0.000 N 
ATOM      3  H   UNL     1       5.360   7.246  18.427  0.00  0.00    +0.000 HD
BRANCH   2   4
ATOM      4  C   UNL     1       5.660   6.282  16.706  0.00  0.00    +0.000 A 
ATOM      5  N   UNL     1       5.408   6.227  15.378  0.00  0.00    +0.000 NA
ATOM      6  C   UNL     1       6.008   5.277  14.632  0.00  0.00    +0.000 A 
ATOM      7  C   UNL     1       6.888   4.346  15.142  0.00  0.00    +0.000 A 
ATOM      8  C   UNL     1       7.169   4.404  16.502  0.00  0.00    +0.000 A 
ATOM      9  C   UNL     1       6.553   5.378  17.301  0.00  0.00    +0.000 A 
BRANCH   9  10
ATOM     10  C   UNL     1       6.849   5.405  18.701  0.00  0.00    +0.000 C 
ATOM     11  N   UNL     1       7.049   5.469  19.843  0.00  0.00    +0.000 NA
ENDBRANCH   9  10
ENDBRANCH   2   4
ENDBRANCH   1   2
BRANCH   1  12
ATOM     12  C   UNL     1       2.954   6.901  18.775  0.00  0.00    +0.000 C 
BRANCH  12  15
ATOM     13  C   UNL     1       2.824   3.475  20.098  0.00  0.00    +0.000 A 
ATOM     14  N   UNL     1       2.830   4.857  20.217  0.00  0.00    +0.000 NA
ATOM     15  C   UNL     1       2.897   5.423  19.027  0.00  0.00    +0.000 A 
ATOM     16  S   UNL     1       2.952   4.324  17.706  0.00  0.00    +0.000 S 
ATOM     17  C   UNL     1       2.886   3.003  18.797  0.00  0.00    +0.000 A 
ATOM     18  C   UNL     1       2.903   1.601  18.302  0.00  0.00    +0.000 C 
BRANCH  13  20
ATOM     19  C   UNL     1       1.364   2.609  21.944  0.00  0.00    +0.000 C 
ATOM     20  C   UNL     1       2.763   2.659  21.351  0.00  0.00    +0.000 C 
ENDBRANCH  13  20
ENDBRANCH  12  15
ENDBRANCH   1  12
TORSDOF 6
ENDMDL
