MODEL 1
REMARK VINA RESULT:      -6.9      0.000      0.000
REMARK  Name = 
REMARK  13 active torsions:
REMARK  status: ('A' for Active; 'I' for Inactive)
REMARK    1  A    between atoms: C_1  and  C_2
REMARK    2  A    between atoms: C_2  and  O_3
REMARK    3  A    between atoms: O_3  and  C_4
REMARK    4  A    between atoms: C_4  and  C_6
REMARK    5  A    between atoms: C_6  and  N_17
REMARK    6  A    between atoms: C_7  and  C_8
REMARK    7  A    between atoms: C_11  and  N_12
REMARK    8  A    between atoms: N_12  and  C_13
REMARK    9  A    between atoms: N_12  and  C_14
REMARK   10  A    between atoms: N_17  and  C_18
REMARK   11  A    between atoms: N_17  and  C_20
REMARK   12  A    between atoms: C_18  and  C_19
REMARK   13  A    between atoms: C_20  and  C_21
REMARK                            x       y       z     vdW  Elec       q    Type
REMARK                         _______ _______ _______ _____ _____    ______ ____
ROOT
ATOM      1  C   UNL     1       6.311   4.779  15.777  0.00  0.00    +0.000 C 
ATOM      2  C   UNL     1       5.094   4.201  15.838  0.00  0.00    +0.000 C 
ENDROOT
BRANCH   2   3
ATOM      3  C   UNL     1       4.137   4.182  16.947  0.00  0.00    +0.000 A 
ATOM      4  C   UNL     1       4.012   3.065  17.773  0.00  0.00    +0.000 A 
ATOM      5  C   UNL     1       3.274   3.140  18.966  0.00  0.00    +0.000 A 
ATOM      6  C   UNL     1       2.642   4.326  19.377  0.00  0.00    +0.000 A 
ATOM      7  C   UNL     1       2.737   5.413  18.491  0.00  0.00    +0.000 A 
ATOM      8  C   UNL     1       3.475   5.354  17.302  0.00  0.00    +0.000 A 
BRANCH   6   9
ATOM      9  N   UNL     1       1.918   4.440  20.563  0.00  0.00    +0.000 N 
ATOM     10  C   UNL     1       1.479   5.769  20.998  0.00  0.00    +0.000 C 
ATOM     11  C   UNL     1       2.092   3.483  21.651  0.00  0.00    +0.000 C 
ENDBRANCH   6   9
ENDBRANCH   2   3
BRANCH   1  12
ATOM     12  C   UNL     1       7.036   4.667  14.435  0.00  0.00    +0.000 C 
ATOM     13  O   UNL     1       7.826   5.500  14.007  0.00  0.00    +0.000 OA
BRANCH  12  14
ATOM     14  O   UNL     1       6.575   3.588  13.735  0.00  0.00    +0.000 OA
BRANCH  14  16
ATOM     15  C   UNL     1       5.061   3.332  11.902  0.00  0.00    +0.000 C 
ATOM     16  C   UNL     1       6.466   3.727  12.314  0.00  0.00    +0.000 C 
ENDBRANCH  14  16
ENDBRANCH  12  14
ENDBRANCH   1  12
BRANCH   1  17
ATOM     17  N   UNL     1       6.903   5.533  16.812  0.00  0.00    +0.000 N 
BRANCH  17  18
ATOM     18  C   UNL     1       6.516   6.937  17.069  0.00  0.00    +0.000 C 
ATOM     19  C   UNL     1       7.683   7.846  17.415  0.00  0.00    +0.000 C 
ENDBRANCH  17  18
BRANCH  17  20
ATOM     20  C   UNL     1       7.347   4.819  18.031  0.00  0.00    +0.000 C 
ATOM     21  C   UNL     1       6.633   5.256  19.306  0.00  0.00    +0.000 C 
ENDBRANCH  17  20
ENDBRANCH   1  17
TORSDOF 8
ENDMDL
MODEL 2
REMARK VINA RESULT:      -6.7      1.053      1.554
REMARK  Name = 
REMARK  13 active torsions:
REMARK  status: ('A' for Active; 'I' for Inactive)
REMARK    1  A    between atoms: C_1  and  C_2
REMARK    2  A    between atoms: C_2  and  O_3
REMARK    3  A    between atoms: O_3  and  C_4
REMARK    4  A    between atoms: C_4  and  C_6
REMARK    5  A    between atoms: C_6  and  N_17
REMARK    6  A    between atoms: C_7  and  C_8
REMARK    7  A    between atoms: C_11  and  N_12
REMARK    8  A    between atoms: N_12  and  C_13
REMARK    9  A    between atoms: N_12  and  C_14
REMARK   10  A    between atoms: N_17  and  C_18
REMARK   11  A    between atoms: N_17  and  C_20
REMARK   12  A    between atoms: C_18  and  C_19
REMARK   13  A    between atoms: C_20  and  C_21
REMARK                            x       y       z     vdW  Elec       q    Type
REMARK                         _______ _______ _______ _____ _____    ______ ____
ROOT
ATOM      1  C   UNL     1       6.062   4.774  15.921  0.00  0.00    +0.000 C 
ATOM      2  C   UNL     1       5.312   3.683  16.176  0.00  0.00    +0.000 C 
ENDROOT
BRANCH   2   3
ATOM      3  C   UNL     1       4.363   3.449  17.267  0.00  0.00    +0.000 A 
ATOM      4  C   UNL     1       4.782   3.432  18.596  0.00  0.00    +0.000 A 
ATOM      5  C   UNL     1       3.842   3.447  19.641  0.00  0.00    +0.000 A 
ATOM      6  C   UNL     1       2.459   3.484  19.396  0.00  0.00    +0.000 A 
ATOM      7  C   UNL     1       2.071   3.438  18.046  0.00  0.00    +0.000 A 
ATOM      8  C   UNL     1       2.998   3.430  16.995  0.00  0.00    +0.000 A 
BRANCH   6   9
ATOM      9  N   UNL     1       1.499   3.519  20.407  0.00  0.00    +0.000 N 
ATOM     10  C   UNL     1       0.755   4.760  20.633  0.00  0.00    +0.000 C 
ATOM     11  C   UNL     1       1.613   2.666  21.586  0.00  0.00    +0.000 C 
ENDBRANCH   6   9
ENDBRANCH   2   3
BRANCH   1  12
ATOM     12  C   UNL     1       6.911   4.720  14.651  0.00  0.00    +0.000 C 
ATOM     13  O   UNL     1       7.717   5.582  14.323  0.00  0.00    +0.000 OA
BRANCH  12  14
ATOM     14  O   UNL     1       6.543   3.654  13.880  0.00  0.00    +0.000 OA
BRANCH  14  16
ATOM     15  C   UNL     1       5.574   2.868  11.839  0.00  0.00    +0.000 C 
ATOM     16  C   UNL     1       6.563   3.835  12.459  0.00  0.00    +0.000 C 
ENDBRANCH  14  16
ENDBRANCH  12  14
ENDBRANCH   1  12
BRANCH   1  17
ATOM     17  N   UNL     1       6.046   5.963  16.681  0.00  0.00    +0.000 N 
BRANCH  17  18
ATOM     18  C   UNL     1       7.285   6.547  17.238  0.00  0.00    +0.000 C 
ATOM     19  C   UNL     1       7.668   6.000  18.602  0.00  0.00    +0.000 C 
ENDBRANCH  17  18
BRANCH  17  20
ATOM     20  C   UNL     1       5.014   6.979  16.368  0.00  0.00    +0.000 C 
ATOM     21  C   UNL     1       3.966   7.160  17.462  0.00  0.00    +0.000 C 
ENDBRANCH  17  20
ENDBRANCH   1  17
TORSDOF 8
ENDMDL
MODEL 3
REMARK VINA RESULT:      -6.6      1.053      1.507
REMARK  Name = 
REMARK  13 active torsions:
REMARK  status: ('A' for Active; 'I' for Inactive)
REMARK    1  A    between atoms: C_1  and  C_2
REMARK    2  A    between atoms: C_2  and  O_3
REMARK    3  A    between atoms: O_3  and  C_4
REMARK    4  A    between atoms: C_4  and  C_6
REMARK    5  A    between atoms: C_6  and  N_17
REMARK    6  A    between atoms: C_7  and  C_8
REMARK    7  A    between atoms: C_11  and  N_12
REMARK    8  A    between atoms: N_12  and  C_13
REMARK    9  A    between atoms: N_12  and  C_14
REMARK   10  A    between atoms: N_17  and  C_18
REMARK   11  A    between atoms: N_17  and  C_20
REMARK   12  A    between atoms: C_18  and  C_19
REMARK   13  A    between atoms: C_20  and  C_21
REMARK                            x       y       z     vdW  Elec       q    Type
REMARK                         _______ _______ _______ _____ _____    ______ ____
ROOT
ATOM      1  C   UNL     1       6.062   4.897  15.693  0.00  0.00    +0.000 C 
ATOM      2  C   UNL     1       5.415   3.785  16.098  0.00  0.00    +0.000 C 
ENDROOT
BRANCH   2   3
ATOM      3  C   UNL     1       4.498   3.611  17.227  0.00  0.00    +0.000 A 
ATOM      4  C   UNL     1       4.966   3.594  18.540  0.00  0.00    +0.000 A 
ATOM      5  C   UNL     1       4.067   3.666  19.618  0.00  0.00    +0.000 A 
ATOM      6  C   UNL     1       2.679   3.763  19.424  0.00  0.00    +0.000 A 
ATOM      7  C   UNL     1       2.239   3.714  18.089  0.00  0.00    +0.000 A 
ATOM      8  C   UNL     1       3.124   3.650  17.006  0.00  0.00    +0.000 A 
BRANCH   6   9
ATOM      9  N   UNL     1       1.760   3.855  20.468  0.00  0.00    +0.000 N 
ATOM     10  C   UNL     1       1.347   5.182  20.931  0.00  0.00    +0.000 C 
ATOM     11  C   UNL     1       1.662   2.811  21.484  0.00  0.00    +0.000 C 
ENDBRANCH   6   9
ENDBRANCH   2   3
BRANCH   1  12
ATOM     12  C   UNL     1       6.905   4.755  14.424  0.00  0.00    +0.000 C 
ATOM     13  O   UNL     1       7.808   5.520  14.108  0.00  0.00    +0.000 OA
BRANCH  12  14
ATOM     14  O   UNL     1       6.416   3.749  13.641  0.00  0.00    +0.000 OA
BRANCH  14  16
ATOM     15  C   UNL     1       6.276   2.474  11.622  0.00  0.00    +0.000 C 
ATOM     16  C   UNL     1       6.811   3.739  12.265  0.00  0.00    +0.000 C 
ENDBRANCH  14  16
ENDBRANCH  12  14
ENDBRANCH   1  12
BRANCH   1  17
ATOM     17  N   UNL     1       5.944   6.167  16.296  0.00  0.00    +0.000 N 
BRANCH  17  18
ATOM     18  C   UNL     1       4.696   6.955  16.212  0.00  0.00    +0.000 C 
ATOM     19  C   UNL     1       4.010   7.172  17.550  0.00  0.00    +0.000 C 
ENDBRANCH  17  18
BRANCH  17  20
ATOM     20  C   UNL     1       6.714   6.427  17.534  0.00  0.00    +0.000 C 
ATOM     21  C   UNL     1       7.613   7.658  17.463  0.00  0.00    +0.000 C 
ENDBRANCH  17  20
ENDBRANCH   1  17
TORSDOF 8
ENDMDL
MODEL 4
REMARK VINA RESULT:      -6.5      0.768      1.313
REMARK  Name = 
REMARK  13 active torsions:
REMARK  status: ('A' for Active; 'I' for Inactive)
REMARK    1  A    between atoms: C_1  and  C_2
REMARK    2  A    between atoms: C_2  and  O_3
REMARK    3  A    between atoms: O_3  and  C_4
REMARK    4  A    between atoms: C_4  and  C_6
REMARK    5  A    between atoms: C_6  and  N_17
REMARK    6  A    between atoms: C_7  and  C_8
REMARK    7  A    between atoms: C_11  and  N_12
REMARK    8  A    between atoms: N_12  and  C_13
REMARK    9  A    between atoms: N_12  and  C_14
REMARK   10  A    between atoms: N_17  and  C_18
REMARK   11  A    between atoms: N_17  and  C_20
REMARK   12  A    between atoms: C_18  and  C_19
REMARK   13  A    between atoms: C_20  and  C_21
REMARK                            x       y       z     vdW  Elec       q    Type
REMARK                         _______ _______ _______ _____ _____    ______ ____
ROOT
ATOM      1  C   UNL     1       6.480   4.777  15.908  0.00  0.00    +0.000 C 
ATOM      2  C   UNL     1       5.352   4.064  16.098  0.00  0.00    +0.000 C 
ENDROOT
BRANCH   2   3
ATOM      3  C   UNL     1       4.529   3.943  17.303  0.00  0.00    +0.000 A 
ATOM      4  C   UNL     1       3.539   4.880  17.598  0.00  0.00    +0.000 A 
ATOM      5  C   UNL     1       2.604   4.632  18.617  0.00  0.00    +0.000 A 
ATOM      6  C   UNL     1       2.620   3.445  19.369  0.00  0.00    +0.000 A 
ATOM      7  C   UNL     1       3.668   2.552  19.087  0.00  0.00    +0.000 A 
ATOM      8  C   UNL     1       4.603   2.783  18.070  0.00  0.00    +0.000 A 
BRANCH   6   9
ATOM      9  N   UNL     1       1.697   3.158  20.374  0.00  0.00    +0.000 N 
ATOM     10  C   UNL     1       0.268   3.297  20.081  0.00  0.00    +0.000 C 
ATOM     11  C   UNL     1       2.037   3.324  21.783  0.00  0.00    +0.000 C 
ENDBRANCH   6   9
ENDBRANCH   2   3
BRANCH   1  12
ATOM     12  C   UNL     1       7.065   4.739  14.495  0.00  0.00    +0.000 C 
ATOM     13  O   UNL     1       7.787   5.610  14.024  0.00  0.00    +0.000 OA
BRANCH  12  14
ATOM     14  O   UNL     1       6.557   3.678  13.801  0.00  0.00    +0.000 OA
BRANCH  14  16
ATOM     15  C   UNL     1       5.274   3.193  11.841  0.00  0.00    +0.000 C 
ATOM     16  C   UNL     1       6.577   3.761  12.371  0.00  0.00    +0.000 C 
ENDBRANCH  14  16
ENDBRANCH  12  14
ENDBRANCH   1  12
BRANCH   1  17
ATOM     17  N   UNL     1       7.088   5.604  16.876  0.00  0.00    +0.000 N 
BRANCH  17  18
ATOM     18  C   UNL     1       6.621   6.985  17.124  0.00  0.00    +0.000 C 
ATOM     19  C   UNL     1       7.739   7.978  17.390  0.00  0.00    +0.000 C 
ENDBRANCH  17  18
BRANCH  17  20
ATOM     20  C   UNL     1       7.670   4.962  18.078  0.00  0.00    +0.000 C 
ATOM     21  C   UNL     1       7.020   5.389  19.390  0.00  0.00    +0.000 C 
ENDBRANCH  17  20
ENDBRANCH   1  17
TORSDOF 8
ENDMDL
MODEL 5
REMARK VINA RESULT:      -6.4      3.452      5.622
REMARK  Name = 
REMARK  13 active torsions:
REMARK  status: ('A' for Active; 'I' for Inactive)
REMARK    1  A    between atoms: C_1  and  C_2
REMARK    2  A    between atoms: C_2  and  O_3
REMARK    3  A    between atoms: O_3  and  C_4
REMARK    4  A    between atoms: C_4  and  C_6
REMARK    5  A    between atoms: C_6  and  N_17
REMARK    6  A    between atoms: C_7  and  C_8
REMARK    7  A    between atoms: C_11  and  N_12
REMARK    8  A    between atoms: N_12  and  C_13
REMARK    9  A    between atoms: N_12  and  C_14
REMARK   10  A    between atoms: N_17  and  C_18
REMARK   11  A    between atoms: N_17  and  C_20
REMARK   12  A    between atoms: C_18  and  C_19
REMARK   13  A    between atoms: C_20  and  C_21
REMARK                            x       y       z     vdW  Elec       q    Type
REMARK                         _______ _______ _______ _____ _____    ______ ____
ROOT
ATOM      1  C   UNL     1       3.810   5.356  18.518  0.00  0.00    +0.000 C 
ATOM      2  C   UNL     1       3.755   6.700  18.598  0.00  0.00    +0.000 C 
ENDROOT
BRANCH   2   3
ATOM      3  C   UNL     1       2.590   7.567  18.790  0.00  0.00    +0.000 A 
ATOM      4  C   UNL     1       2.005   7.720  20.047  0.00  0.00    +0.000 A 
ATOM      5  C   UNL     1       1.048   8.725  20.270  0.00  0.00    +0.000 A 
ATOM      6  C   UNL     1       0.648   9.610  19.254  0.00  0.00    +0.000 A 
ATOM      7  C   UNL     1       1.212   9.386  17.985  0.00  0.00    +0.000 A 
ATOM      8  C   UNL     1       2.171   8.393  17.752  0.00  0.00    +0.000 A 
BRANCH   6   9
ATOM      9  N   UNL     1      -0.284  10.629  19.444  0.00  0.00    +0.000 N 
ATOM     10  C   UNL     1      -0.532  11.115  20.804  0.00  0.00    +0.000 C 
ATOM     11  C   UNL     1      -1.409  10.805  18.532  0.00  0.00    +0.000 C 
ENDBRANCH   6   9
ENDBRANCH   2   3
BRANCH   1  12
ATOM     12  C   UNL     1       5.208   4.751  18.378  0.00  0.00    +0.000 C 
ATOM     13  O   UNL     1       5.625   3.816  19.051  0.00  0.00    +0.000 OA
BRANCH  12  14
ATOM     14  O   UNL     1       5.956   5.485  17.503  0.00  0.00    +0.000 OA
BRANCH  14  16
ATOM     15  C   UNL     1       7.549   7.268  17.584  0.00  0.00    +0.000 C 
ATOM     16  C   UNL     1       7.295   5.806  17.895  0.00  0.00    +0.000 C 
ENDBRANCH  14  16
ENDBRANCH  12  14
ENDBRANCH   1  12
BRANCH   1  17
ATOM     17  N   UNL     1       2.701   4.491  18.641  0.00  0.00    +0.000 N 
BRANCH  17  18
ATOM     18  C   UNL     1       2.272   3.615  17.531  0.00  0.00    +0.000 C 
ATOM     19  C   UNL     1       2.583   2.144  17.748  0.00  0.00    +0.000 C 
ENDBRANCH  17  18
BRANCH  17  20
ATOM     20  C   UNL     1       2.400   3.928  19.978  0.00  0.00    +0.000 C 
ATOM     21  C   UNL     1       0.967   4.163  20.445  0.00  0.00    +0.000 C 
ENDBRANCH  17  20
ENDBRANCH   1  17
TORSDOF 8
ENDMDL
MODEL 6
REMARK VINA RESULT:      -6.4      3.252      5.132
REMARK  Name = 
REMARK  13 active torsions:
REMARK  status: ('A' for Active; 'I' for Inactive)
REMARK    1  A    between atoms: C_1  and  C_2
REMARK    2  A    between atoms: C_2  and  O_3
REMARK    3  A    between atoms: O_3  and  C_4
REMARK    4  A    between atoms: C_4  and  C_6
REMARK    5  A    between atoms: C_6  and  N_17
REMARK    6  A    between atoms: C_7  and  C_8
REMARK    7  A    between atoms: C_11  and  N_12
REMARK    8  A    between atoms: N_12  and  C_13
REMARK    9  A    between atoms: N_12  and  C_14
REMARK   10  A    between atoms: N_17  and  C_18
REMARK   11  A    between atoms: N_17  and  C_20
REMARK   12  A    between atoms: C_18  and  C_19
REMARK   13  A    between atoms: C_20  and  C_21
REMARK                            x       y       z     vdW  Elec       q    Type
REMARK                         _______ _______ _______ _____ _____    ______ ____
ROOT
ATOM      1  C   UNL     1       3.897   5.015  18.448  0.00  0.00    +0.000 C 
ATOM      2  C   UNL     1       3.876   6.357  18.327  0.00  0.00    +0.000 C 
ENDROOT
BRANCH   2   3
ATOM      3  C   UNL     1       2.786   7.293  18.615  0.00  0.00    +0.000 A 
ATOM      4  C   UNL     1       2.221   7.373  19.887  0.00  0.00    +0.000 A 
ATOM      5  C   UNL     1       1.350   8.426  20.215  0.00  0.00    +0.000 A 
ATOM      6  C   UNL     1       1.020   9.433  19.293  0.00  0.00    +0.000 A 
ATOM      7  C   UNL     1       1.558   9.286  18.003  0.00  0.00    +0.000 A 
ATOM      8  C   UNL     1       2.432   8.246  17.664  0.00  0.00    +0.000 A 
BRANCH   6   9
ATOM      9  N   UNL     1       0.175  10.502  19.590  0.00  0.00    +0.000 N 
ATOM     10  C   UNL     1      -0.171  10.761  20.990  0.00  0.00    +0.000 C 
ATOM     11  C   UNL     1      -0.823  10.966  18.632  0.00  0.00    +0.000 C 
ENDBRANCH   6   9
ENDBRANCH   2   3
BRANCH   1  12
ATOM     12  C   UNL     1       5.228   4.335  18.124  0.00  0.00    +0.000 C 
ATOM     13  O   UNL     1       6.210   4.356  18.856  0.00  0.00    +0.000 OA
BRANCH  12  14
ATOM     14  O   UNL     1       5.204   3.828  16.856  0.00  0.00    +0.000 OA
BRANCH  14  16
ATOM     15  C   UNL     1       5.668   5.382  15.097  0.00  0.00    +0.000 C 
ATOM     16  C   UNL     1       6.229   4.265  15.956  0.00  0.00    +0.000 C 
ENDBRANCH  14  16
ENDBRANCH  12  14
ENDBRANCH   1  12
BRANCH   1  17
ATOM     17  N   UNL     1       2.828   4.228  18.927  0.00  0.00    +0.000 N 
BRANCH  17  18
ATOM     18  C   UNL     1       1.922   3.506  18.008  0.00  0.00    +0.000 C 
ATOM     19  C   UNL     1       2.311   2.057  17.768  0.00  0.00    +0.000 C 
ENDBRANCH  17  18
BRANCH  17  20
ATOM     20  C   UNL     1       2.988   3.553  20.236  0.00  0.00    +0.000 C 
ATOM     21  C   UNL     1       1.886   3.873  21.242  0.00  0.00    +0.000 C 
ENDBRANCH  17  20
ENDBRANCH   1  17
TORSDOF 8
ENDMDL
MODEL 7
REMARK VINA RESULT:      -6.3      3.279      5.577
REMARK  Name = 
REMARK  13 active torsions:
REMARK  status: ('A' for Active; 'I' for Inactive)
REMARK    1  A    between atoms: C_1  and  C_2
REMARK    2  A    between atoms: C_2  and  O_3
REMARK    3  A    between atoms: O_3  and  C_4
REMARK    4  A    between atoms: C_4  and  C_6
REMARK    5  A    between atoms: C_6  and  N_17
REMARK    6  A    between atoms: C_7  and  C_8
REMARK    7  A    between atoms: C_11  and  N_12
REMARK    8  A    between atoms: N_12  and  C_13
REMARK    9  A    between atoms: N_12  and  C_14
REMARK   10  A    between atoms: N_17  and  C_18
REMARK   11  A    between atoms: N_17  and  C_20
REMARK   12  A    between atoms: C_18  and  C_19
REMARK   13  A    between atoms: C_20  and  C_21
REMARK                            x       y       z     vdW  Elec       q    Type
REMARK                         _______ _______ _______ _____ _____    ______ ____
ROOT
ATOM      1  C   UNL     1       3.519   5.053  18.301  0.00  0.00    +0.000 C 
ATOM      2  C   UNL     1       3.521   6.396  18.175  0.00  0.00    +0.000 C 
ENDROOT
BRANCH   2   3
ATOM      3  C   UNL     1       2.522   7.366  18.630  0.00  0.00    +0.000 A 
ATOM      4  C   UNL     1       2.120   7.416  19.965  0.00  0.00    +0.000 A 
ATOM      5  C   UNL     1       1.350   8.492  20.438  0.00  0.00    +0.000 A 
ATOM      6  C   UNL     1       0.961   9.552  19.602  0.00  0.00    +0.000 A 
ATOM      7  C   UNL     1       1.330   9.438  18.250  0.00  0.00    +0.000 A 
ATOM      8  C   UNL     1       2.103   8.375  17.767  0.00  0.00    +0.000 A 
BRANCH   6   9
ATOM      9  N   UNL     1       0.213  10.644  20.041  0.00  0.00    +0.000 N 
ATOM     10  C   UNL     1      -0.156  10.724  21.457  0.00  0.00    +0.000 C 
ATOM     11  C   UNL     1      -0.700  11.346  19.144  0.00  0.00    +0.000 C 
ENDBRANCH   6   9
ENDBRANCH   2   3
BRANCH   1  12
ATOM     12  C   UNL     1       4.758   4.331  17.768  0.00  0.00    +0.000 C 
ATOM     13  O   UNL     1       4.749   3.560  16.816  0.00  0.00    +0.000 OA
BRANCH  12  14
ATOM     14  O   UNL     1       5.828   4.561  18.584  0.00  0.00    +0.000 OA
BRANCH  14  16
ATOM     15  C   UNL     1       7.595   6.167  18.435  0.00  0.00    +0.000 C 
ATOM     16  C   UNL     1       7.088   4.821  17.955  0.00  0.00    +0.000 C 
ENDBRANCH  14  16
ENDBRANCH  12  14
ENDBRANCH   1  12
BRANCH   1  17
ATOM     17  N   UNL     1       2.519   4.302  18.954  0.00  0.00    +0.000 N 
BRANCH  17  18
ATOM     18  C   UNL     1       1.378   3.719  18.216  0.00  0.00    +0.000 C 
ATOM     19  C   UNL     1       1.073   2.278  18.588  0.00  0.00    +0.000 C 
ENDBRANCH  17  18
BRANCH  17  20
ATOM     20  C   UNL     1       2.905   3.513  20.147  0.00  0.00    +0.000 C 
ATOM     21  C   UNL     1       2.234   3.968  21.440  0.00  0.00    +0.000 C 
ENDBRANCH  17  20
ENDBRANCH   1  17
TORSDOF 8
ENDMDL
MODEL 8
REMARK VINA RESULT:      -6.2      1.268      1.720
REMARK  Name = 
REMARK  13 active torsions:
REMARK  status: ('A' for Active; 'I' for Inactive)
REMARK    1  A    between atoms: C_1  and  C_2
REMARK    2  A    between atoms: C_2  and  O_3
REMARK    3  A    between atoms: O_3  and  C_4
REMARK    4  A    between atoms: C_4  and  C_6
REMARK    5  A    between atoms: C_6  and  N_17
REMARK    6  A    between atoms: C_7  and  C_8
REMARK    7  A    between atoms: C_11  and  N_12
REMARK    8  A    between atoms: N_12  and  C_13
REMARK    9  A    between atoms: N_12  and  C_14
REMARK   10  A    between atoms: N_17  and  C_18
REMARK   11  A    between atoms: N_17  and  C_20
REMARK   12  A    between atoms: C_18  and  C_19
REMARK   13  A    between atoms: C_20  and  C_21
REMARK                            x       y       z     vdW  Elec       q    Type
REMARK                         _______ _______ _______ _____ _____    ______ ____
ROOT
ATOM      1  C   UNL     1       6.073   5.002  15.765  0.00  0.00    +0.000 C 
ATOM      2  C   UNL     1       5.427   3.907  16.215  0.00  0.00    +0.000 C 
ENDROOT
BRANCH   2   3
ATOM      3  C   UNL     1       4.458   3.793  17.308  0.00  0.00    +0.000 A 
ATOM      4  C   UNL     1       3.093   3.666  17.052  0.00  0.00    +0.000 A 
ATOM      5  C   UNL     1       2.203   3.319  18.083  0.00  0.00    +0.000 A 
ATOM      6  C   UNL     1       2.643   3.084  19.397  0.00  0.00    +0.000 A 
ATOM      7  C   UNL     1       4.014   3.282  19.632  0.00  0.00    +0.000 A 
ATOM      8  C   UNL     1       4.913   3.620  18.612  0.00  0.00    +0.000 A 
BRANCH   6   9
ATOM      9  N   UNL     1       1.791   2.721  20.439  0.00  0.00    +0.000 N 
ATOM     10  C   UNL     1       0.353   2.961  20.294  0.00  0.00    +0.000 C 
ATOM     11  C   UNL     1       2.256   2.697  21.822  0.00  0.00    +0.000 C 
ENDBRANCH   6   9
ENDBRANCH   2   3
BRANCH   1  12
ATOM     12  C   UNL     1       6.980   4.790  14.551  0.00  0.00    +0.000 C 
ATOM     13  O   UNL     1       7.868   5.562  14.212  0.00  0.00    +0.000 OA
BRANCH  12  14
ATOM     14  O   UNL     1       6.567   3.702  13.836  0.00  0.00    +0.000 OA
BRANCH  14  16
ATOM     15  C   UNL     1       5.579   2.851  11.831  0.00  0.00    +0.000 C 
ATOM     16  C   UNL     1       6.608   3.804  12.408  0.00  0.00    +0.000 C 
ENDBRANCH  14  16
ENDBRANCH  12  14
ENDBRANCH   1  12
BRANCH   1  17
ATOM     17  N   UNL     1       5.904   6.308  16.270  0.00  0.00    +0.000 N 
BRANCH  17  18
ATOM     18  C   UNL     1       4.605   7.009  16.192  0.00  0.00    +0.000 C 
ATOM     19  C   UNL     1       3.954   7.260  17.542  0.00  0.00    +0.000 C 
ENDBRANCH  17  18
BRANCH  17  20
ATOM     20  C   UNL     1       6.715   6.716  17.441  0.00  0.00    +0.000 C 
ATOM     21  C   UNL     1       7.641   5.624  17.969  0.00  0.00    +0.000 C 
ENDBRANCH  17  20
ENDBRANCH   1  17
TORSDOF 8
ENDMDL
MODEL 9
REMARK VINA RESULT:      -6.2      3.474      5.266
REMARK  Name = 
REMARK  13 active torsions:
REMARK  status: ('A' for Active; 'I' for Inactive)
REMARK    1  A    between atoms: C_1  and  C_2
REMARK    2  A    between atoms: C_2  and  O_3
REMARK    3  A    between atoms: O_3  and  C_4
REMARK    4  A    between atoms: C_4  and  C_6
REMARK    5  A    between atoms: C_6  and  N_17
REMARK    6  A    between atoms: C_7  and  C_8
REMARK    7  A    between atoms: C_11  and  N_12
REMARK    8  A    between atoms: N_12  and  C_13
REMARK    9  A    between atoms: N_12  and  C_14
REMARK   10  A    between atoms: N_17  and  C_18
REMARK   11  A    between atoms: N_17  and  C_20
REMARK   12  A    between atoms: C_18  and  C_19
REMARK   13  A    between atoms: C_20  and  C_21
REMARK                            x       y       z     vdW  Elec       q    Type
REMARK                         _______ _______ _______ _____ _____    ______ ____
ROOT
ATOM      1  C   UNL     1       3.615   5.632  18.117  0.00  0.00    +0.000 C 
ATOM      2  C   UNL     1       3.513   6.976  18.168  0.00  0.00    +0.000 C 
ENDROOT
BRANCH   2   3
ATOM      3  C   UNL     1       2.385   7.799  18.610  0.00  0.00    +0.000 A 
ATOM      4  C   UNL     1       1.989   7.823  19.947  0.00  0.00    +0.000 A 
ATOM      5  C   UNL     1       1.072   8.786  20.401  0.00  0.00    +0.000 A 
ATOM      6  C   UNL     1       0.525   9.756  19.544  0.00  0.00    +0.000 A 
ATOM      7  C   UNL     1       0.899   9.663  18.192  0.00  0.00    +0.000 A 
ATOM      8  C   UNL     1       1.817   8.713  17.727  0.00  0.00    +0.000 A 
BRANCH   6   9
ATOM      9  N   UNL     1      -0.372  10.736  19.965  0.00  0.00    +0.000 N 
ATOM     10  C   UNL     1      -1.090  11.518  18.955  0.00  0.00    +0.000 C 
ATOM     11  C   UNL     1      -0.197  11.424  21.241  0.00  0.00    +0.000 C 
ENDBRANCH   6   9
ENDBRANCH   2   3
BRANCH   1  12
ATOM     12  C   UNL     1       4.967   5.081  17.663  0.00  0.00    +0.000 C 
ATOM     13  O   UNL     1       5.903   4.843  18.417  0.00  0.00    +0.000 OA
BRANCH  12  14
ATOM     14  O   UNL     1       5.023   5.028  16.299  0.00  0.00    +0.000 OA
BRANCH  14  16
ATOM     15  C   UNL     1       6.245   4.250  14.396  0.00  0.00    +0.000 C 
ATOM     16  C   UNL     1       5.602   3.857  15.712  0.00  0.00    +0.000 C 
ENDBRANCH  14  16
ENDBRANCH  12  14
ENDBRANCH   1  12
BRANCH   1  17
ATOM     17  N   UNL     1       2.613   4.728  18.530  0.00  0.00    +0.000 N 
BRANCH  17  18
ATOM     18  C   UNL     1       1.970   3.795  17.580  0.00  0.00    +0.000 C 
ATOM     19  C   UNL     1       2.480   2.367  17.675  0.00  0.00    +0.000 C 
ENDBRANCH  17  18
BRANCH  17  20
ATOM     20  C   UNL     1       2.673   4.201  19.913  0.00  0.00    +0.000 C 
ATOM     21  C   UNL     1       1.348   4.270  20.665  0.00  0.00    +0.000 C 
ENDBRANCH  17  20
ENDBRANCH   1  17
TORSDOF 8
ENDMDL
