MODEL 1
REMARK VINA RESULT:      -7.7      0.000      0.000
REMARK  Name = 
REMARK  6 active torsions:
REMARK  status: ('A' for Active; 'I' for Inactive)
REMARK    1  A    between atoms: C_1  and  C_2
REMARK    2  A    between atoms: N_4  and  C_5
REMARK    3  A    between atoms: C_5  and  C_6
REMARK    4  A    between atoms: C_10  and  N_11
REMARK    5  A    between atoms: N_11  and  C_12
REMARK    6  A    between atoms: N_11  and  C_13
REMARK                            x       y       z     vdW  Elec       q    Type
REMARK                         _______ _______ _______ _____ _____    ______ ____
ROOT
ATOM      1  C   UNL     1       6.902   4.771  14.153  0.00  0.00    +0.000 C 
ATOM      2  O   UNL     1       7.809   5.600  14.021  0.00  0.00    +0.000 OA
ATOM      3  N   UNL     1       6.094   4.761  15.268  0.00  0.00    +0.000 N 
ATOM      4  C   UNL     1       5.064   3.798  15.641  0.00  0.00    +0.000 C 
ATOM      5  C   UNL     1       4.986   3.901  17.187  0.00  0.00    +0.000 C 
ATOM      6  C   UNL     1       5.366   5.365  17.420  0.00  0.00    +0.000 C 
ATOM      7  C   UNL     1       5.847   5.830  18.782  0.00  0.00    +0.000 C 
ATOM      8  C   UNL     1       4.536   6.327  18.253  0.00  0.00    +0.000 C 
ATOM      9  C   UNL     1       6.130   5.859  16.211  0.00  0.00    +0.000 C 
ENDROOT
BRANCH   5  10
ATOM     10  N   UNL     1       3.705   3.483  17.784  0.00  0.00    +0.000 N 
ATOM     11  C   UNL     1       2.537   3.244  16.963  0.00  0.00    +0.000 C 
BRANCH  10  12
ATOM     12  C   UNL     1       3.773   2.936  19.066  0.00  0.00    +0.000 A 
ATOM     13  N   UNL     1       4.912   2.264  19.401  0.00  0.00    +0.000 NA
ATOM     14  C   UNL     1       5.053   1.741  20.633  0.00  0.00    +0.000 A 
ATOM     15  N   UNL     1       4.157   1.721  21.625  0.00  0.00    +0.000 NA
ATOM     16  C   UNL     1       3.034   2.358  21.270  0.00  0.00    +0.000 A 
ATOM     17  N   UNL     1       1.929   2.447  22.070  0.00  0.00    +0.000 N 
ATOM     18  C   UNL     1       0.962   3.183  21.443  0.00  0.00    +0.000 A 
ATOM     19  C   UNL     1       1.460   3.560  20.214  0.00  0.00    +0.000 A 
ATOM     20  C   UNL     1       2.772   3.009  20.069  0.00  0.00    +0.000 A 
ATOM     21  H   UNL     1       1.859   2.007  22.977  0.00  0.00    +0.000 HD
ENDBRANCH  10  12
ENDBRANCH   5  10
BRANCH   1  22
ATOM     22  C   UNL     1       6.706   3.685  13.092  0.00  0.00    +0.000 C 
BRANCH  22  26
ATOM     23  C   UNL     1       3.650   3.179  10.911  0.00  0.00    +0.000 C 
ATOM     24  C   UNL     1       4.953   2.840  11.570  0.00  0.00    +0.000 C 
ATOM     25  O   UNL     1       5.524   1.767  11.385  0.00  0.00    +0.000 OA
ATOM     26  N   UNL     1       5.447   3.831  12.386  0.00  0.00    +0.000 N 
ATOM     27  H   UNL     1       4.922   4.688  12.524  0.00  0.00    +0.000 HD
ENDBRANCH  22  26
ENDBRANCH   1  22
TORSDOF 4
ENDMDL
MODEL 2
REMARK VINA RESULT:      -7.5      6.765      8.628
REMARK  Name = 
REMARK  6 active torsions:
REMARK  status: ('A' for Active; 'I' for Inactive)
REMARK    1  A    between atoms: C_1  and  C_2
REMARK    2  A    between atoms: N_4  and  C_5
REMARK    3  A    between atoms: C_5  and  C_6
REMARK    4  A    between atoms: C_10  and  N_11
REMARK    5  A    between atoms: N_11  and  C_12
REMARK    6  A    between atoms: N_11  and  C_13
REMARK                            x       y       z     vdW  Elec       q    Type
REMARK                         _______ _______ _______ _____ _____    ______ ____
ROOT
ATOM      1  C   UNL     1       2.871   6.465  19.134  0.00  0.00    +0.000 C 
ATOM      2  O   UNL     1       2.958   5.454  19.840  0.00  0.00    +0.000 OA
ATOM      3  N   UNL     1       2.163   7.571  19.548  0.00  0.00    +0.000 N 
ATOM      4  C   UNL     1       1.860   8.791  18.807  0.00  0.00    +0.000 C 
ATOM      5  C   UNL     1       0.563   9.328  19.468  0.00  0.00    +0.000 C 
ATOM      6  C   UNL     1       0.722   8.836  20.909  0.00  0.00    +0.000 C 
ATOM      7  C   UNL     1      -0.481   8.739  21.829  0.00  0.00    +0.000 C 
ATOM      8  C   UNL     1       0.596   9.738  22.124  0.00  0.00    +0.000 C 
ATOM      9  C   UNL     1       1.692   7.674  20.913  0.00  0.00    +0.000 C 
ENDROOT
BRANCH   5  10
ATOM     10  N   UNL     1       0.333  10.775  19.322  0.00  0.00    +0.000 N 
ATOM     11  C   UNL     1       1.399  11.669  18.922  0.00  0.00    +0.000 C 
BRANCH  10  12
ATOM     12  C   UNL     1      -0.996  11.175  19.174  0.00  0.00    +0.000 A 
ATOM     13  N   UNL     1      -1.501  12.034  20.104  0.00  0.00    +0.000 NA
ATOM     14  C   UNL     1      -2.765  12.483  20.001  0.00  0.00    +0.000 A 
ATOM     15  N   UNL     1      -3.688  12.136  19.096  0.00  0.00    +0.000 NA
ATOM     16  C   UNL     1      -3.187  11.269  18.208  0.00  0.00    +0.000 A 
ATOM     17  N   UNL     1      -3.923  10.705  17.203  0.00  0.00    +0.000 N 
ATOM     18  C   UNL     1      -3.126   9.889  16.448  0.00  0.00    +0.000 A 
ATOM     19  C   UNL     1      -1.859   9.929  16.992  0.00  0.00    +0.000 A 
ATOM     20  C   UNL     1      -1.887  10.776  18.143  0.00  0.00    +0.000 A 
ATOM     21  H   UNL     1      -4.911  10.870  17.075  0.00  0.00    +0.000 HD
ENDBRANCH  10  12
ENDBRANCH   5  10
BRANCH   1  22
ATOM     22  C   UNL     1       3.504   6.474  17.741  0.00  0.00    +0.000 C 
BRANCH  22  26
ATOM     23  C   UNL     1       7.194   6.193  16.924  0.00  0.00    +0.000 C 
ATOM     24  C   UNL     1       5.738   6.456  16.683  0.00  0.00    +0.000 C 
ATOM     25  O   UNL     1       5.303   6.792  15.583  0.00  0.00    +0.000 OA
ATOM     26  N   UNL     1       4.942   6.281  17.792  0.00  0.00    +0.000 N 
ATOM     27  H   UNL     1       5.356   6.029  18.683  0.00  0.00    +0.000 HD
ENDBRANCH  22  26
ENDBRANCH   1  22
TORSDOF 4
ENDMDL
MODEL 3
REMARK VINA RESULT:      -7.4      3.497      5.840
REMARK  Name = 
REMARK  6 active torsions:
REMARK  status: ('A' for Active; 'I' for Inactive)
REMARK    1  A    between atoms: C_1  and  C_2
REMARK    2  A    between atoms: N_4  and  C_5
REMARK    3  A    between atoms: C_5  and  C_6
REMARK    4  A    between atoms: C_10  and  N_11
REMARK    5  A    between atoms: N_11  and  C_12
REMARK    6  A    between atoms: N_11  and  C_13
REMARK                            x       y       z     vdW  Elec       q    Type
REMARK                         _______ _______ _______ _____ _____    ______ ____
ROOT
ATOM      1  C   UNL     1       5.983   4.143  16.580  0.00  0.00    +0.000 C 
ATOM      2  O   UNL     1       5.976   3.586  15.476  0.00  0.00    +0.000 OA
ATOM      3  N   UNL     1       4.830   4.287  17.319  0.00  0.00    +0.000 N 
ATOM      4  C   UNL     1       4.632   5.010  18.571  0.00  0.00    +0.000 C 
ATOM      5  C   UNL     1       3.124   5.379  18.564  0.00  0.00    +0.000 C 
ATOM      6  C   UNL     1       2.524   4.217  17.770  0.00  0.00    +0.000 C 
ATOM      7  C   UNL     1       1.153   4.346  17.130  0.00  0.00    +0.000 C 
ATOM      8  C   UNL     1       1.354   3.380  18.258  0.00  0.00    +0.000 C 
ATOM      9  C   UNL     1       3.620   3.590  16.936  0.00  0.00    +0.000 C 
ENDROOT
BRANCH   5  10
ATOM     10  N   UNL     1       2.525   5.607  19.891  0.00  0.00    +0.000 N 
ATOM     11  C   UNL     1       2.866   4.772  21.023  0.00  0.00    +0.000 C 
BRANCH  10  12
ATOM     12  C   UNL     1       1.969   6.869  20.105  0.00  0.00    +0.000 A 
ATOM     13  N   UNL     1       1.315   7.074  21.284  0.00  0.00    +0.000 NA
ATOM     14  C   UNL     1       0.784   8.278  21.565  0.00  0.00    +0.000 A 
ATOM     15  N   UNL     1       0.740   9.360  20.780  0.00  0.00    +0.000 NA
ATOM     16  C   UNL     1       1.359   9.133  19.615  0.00  0.00    +0.000 A 
ATOM     17  N   UNL     1       1.421  10.048  18.601  0.00  0.00    +0.000 N 
ATOM     18  C   UNL     1       2.145   9.535  17.559  0.00  0.00    +0.000 A 
ATOM     19  C   UNL     1       2.541   8.263  17.917  0.00  0.00    +0.000 A 
ATOM     20  C   UNL     1       2.015   7.973  19.215  0.00  0.00    +0.000 A 
ATOM     21  H   UNL     1       0.973  10.952  18.635  0.00  0.00    +0.000 HD
ENDBRANCH  10  12
ENDBRANCH   5  10
BRANCH   1  22
ATOM     22  C   UNL     1       7.282   4.749  17.116  0.00  0.00    +0.000 C 
BRANCH  22  26
ATOM     23  C   UNL     1       7.724   8.489  17.537  0.00  0.00    +0.000 C 
ATOM     24  C   UNL     1       7.754   7.039  17.916  0.00  0.00    +0.000 C 
ATOM     25  O   UNL     1       8.119   6.656  19.027  0.00  0.00    +0.000 OA
ATOM     26  N   UNL     1       7.336   6.187  16.921  0.00  0.00    +0.000 N 
ATOM     27  H   UNL     1       7.070   6.553  16.013  0.00  0.00    +0.000 HD
ENDBRANCH  22  26
ENDBRANCH   1  22
TORSDOF 4
ENDMDL
MODEL 4
REMARK VINA RESULT:      -7.4      6.631      8.558
REMARK  Name = 
REMARK  6 active torsions:
REMARK  status: ('A' for Active; 'I' for Inactive)
REMARK    1  A    between atoms: C_1  and  C_2
REMARK    2  A    between atoms: N_4  and  C_5
REMARK    3  A    between atoms: C_5  and  C_6
REMARK    4  A    between atoms: C_10  and  N_11
REMARK    5  A    between atoms: N_11  and  C_12
REMARK    6  A    between atoms: N_11  and  C_13
REMARK                            x       y       z     vdW  Elec       q    Type
REMARK                         _______ _______ _______ _____ _____    ______ ____
ROOT
ATOM      1  C   UNL     1       3.130   5.942  19.383  0.00  0.00    +0.000 C 
ATOM      2  O   UNL     1       3.185   5.043  20.230  0.00  0.00    +0.000 OA
ATOM      3  N   UNL     1       2.422   7.101  19.612  0.00  0.00    +0.000 N 
ATOM      4  C   UNL     1       2.153   8.203  18.694  0.00  0.00    +0.000 C 
ATOM      5  C   UNL     1       0.844   8.839  19.233  0.00  0.00    +0.000 C 
ATOM      6  C   UNL     1       0.958   8.559  20.733  0.00  0.00    +0.000 C 
ATOM      7  C   UNL     1      -0.271   8.605  21.622  0.00  0.00    +0.000 C 
ATOM      8  C   UNL     1       0.808   9.629  21.802  0.00  0.00    +0.000 C 
ATOM      9  C   UNL     1       1.914   7.404  20.934  0.00  0.00    +0.000 C 
ENDROOT
BRANCH   5  10
ATOM     10  N   UNL     1       0.634  10.252  18.873  0.00  0.00    +0.000 N 
ATOM     11  C   UNL     1       1.740  11.098  18.476  0.00  0.00    +0.000 C 
BRANCH  10  12
ATOM     12  C   UNL     1      -0.670  10.611  18.530  0.00  0.00    +0.000 A 
ATOM     13  N   UNL     1      -1.200  10.054  17.404  0.00  0.00    +0.000 NA
ATOM     14  C   UNL     1      -2.463  10.334  17.037  0.00  0.00    +0.000 A 
ATOM     15  N   UNL     1      -3.315  11.190  17.613  0.00  0.00    +0.000 NA
ATOM     16  C   UNL     1      -2.770  11.751  18.699  0.00  0.00    +0.000 A 
ATOM     17  N   UNL     1      -3.397  12.704  19.453  0.00  0.00    +0.000 N 
ATOM     18  C   UNL     1      -2.601  13.057  20.508  0.00  0.00    +0.000 A 
ATOM     19  C   UNL     1      -1.439  12.319  20.414  0.00  0.00    +0.000 A 
ATOM     20  C   UNL     1      -1.513  11.506  19.241  0.00  0.00    +0.000 A 
ATOM     21  H   UNL     1      -4.305  13.086  19.229  0.00  0.00    +0.000 HD
ENDBRANCH  10  12
ENDBRANCH   5  10
BRANCH   1  22
ATOM     22  C   UNL     1       3.801   5.745  18.022  0.00  0.00    +0.000 C 
BRANCH  22  26
ATOM     23  C   UNL     1       7.559   6.095  18.355  0.00  0.00    +0.000 C 
ATOM     24  C   UNL     1       6.220   5.424  18.412  0.00  0.00    +0.000 C 
ATOM     25  O   UNL     1       6.082   4.262  18.790  0.00  0.00    +0.000 OA
ATOM     26  N   UNL     1       5.172   6.221  18.015  0.00  0.00    +0.000 N 
ATOM     27  H   UNL     1       5.344   7.166  17.686  0.00  0.00    +0.000 HD
ENDBRANCH  22  26
ENDBRANCH   1  22
TORSDOF 4
ENDMDL
MODEL 5
REMARK VINA RESULT:      -7.3      4.379      7.418
REMARK  Name = 
REMARK  6 active torsions:
REMARK  status: ('A' for Active; 'I' for Inactive)
REMARK    1  A    between atoms: C_1  and  C_2
REMARK    2  A    between atoms: N_4  and  C_5
REMARK    3  A    between atoms: C_5  and  C_6
REMARK    4  A    between atoms: C_10  and  N_11
REMARK    5  A    between atoms: N_11  and  C_12
REMARK    6  A    between atoms: N_11  and  C_13
REMARK                            x       y       z     vdW  Elec       q    Type
REMARK                         _______ _______ _______ _____ _____    ______ ____
ROOT
ATOM      1  C   UNL     1       1.363   8.148  20.486  0.00  0.00    +0.000 C 
ATOM      2  O   UNL     1       0.764   8.316  21.555  0.00  0.00    +0.000 OA
ATOM      3  N   UNL     1       1.820   6.906  20.107  0.00  0.00    +0.000 N 
ATOM      4  C   UNL     1       2.637   6.547  18.953  0.00  0.00    +0.000 C 
ATOM      5  C   UNL     1       3.357   5.241  19.385  0.00  0.00    +0.000 C 
ATOM      6  C   UNL     1       2.333   4.623  20.339  0.00  0.00    +0.000 C 
ATOM      7  C   UNL     1       2.753   3.565  21.343  0.00  0.00    +0.000 C 
ATOM      8  C   UNL     1       1.831   3.194  20.221  0.00  0.00    +0.000 C 
ATOM      9  C   UNL     1       1.415   5.720  20.833  0.00  0.00    +0.000 C 
ENDROOT
BRANCH   5  10
ATOM     10  N   UNL     1       3.796   4.368  18.283  0.00  0.00    +0.000 N 
ATOM     11  C   UNL     1       2.843   3.787  17.360  0.00  0.00    +0.000 C 
BRANCH  10  12
ATOM     12  C   UNL     1       5.140   4.463  17.921  0.00  0.00    +0.000 A 
ATOM     13  N   UNL     1       6.054   4.580  18.926  0.00  0.00    +0.000 NA
ATOM     14  C   UNL     1       7.369   4.644  18.645  0.00  0.00    +0.000 A 
ATOM     15  N   UNL     1       7.951   4.680  17.441  0.00  0.00    +0.000 NA
ATOM     16  C   UNL     1       7.039   4.596  16.465  0.00  0.00    +0.000 A 
ATOM     17  N   UNL     1       7.346   4.662  15.135  0.00  0.00    +0.000 N 
ATOM     18  C   UNL     1       6.209   4.515  14.389  0.00  0.00    +0.000 A 
ATOM     19  C   UNL     1       5.155   4.363  15.266  0.00  0.00    +0.000 A 
ATOM     20  C   UNL     1       5.661   4.451  16.601  0.00  0.00    +0.000 A 
ATOM     21  H   UNL     1       8.281   4.818  14.785  0.00  0.00    +0.000 HD
ENDBRANCH  10  12
ENDBRANCH   5  10
BRANCH   1  22
ATOM     22  C   UNL     1       1.667   9.350  19.590  0.00  0.00    +0.000 C 
BRANCH  22  26
ATOM     23  C   UNL     1      -1.302  11.619  18.962  0.00  0.00    +0.000 C 
ATOM     24  C   UNL     1      -0.339  10.498  18.714  0.00  0.00    +0.000 C 
ATOM     25  O   UNL     1      -0.422   9.764  17.730  0.00  0.00    +0.000 OA
ATOM     26  N   UNL     1       0.637  10.370  19.675  0.00  0.00    +0.000 N 
ATOM     27  H   UNL     1       0.644  10.985  20.481  0.00  0.00    +0.000 HD
ENDBRANCH  22  26
ENDBRANCH   1  22
TORSDOF 4
ENDMDL
MODEL 6
REMARK VINA RESULT:      -7.3      7.062      8.847
REMARK  Name = 
REMARK  6 active torsions:
REMARK  status: ('A' for Active; 'I' for Inactive)
REMARK    1  A    between atoms: C_1  and  C_2
REMARK    2  A    between atoms: N_4  and  C_5
REMARK    3  A    between atoms: C_5  and  C_6
REMARK    4  A    between atoms: C_10  and  N_11
REMARK    5  A    between atoms: N_11  and  C_12
REMARK    6  A    between atoms: N_11  and  C_13
REMARK                            x       y       z     vdW  Elec       q    Type
REMARK                         _______ _______ _______ _____ _____    ______ ____
ROOT
ATOM      1  C   UNL     1       2.504   6.377  19.683  0.00  0.00    +0.000 C 
ATOM      2  O   UNL     1       2.624   5.478  20.523  0.00  0.00    +0.000 OA
ATOM      3  N   UNL     1       1.876   7.564  19.987  0.00  0.00    +0.000 N 
ATOM      4  C   UNL     1       1.545   8.675  19.101  0.00  0.00    +0.000 C 
ATOM      5  C   UNL     1       0.337   9.366  19.789  0.00  0.00    +0.000 C 
ATOM      6  C   UNL     1       0.618   9.084  21.266  0.00  0.00    +0.000 C 
ATOM      7  C   UNL     1      -0.493   9.182  22.295  0.00  0.00    +0.000 C 
ATOM      8  C   UNL     1       0.641  10.160  22.338  0.00  0.00    +0.000 C 
ATOM      9  C   UNL     1       1.543   7.890  21.359  0.00  0.00    +0.000 C 
ENDROOT
BRANCH   5  10
ATOM     10  N   UNL     1       0.143  10.785  19.447  0.00  0.00    +0.000 N 
ATOM     11  C   UNL     1       1.231  11.589  18.931  0.00  0.00    +0.000 C 
BRANCH  10  12
ATOM     12  C   UNL     1      -1.176  11.194  19.243  0.00  0.00    +0.000 A 
ATOM     13  N   UNL     1      -1.722  12.034  20.168  0.00  0.00    +0.000 NA
ATOM     14  C   UNL     1      -2.979  12.490  20.013  0.00  0.00    +0.000 A 
ATOM     15  N   UNL     1      -3.857  12.169  19.057  0.00  0.00    +0.000 NA
ATOM     16  C   UNL     1      -3.316  11.321  18.174  0.00  0.00    +0.000 A 
ATOM     17  N   UNL     1      -4.003  10.785  17.121  0.00  0.00    +0.000 N 
ATOM     18  C   UNL     1      -3.173   9.984  16.386  0.00  0.00    +0.000 A 
ATOM     19  C   UNL     1      -1.934  10.004  16.992  0.00  0.00    +0.000 A 
ATOM     20  C   UNL     1      -2.016  10.824  18.161  0.00  0.00    +0.000 A 
ATOM     21  H   UNL     1      -4.983  10.957  16.948  0.00  0.00    +0.000 HD
ENDBRANCH  10  12
ENDBRANCH   5  10
BRANCH   1  22
ATOM     22  C   UNL     1       2.999   6.150  18.253  0.00  0.00    +0.000 C 
BRANCH  22  26
ATOM     23  C   UNL     1       2.782   2.476  17.354  0.00  0.00    +0.000 C 
ATOM     24  C   UNL     1       2.306   3.883  17.557  0.00  0.00    +0.000 C 
ATOM     25  O   UNL     1       1.140   4.218  17.357  0.00  0.00    +0.000 OA
ATOM     26  N   UNL     1       3.282   4.752  17.987  0.00  0.00    +0.000 N 
ATOM     27  H   UNL     1       4.235   4.429  18.111  0.00  0.00    +0.000 HD
ENDBRANCH  22  26
ENDBRANCH   1  22
TORSDOF 4
ENDMDL
MODEL 7
REMARK VINA RESULT:      -7.3      4.592      7.812
REMARK  Name = 
REMARK  6 active torsions:
REMARK  status: ('A' for Active; 'I' for Inactive)
REMARK    1  A    between atoms: C_1  and  C_2
REMARK    2  A    between atoms: N_4  and  C_5
REMARK    3  A    between atoms: C_5  and  C_6
REMARK    4  A    between atoms: C_10  and  N_11
REMARK    5  A    between atoms: N_11  and  C_12
REMARK    6  A    between atoms: N_11  and  C_13
REMARK                            x       y       z     vdW  Elec       q    Type
REMARK                         _______ _______ _______ _____ _____    ______ ____
ROOT
ATOM      1  C   UNL     1       1.306   8.076  20.649  0.00  0.00    +0.000 C 
ATOM      2  O   UNL     1       0.719   8.197  21.731  0.00  0.00    +0.000 OA
ATOM      3  N   UNL     1       1.775   6.855  20.220  0.00  0.00    +0.000 N 
ATOM      4  C   UNL     1       2.582   6.549  19.043  0.00  0.00    +0.000 C 
ATOM      5  C   UNL     1       3.325   5.239  19.419  0.00  0.00    +0.000 C 
ATOM      6  C   UNL     1       2.322   4.572  20.362  0.00  0.00    +0.000 C 
ATOM      7  C   UNL     1       2.770   3.485  21.322  0.00  0.00    +0.000 C 
ATOM      8  C   UNL     1       1.838   3.142  20.200  0.00  0.00    +0.000 C 
ATOM      9  C   UNL     1       1.396   5.638  20.908  0.00  0.00    +0.000 C 
ENDROOT
BRANCH   5  10
ATOM     10  N   UNL     1       3.761   4.412  18.281  0.00  0.00    +0.000 N 
ATOM     11  C   UNL     1       2.809   3.891  17.323  0.00  0.00    +0.000 C 
BRANCH  10  12
ATOM     12  C   UNL     1       5.110   4.505  17.934  0.00  0.00    +0.000 A 
ATOM     13  N   UNL     1       6.010   4.640  18.950  0.00  0.00    +0.000 NA
ATOM     14  C   UNL     1       7.328   4.702  18.685  0.00  0.00    +0.000 A 
ATOM     15  N   UNL     1       7.926   4.719  17.489  0.00  0.00    +0.000 NA
ATOM     16  C   UNL     1       7.027   4.616  16.502  0.00  0.00    +0.000 A 
ATOM     17  N   UNL     1       7.352   4.661  15.175  0.00  0.00    +0.000 N 
ATOM     18  C   UNL     1       6.225   4.498  14.417  0.00  0.00    +0.000 A 
ATOM     19  C   UNL     1       5.160   4.359  15.283  0.00  0.00    +0.000 A 
ATOM     20  C   UNL     1       5.649   4.471  16.622  0.00  0.00    +0.000 A 
ATOM     21  H   UNL     1       8.291   4.812  14.835  0.00  0.00    +0.000 HD
ENDBRANCH  10  12
ENDBRANCH   5  10
BRANCH   1  22
ATOM     22  C   UNL     1       1.582   9.314  19.793  0.00  0.00    +0.000 C 
BRANCH  22  26
ATOM     23  C   UNL     1      -0.851  12.170  20.323  0.00  0.00    +0.000 C 
ATOM     24  C   UNL     1       0.413  11.380  20.479  0.00  0.00    +0.000 C 
ATOM     25  O   UNL     1       1.335  11.751  21.203  0.00  0.00    +0.000 OA
ATOM     26  N   UNL     1       0.444  10.214  19.751  0.00  0.00    +0.000 N 
ATOM     27  H   UNL     1      -0.334   9.968  19.147  0.00  0.00    +0.000 HD
ENDBRANCH  22  26
ENDBRANCH   1  22
TORSDOF 4
ENDMDL
MODEL 8
REMARK VINA RESULT:      -7.3      1.575      2.087
REMARK  Name = 
REMARK  6 active torsions:
REMARK  status: ('A' for Active; 'I' for Inactive)
REMARK    1  A    between atoms: C_1  and  C_2
REMARK    2  A    between atoms: N_4  and  C_5
REMARK    3  A    between atoms: C_5  and  C_6
REMARK    4  A    between atoms: C_10  and  N_11
REMARK    5  A    between atoms: N_11  and  C_12
REMARK    6  A    between atoms: N_11  and  C_13
REMARK                            x       y       z     vdW  Elec       q    Type
REMARK                         _______ _______ _______ _____ _____    ______ ____
ROOT
ATOM      1  C   UNL     1       6.013   3.622  12.841  0.00  0.00    +0.000 C 
ATOM      2  O   UNL     1       7.092   3.542  12.244  0.00  0.00    +0.000 OA
ATOM      3  N   UNL     1       5.938   4.112  14.126  0.00  0.00    +0.000 N 
ATOM      4  C   UNL     1       4.782   4.171  15.015  0.00  0.00    +0.000 C 
ATOM      5  C   UNL     1       5.397   4.174  16.440  0.00  0.00    +0.000 C 
ATOM      6  C   UNL     1       6.733   4.881  16.201  0.00  0.00    +0.000 C 
ATOM      7  C   UNL     1       7.869   4.741  17.197  0.00  0.00    +0.000 C 
ATOM      8  C   UNL     1       7.210   6.074  17.011  0.00  0.00    +0.000 C 
ATOM      9  C   UNL     1       7.081   4.762  14.733  0.00  0.00    +0.000 C 
ENDROOT
BRANCH   5  10
ATOM     10  N   UNL     1       4.552   4.770  17.490  0.00  0.00    +0.000 N 
ATOM     11  C   UNL     1       3.868   6.029  17.279  0.00  0.00    +0.000 C 
BRANCH  10  12
ATOM     12  C   UNL     1       4.111   3.902  18.490  0.00  0.00    +0.000 A 
ATOM     13  N   UNL     1       5.042   3.433  19.369  0.00  0.00    +0.000 NA
ATOM     14  C   UNL     1       4.677   2.618  20.375  0.00  0.00    +0.000 A 
ATOM     15  N   UNL     1       3.464   2.110  20.622  0.00  0.00    +0.000 NA
ATOM     16  C   UNL     1       2.568   2.556  19.734  0.00  0.00    +0.000 A 
ATOM     17  N   UNL     1       1.260   2.158  19.714  0.00  0.00    +0.000 N 
ATOM     18  C   UNL     1       0.593   2.810  18.713  0.00  0.00    +0.000 A 
ATOM     19  C   UNL     1       1.501   3.631  18.077  0.00  0.00    +0.000 A 
ATOM     20  C   UNL     1       2.780   3.453  18.691  0.00  0.00    +0.000 A 
ATOM     21  H   UNL     1       0.877   1.469  20.345  0.00  0.00    +0.000 HD
ENDBRANCH  10  12
ENDBRANCH   5  10
BRANCH   1  22
ATOM     22  C   UNL     1       4.736   3.107  12.173  0.00  0.00    +0.000 C 
BRANCH  22  26
ATOM     23  C   UNL     1       2.941   4.650   9.214  0.00  0.00    +0.000 C 
ATOM     24  C   UNL     1       3.244   3.635  10.275  0.00  0.00    +0.000 C 
ATOM     25  O   UNL     1       2.609   2.588  10.386  0.00  0.00    +0.000 OA
ATOM     26  N   UNL     1       4.290   3.977  11.100  0.00  0.00    +0.000 N 
ATOM     27  H   UNL     1       4.764   4.866  10.983  0.00  0.00    +0.000 HD
ENDBRANCH  22  26
ENDBRANCH   1  22
TORSDOF 4
ENDMDL
MODEL 9
REMARK VINA RESULT:      -7.2      4.496      7.503
REMARK  Name = 
REMARK  6 active torsions:
REMARK  status: ('A' for Active; 'I' for Inactive)
REMARK    1  A    between atoms: C_1  and  C_2
REMARK    2  A    between atoms: N_4  and  C_5
REMARK    3  A    between atoms: C_5  and  C_6
REMARK    4  A    between atoms: C_10  and  N_11
REMARK    5  A    between atoms: N_11  and  C_12
REMARK    6  A    between atoms: N_11  and  C_13
REMARK                            x       y       z     vdW  Elec       q    Type
REMARK                         _______ _______ _______ _____ _____    ______ ____
ROOT
ATOM      1  C   UNL     1       1.421   8.878  19.582  0.00  0.00    +0.000 C 
ATOM      2  O   UNL     1       0.801   9.271  20.577  0.00  0.00    +0.000 OA
ATOM      3  N   UNL     1       1.834   7.570  19.464  0.00  0.00    +0.000 N 
ATOM      4  C   UNL     1       2.666   6.965  18.429  0.00  0.00    +0.000 C 
ATOM      5  C   UNL     1       3.316   5.741  19.129  0.00  0.00    +0.000 C 
ATOM      6  C   UNL     1       2.240   5.356  20.146  0.00  0.00    +0.000 C 
ATOM      7  C   UNL     1       2.585   4.496  21.347  0.00  0.00    +0.000 C 
ATOM      8  C   UNL     1       1.679   3.952  20.285  0.00  0.00    +0.000 C 
ATOM      9  C   UNL     1       1.358   6.562  20.389  0.00  0.00    +0.000 C 
ENDROOT
BRANCH   5  10
ATOM     10  N   UNL     1       3.747   4.656  18.230  0.00  0.00    +0.000 N 
ATOM     11  C   UNL     1       2.794   3.938  17.410  0.00  0.00    +0.000 C 
BRANCH  10  12
ATOM     12  C   UNL     1       5.101   4.636  17.896  0.00  0.00    +0.000 A 
ATOM     13  N   UNL     1       6.001   4.692  18.919  0.00  0.00    +0.000 NA
ATOM     14  C   UNL     1       7.322   4.644  18.666  0.00  0.00    +0.000 A 
ATOM     15  N   UNL     1       7.929   4.614  17.474  0.00  0.00    +0.000 NA
ATOM     16  C   UNL     1       7.033   4.590  16.480  0.00  0.00    +0.000 A 
ATOM     17  N   UNL     1       7.372   4.610  15.156  0.00  0.00    +0.000 N 
ATOM     18  C   UNL     1       6.242   4.545  14.387  0.00  0.00    +0.000 A 
ATOM     19  C   UNL     1       5.162   4.493  15.244  0.00  0.00    +0.000 A 
ATOM     20  C   UNL     1       5.646   4.560  16.587  0.00  0.00    +0.000 A 
ATOM     21  H   UNL     1       8.323   4.683  14.823  0.00  0.00    +0.000 HD
ENDBRANCH  10  12
ENDBRANCH   5  10
BRANCH   1  22
ATOM     22  C   UNL     1       1.803   9.873  18.484  0.00  0.00    +0.000 C 
BRANCH  22  26
ATOM     23  C   UNL     1      -0.079  13.162  18.486  0.00  0.00    +0.000 C 
ATOM     24  C   UNL     1       1.069  12.223  18.702  0.00  0.00    +0.000 C 
ATOM     25  O   UNL     1       2.141  12.593  19.177  0.00  0.00    +0.000 OA
ATOM     26  N   UNL     1       0.813  10.924  18.330  0.00  0.00    +0.000 N 
ATOM     27  H   UNL     1      -0.081  10.677  17.918  0.00  0.00    +0.000 HD
ENDBRANCH  22  26
ENDBRANCH   1  22
TORSDOF 4
ENDMDL
