MODEL 1
REMARK VINA RESULT:      -6.8      0.000      0.000
REMARK  Name = 
REMARK  13 active torsions:
REMARK  status: ('A' for Active; 'I' for Inactive)
REMARK    1  A    between atoms: C_1  and  O_2
REMARK    2  A    between atoms: O_2  and  C_3
REMARK    3  A    between atoms: C_6  and  C_7
REMARK    4  A    between atoms: C_7  and  C_8
REMARK    5  A    between atoms: C_7  and  N_9
REMARK    6  A    between atoms: N_9  and  C_10
REMARK    7  A    between atoms: C_10  and  C_11
REMARK    8  A    between atoms: C_14  and  O_15
REMARK    9  A    between atoms: O_15  and  C_16
REMARK   10  A    between atoms: C_17  and  O_18
REMARK   11  A    between atoms: O_18  and  C_19
REMARK   12  A    between atoms: C_20  and  O_21
REMARK   13  A    between atoms: O_21  and  C_22
REMARK                            x       y       z     vdW  Elec       q    Type
REMARK                         _______ _______ _______ _____ _____    ______ ____
ROOT
ATOM      1  N   UNL     1       3.019   3.970  19.011  0.00  0.00    +0.000 NA
ATOM      2  H   UNL     1       2.731   4.408  18.104  0.00  0.00    +0.000 HD
ENDROOT
BRANCH   1   3
ATOM      3  C   UNL     1       2.907   4.934  20.121  0.00  0.00    +0.000 C 
ATOM      4  C   UNL     1       1.921   4.415  21.171  0.00  0.00    +0.000 C 
BRANCH   3   8
ATOM      5  C   UNL     1       1.727   8.850  18.655  0.00  0.00    +0.000 A 
ATOM      6  C   UNL     1       2.325   7.912  17.809  0.00  0.00    +0.000 A 
ATOM      7  C   UNL     1       2.705   6.657  18.286  0.00  0.00    +0.000 A 
ATOM      8  C   UNL     1       2.490   6.311  19.627  0.00  0.00    +0.000 A 
ATOM      9  C   UNL     1       1.882   7.245  20.484  0.00  0.00    +0.000 A 
ATOM     10  C   UNL     1       1.501   8.506  20.009  0.00  0.00    +0.000 A 
ATOM     11  F   UNL     1       0.921   9.368  20.880  0.00  0.00    +0.000 F 
BRANCH   5  13
ATOM     12  C   UNL     1       2.150  11.209  18.144  0.00  0.00    +0.000 C 
ATOM     13  O   UNL     1       1.399  10.055  18.117  0.00  0.00    +0.000 OA
ENDBRANCH   5  13
ENDBRANCH   3   8
ENDBRANCH   1   3
BRANCH   1  14
ATOM     14  C   UNL     1       4.374   3.416  18.897  0.00  0.00    +0.000 C 
BRANCH  14  15
ATOM     15  C   UNL     1       5.143   4.085  17.776  0.00  0.00    +0.000 A 
ATOM     16  C   UNL     1       4.821   3.659  16.476  0.00  0.00    +0.000 A 
ATOM     17  C   UNL     1       5.445   4.196  15.364  0.00  0.00    +0.000 A 
ATOM     18  C   UNL     1       6.421   5.177  15.492  0.00  0.00    +0.000 A 
ATOM     19  C   UNL     1       6.789   5.638  16.784  0.00  0.00    +0.000 A 
ATOM     20  C   UNL     1       6.145   5.099  17.944  0.00  0.00    +0.000 A 
BRANCH  18  21
ATOM     21  O   UNL     1       6.959   5.642  14.328  0.00  0.00    +0.000 OA
ATOM     22  C   UNL     1       7.388   4.921  13.234  0.00  0.00    +0.000 C 
ENDBRANCH  18  21
BRANCH  19  23
ATOM     23  O   UNL     1       7.760   6.593  16.858  0.00  0.00    +0.000 OA
ATOM     24  C   UNL     1       7.675   7.912  17.255  0.00  0.00    +0.000 C 
ENDBRANCH  19  23
BRANCH  20  25
ATOM     25  O   UNL     1       6.524   5.625  19.144  0.00  0.00    +0.000 OA
ATOM     26  C   UNL     1       7.669   5.536  19.901  0.00  0.00    +0.000 C 
ENDBRANCH  20  25
ENDBRANCH  14  15
ENDBRANCH   1  14
TORSDOF 8
ENDMDL
MODEL 2
REMARK VINA RESULT:      -6.8      1.038      1.128
REMARK  Name = 
REMARK  13 active torsions:
REMARK  status: ('A' for Active; 'I' for Inactive)
REMARK    1  A    between atoms: C_1  and  O_2
REMARK    2  A    between atoms: O_2  and  C_3
REMARK    3  A    between atoms: C_6  and  C_7
REMARK    4  A    between atoms: C_7  and  C_8
REMARK    5  A    between atoms: C_7  and  N_9
REMARK    6  A    between atoms: N_9  and  C_10
REMARK    7  A    between atoms: C_10  and  C_11
REMARK    8  A    between atoms: C_14  and  O_15
REMARK    9  A    between atoms: O_15  and  C_16
REMARK   10  A    between atoms: C_17  and  O_18
REMARK   11  A    between atoms: O_18  and  C_19
REMARK   12  A    between atoms: C_20  and  O_21
REMARK   13  A    between atoms: O_21  and  C_22
REMARK                            x       y       z     vdW  Elec       q    Type
REMARK                         _______ _______ _______ _____ _____    ______ ____
ROOT
ATOM      1  N   UNL     1       3.931   3.741  18.985  0.00  0.00    +0.000 NA
ATOM      2  H   UNL     1       4.332   3.141  19.743  0.00  0.00    +0.000 HD
ENDROOT
BRANCH   1   3
ATOM      3  C   UNL     1       2.512   4.047  19.248  0.00  0.00    +0.000 C 
ATOM      4  C   UNL     1       1.629   3.402  18.176  0.00  0.00    +0.000 C 
BRANCH   3   8
ATOM      5  C   UNL     1       1.816   8.333  19.387  0.00  0.00    +0.000 A 
ATOM      6  C   UNL     1       2.226   7.706  18.207  0.00  0.00    +0.000 A 
ATOM      7  C   UNL     1       2.452   6.329  18.169  0.00  0.00    +0.000 A 
ATOM      8  C   UNL     1       2.266   5.546  19.317  0.00  0.00    +0.000 A 
ATOM      9  C   UNL     1       1.845   6.167  20.506  0.00  0.00    +0.000 A 
ATOM     10  C   UNL     1       1.620   7.548  20.549  0.00  0.00    +0.000 A 
ATOM     11  F   UNL     1       1.218   8.094  21.723  0.00  0.00    +0.000 F 
BRANCH   5  13
ATOM     12  C   UNL     1       0.969  10.396  18.371  0.00  0.00    +0.000 C 
ATOM     13  O   UNL     1       1.630   9.679  19.345  0.00  0.00    +0.000 OA
ENDBRANCH   5  13
ENDBRANCH   3   8
ENDBRANCH   1   3
BRANCH   1  14
ATOM     14  C   UNL     1       4.122   3.101  17.677  0.00  0.00    +0.000 C 
BRANCH  14  15
ATOM     15  C   UNL     1       5.153   3.845  16.852  0.00  0.00    +0.000 A 
ATOM     16  C   UNL     1       5.248   3.461  15.505  0.00  0.00    +0.000 A 
ATOM     17  C   UNL     1       6.144   4.068  14.641  0.00  0.00    +0.000 A 
ATOM     18  C   UNL     1       6.990   5.080  15.081  0.00  0.00    +0.000 A 
ATOM     19  C   UNL     1       6.938   5.501  16.435  0.00  0.00    +0.000 A 
ATOM     20  C   UNL     1       6.009   4.889  17.338  0.00  0.00    +0.000 A 
BRANCH  18  21
ATOM     21  O   UNL     1       7.822   5.614  14.141  0.00  0.00    +0.000 OA
ATOM     22  C   UNL     1       7.961   5.256  12.816  0.00  0.00    +0.000 C 
ENDBRANCH  18  21
BRANCH  19  23
ATOM     23  O   UNL     1       7.795   6.490  16.821  0.00  0.00    +0.000 OA
ATOM     24  C   UNL     1       7.541   7.808  17.135  0.00  0.00    +0.000 C 
ENDBRANCH  19  23
BRANCH  20  25
ATOM     25  O   UNL     1       5.992   5.379  18.611  0.00  0.00    +0.000 OA
ATOM     26  C   UNL     1       6.922   5.428  19.623  0.00  0.00    +0.000 C 
ENDBRANCH  20  25
ENDBRANCH  14  15
ENDBRANCH   1  14
TORSDOF 8
ENDMDL
MODEL 3
REMARK VINA RESULT:      -6.7      1.145      1.510
REMARK  Name = 
REMARK  13 active torsions:
REMARK  status: ('A' for Active; 'I' for Inactive)
REMARK    1  A    between atoms: C_1  and  O_2
REMARK    2  A    between atoms: O_2  and  C_3
REMARK    3  A    between atoms: C_6  and  C_7
REMARK    4  A    between atoms: C_7  and  C_8
REMARK    5  A    between atoms: C_7  and  N_9
REMARK    6  A    between atoms: N_9  and  C_10
REMARK    7  A    between atoms: C_10  and  C_11
REMARK    8  A    between atoms: C_14  and  O_15
REMARK    9  A    between atoms: O_15  and  C_16
REMARK   10  A    between atoms: C_17  and  O_18
REMARK   11  A    between atoms: O_18  and  C_19
REMARK   12  A    between atoms: C_20  and  O_21
REMARK   13  A    between atoms: O_21  and  C_22
REMARK                            x       y       z     vdW  Elec       q    Type
REMARK                         _______ _______ _______ _____ _____    ______ ____
ROOT
ATOM      1  N   UNL     1       3.859   4.369  19.963  0.00  0.00    +0.000 NA
ATOM      2  H   UNL     1       4.197   4.001  20.883  0.00  0.00    +0.000 HD
ENDROOT
BRANCH   1   3
ATOM      3  C   UNL     1       2.418   4.678  20.016  0.00  0.00    +0.000 C 
ATOM      4  C   UNL     1       1.655   3.799  19.021  0.00  0.00    +0.000 C 
BRANCH   3   8
ATOM      5  C   UNL     1       1.643   8.893  19.302  0.00  0.00    +0.000 A 
ATOM      6  C   UNL     1       1.354   8.304  20.537  0.00  0.00    +0.000 A 
ATOM      7  C   UNL     1       1.603   6.949  20.760  0.00  0.00    +0.000 A 
ATOM      8  C   UNL     1       2.151   6.151  19.747  0.00  0.00    +0.000 A 
ATOM      9  C   UNL     1       2.451   6.736  18.504  0.00  0.00    +0.000 A 
ATOM     10  C   UNL     1       2.202   8.094  18.276  0.00  0.00    +0.000 A 
ATOM     11  F   UNL     1       2.509   8.605  17.058  0.00  0.00    +0.000 F 
BRANCH   5  13
ATOM     12  C   UNL     1       0.368  10.925  19.803  0.00  0.00    +0.000 C 
ATOM     13  O   UNL     1       1.359  10.215  19.161  0.00  0.00    +0.000 OA
ENDBRANCH   5  13
ENDBRANCH   3   8
ENDBRANCH   1   3
BRANCH   1  14
ATOM     14  C   UNL     1       4.179   3.419  18.889  0.00  0.00    +0.000 C 
BRANCH  14  15
ATOM     15  C   UNL     1       4.984   4.088  17.793  0.00  0.00    +0.000 A 
ATOM     16  C   UNL     1       4.667   3.703  16.481  0.00  0.00    +0.000 A 
ATOM     17  C   UNL     1       5.323   4.245  15.389  0.00  0.00    +0.000 A 
ATOM     18  C   UNL     1       6.329   5.189  15.554  0.00  0.00    +0.000 A 
ATOM     19  C   UNL     1       6.693   5.609  16.860  0.00  0.00    +0.000 A 
ATOM     20  C   UNL     1       6.016   5.065  17.999  0.00  0.00    +0.000 A 
BRANCH  18  21
ATOM     21  O   UNL     1       6.898   5.664  14.407  0.00  0.00    +0.000 OA
ATOM     22  C   UNL     1       7.342   4.952  13.313  0.00  0.00    +0.000 C 
ENDBRANCH  18  21
BRANCH  19  23
ATOM     23  O   UNL     1       7.694   6.530  16.970  0.00  0.00    +0.000 OA
ATOM     24  C   UNL     1       7.625   7.886  17.207  0.00  0.00    +0.000 C 
ENDBRANCH  19  23
BRANCH  20  25
ATOM     25  O   UNL     1       6.395   5.550  19.216  0.00  0.00    +0.000 OA
ATOM     26  C   UNL     1       7.557   5.475  19.949  0.00  0.00    +0.000 C 
ENDBRANCH  20  25
ENDBRANCH  14  15
ENDBRANCH   1  14
TORSDOF 8
ENDMDL
MODEL 4
REMARK VINA RESULT:      -6.6      3.631      5.194
REMARK  Name = 
REMARK  13 active torsions:
REMARK  status: ('A' for Active; 'I' for Inactive)
REMARK    1  A    between atoms: C_1  and  O_2
REMARK    2  A    between atoms: O_2  and  C_3
REMARK    3  A    between atoms: C_6  and  C_7
REMARK    4  A    between atoms: C_7  and  C_8
REMARK    5  A    between atoms: C_7  and  N_9
REMARK    6  A    between atoms: N_9  and  C_10
REMARK    7  A    between atoms: C_10  and  C_11
REMARK    8  A    between atoms: C_14  and  O_15
REMARK    9  A    between atoms: O_15  and  C_16
REMARK   10  A    between atoms: C_17  and  O_18
REMARK   11  A    between atoms: O_18  and  C_19
REMARK   12  A    between atoms: C_20  and  O_21
REMARK   13  A    between atoms: O_21  and  C_22
REMARK                            x       y       z     vdW  Elec       q    Type
REMARK                         _______ _______ _______ _____ _____    ______ ____
ROOT
ATOM      1  N   UNL     1       1.517   9.035  18.839  0.00  0.00    +0.000 NA
ATOM      2  H   UNL     1       2.369   9.471  18.412  0.00  0.00    +0.000 HD
ENDROOT
BRANCH   1   3
ATOM      3  C   UNL     1       0.730  10.037  19.583  0.00  0.00    +0.000 C 
ATOM      4  C   UNL     1       0.400   9.511  20.983  0.00  0.00    +0.000 C 
BRANCH   3   8
ATOM      5  C   UNL     1      -2.909  11.159  17.490  0.00  0.00    +0.000 A 
ATOM      6  C   UNL     1      -2.542  11.782  18.688  0.00  0.00    +0.000 A 
ATOM      7  C   UNL     1      -1.374  11.415  19.357  0.00  0.00    +0.000 A 
ATOM      8  C   UNL     1      -0.541  10.414  18.838  0.00  0.00    +0.000 A 
ATOM      9  C   UNL     1      -0.898   9.788  17.631  0.00  0.00    +0.000 A 
ATOM     10  C   UNL     1      -2.070  10.152  16.957  0.00  0.00    +0.000 A 
ATOM     11  F   UNL     1      -2.365   9.514  15.797  0.00  0.00    +0.000 F 
BRANCH   5  13
ATOM     12  C   UNL     1      -5.295  11.717  17.516  0.00  0.00    +0.000 C 
ATOM     13  O   UNL     1      -4.068  11.565  16.907  0.00  0.00    +0.000 OA
ENDBRANCH   5  13
ENDBRANCH   3   8
ENDBRANCH   1   3
BRANCH   1  14
ATOM     14  C   UNL     1       1.900   7.898  19.686  0.00  0.00    +0.000 C 
BRANCH  14  15
ATOM     15  C   UNL     1       2.640   6.847  18.883  0.00  0.00    +0.000 A 
ATOM     16  C   UNL     1       3.483   7.333  17.870  0.00  0.00    +0.000 A 
ATOM     17  C   UNL     1       4.221   6.477  17.071  0.00  0.00    +0.000 A 
ATOM     18  C   UNL     1       4.149   5.100  17.237  0.00  0.00    +0.000 A 
ATOM     19  C   UNL     1       3.307   4.556  18.243  0.00  0.00    +0.000 A 
ATOM     20  C   UNL     1       2.545   5.428  19.085  0.00  0.00    +0.000 A 
BRANCH  18  21
ATOM     21  O   UNL     1       4.929   4.354  16.401  0.00  0.00    +0.000 OA
ATOM     22  C   UNL     1       6.290   4.438  16.199  0.00  0.00    +0.000 C 
ENDBRANCH  18  21
BRANCH  19  23
ATOM     23  O   UNL     1       3.262   3.197  18.360  0.00  0.00    +0.000 OA
ATOM     24  C   UNL     1       2.433   2.283  17.745  0.00  0.00    +0.000 C 
ENDBRANCH  19  23
BRANCH  20  25
ATOM     25  O   UNL     1       1.794   4.830  20.053  0.00  0.00    +0.000 OA
ATOM     26  C   UNL     1       2.096   4.223  21.251  0.00  0.00    +0.000 C 
ENDBRANCH  20  25
ENDBRANCH  14  15
ENDBRANCH   1  14
TORSDOF 8
ENDMDL
MODEL 5
REMARK VINA RESULT:      -6.6      1.463      1.916
REMARK  Name = 
REMARK  13 active torsions:
REMARK  status: ('A' for Active; 'I' for Inactive)
REMARK    1  A    between atoms: C_1  and  O_2
REMARK    2  A    between atoms: O_2  and  C_3
REMARK    3  A    between atoms: C_6  and  C_7
REMARK    4  A    between atoms: C_7  and  C_8
REMARK    5  A    between atoms: C_7  and  N_9
REMARK    6  A    between atoms: N_9  and  C_10
REMARK    7  A    between atoms: C_10  and  C_11
REMARK    8  A    between atoms: C_14  and  O_15
REMARK    9  A    between atoms: O_15  and  C_16
REMARK   10  A    between atoms: C_17  and  O_18
REMARK   11  A    between atoms: O_18  and  C_19
REMARK   12  A    between atoms: C_20  and  O_21
REMARK   13  A    between atoms: O_21  and  C_22
REMARK                            x       y       z     vdW  Elec       q    Type
REMARK                         _______ _______ _______ _____ _____    ______ ____
ROOT
ATOM      1  N   UNL     1       3.083   3.364  17.567  0.00  0.00    +0.000 NA
ATOM      2  H   UNL     1       3.021   4.218  16.964  0.00  0.00    +0.000 HD
ENDROOT
BRANCH   1   3
ATOM      3  C   UNL     1       2.331   3.549  18.822  0.00  0.00    +0.000 C 
ATOM      4  C   UNL     1       0.966   2.862  18.724  0.00  0.00    +0.000 C 
BRANCH   3   8
ATOM      5  C   UNL     1       1.854   7.743  19.854  0.00  0.00    +0.000 A 
ATOM      6  C   UNL     1       1.562   6.734  20.778  0.00  0.00    +0.000 A 
ATOM      7  C   UNL     1       1.715   5.388  20.440  0.00  0.00    +0.000 A 
ATOM      8  C   UNL     1       2.167   5.022  19.164  0.00  0.00    +0.000 A 
ATOM      9  C   UNL     1       2.470   6.030  18.233  0.00  0.00    +0.000 A 
ATOM     10  C   UNL     1       2.317   7.381  18.567  0.00  0.00    +0.000 A 
ATOM     11  F   UNL     1       2.622   8.311  17.628  0.00  0.00    +0.000 F 
BRANCH   5  13
ATOM     12  C   UNL     1       0.557   9.547  20.887  0.00  0.00    +0.000 C 
ATOM     13  O   UNL     1       1.667   9.028  20.257  0.00  0.00    +0.000 OA
ENDBRANCH   5  13
ENDBRANCH   3   8
ENDBRANCH   1   3
BRANCH   1  14
ATOM     14  C   UNL     1       4.489   3.019  17.814  0.00  0.00    +0.000 C 
BRANCH  14  15
ATOM     15  C   UNL     1       5.409   3.796  16.895  0.00  0.00    +0.000 A 
ATOM     16  C   UNL     1       5.496   3.324  15.575  0.00  0.00    +0.000 A 
ATOM     17  C   UNL     1       6.295   3.949  14.634  0.00  0.00    +0.000 A 
ATOM     18  C   UNL     1       7.049   5.069  14.964  0.00  0.00    +0.000 A 
ATOM     19  C   UNL     1       7.003   5.584  16.286  0.00  0.00    +0.000 A 
ATOM     20  C   UNL     1       6.173   4.953  17.268  0.00  0.00    +0.000 A 
BRANCH  18  21
ATOM     21  O   UNL     1       7.790   5.610  13.953  0.00  0.00    +0.000 OA
ATOM     22  C   UNL     1       7.820   5.247  12.624  0.00  0.00    +0.000 C 
ENDBRANCH  18  21
BRANCH  19  23
ATOM     23  O   UNL     1       7.769   6.678  16.563  0.00  0.00    +0.000 OA
ATOM     24  C   UNL     1       7.443   7.840  17.230  0.00  0.00    +0.000 C 
ENDBRANCH  19  23
BRANCH  20  25
ATOM     25  O   UNL     1       6.151   5.533  18.503  0.00  0.00    +0.000 OA
ATOM     26  C   UNL     1       6.898   5.365  19.645  0.00  0.00    +0.000 C 
ENDBRANCH  20  25
ENDBRANCH  14  15
ENDBRANCH   1  14
TORSDOF 8
ENDMDL
MODEL 6
REMARK VINA RESULT:      -6.5      2.687      7.179
REMARK  Name = 
REMARK  13 active torsions:
REMARK  status: ('A' for Active; 'I' for Inactive)
REMARK    1  A    between atoms: C_1  and  O_2
REMARK    2  A    between atoms: O_2  and  C_3
REMARK    3  A    between atoms: C_6  and  C_7
REMARK    4  A    between atoms: C_7  and  C_8
REMARK    5  A    between atoms: C_7  and  N_9
REMARK    6  A    between atoms: N_9  and  C_10
REMARK    7  A    between atoms: C_10  and  C_11
REMARK    8  A    between atoms: C_14  and  O_15
REMARK    9  A    between atoms: O_15  and  C_16
REMARK   10  A    between atoms: C_17  and  O_18
REMARK   11  A    between atoms: O_18  and  C_19
REMARK   12  A    between atoms: C_20  and  O_21
REMARK   13  A    between atoms: O_21  and  C_22
REMARK                            x       y       z     vdW  Elec       q    Type
REMARK                         _______ _______ _______ _____ _____    ______ ____
ROOT
ATOM      1  N   UNL     1       2.087   6.860  20.813  0.00  0.00    +0.000 NA
ATOM      2  H   UNL     1       2.790   7.420  20.276  0.00  0.00    +0.000 HD
ENDROOT
BRANCH   1   3
ATOM      3  C   UNL     1       1.889   5.534  20.199  0.00  0.00    +0.000 C 
ATOM      4  C   UNL     1       2.146   4.433  21.233  0.00  0.00    +0.000 C 
BRANCH   3   8
ATOM      5  C   UNL     1       4.401   4.940  16.704  0.00  0.00    +0.000 A 
ATOM      6  C   UNL     1       3.576   3.917  17.184  0.00  0.00    +0.000 A 
ATOM      7  C   UNL     1       2.773   4.113  18.308  0.00  0.00    +0.000 A 
ATOM      8  C   UNL     1       2.777   5.344  18.979  0.00  0.00    +0.000 A 
ATOM      9  C   UNL     1       3.597   6.380  18.500  0.00  0.00    +0.000 A 
ATOM     10  C   UNL     1       4.405   6.187  17.373  0.00  0.00    +0.000 A 
ATOM     11  F   UNL     1       5.178   7.220  16.956  0.00  0.00    +0.000 F 
BRANCH   5  13
ATOM     12  C   UNL     1       6.216   3.782  15.534  0.00  0.00    +0.000 C 
ATOM     13  O   UNL     1       5.162   4.665  15.611  0.00  0.00    +0.000 OA
ENDBRANCH   5  13
ENDBRANCH   3   8
ENDBRANCH   1   3
BRANCH   1  14
ATOM     14  C   UNL     1       0.827   7.607  20.927  0.00  0.00    +0.000 C 
BRANCH  14  15
ATOM     15  C   UNL     1       0.990   9.029  20.431  0.00  0.00    +0.000 A 
ATOM     16  C   UNL     1       1.301   9.168  19.068  0.00  0.00    +0.000 A 
ATOM     17  C   UNL     1       1.468  10.413  18.488  0.00  0.00    +0.000 A 
ATOM     18  C   UNL     1       1.340  11.577  19.237  0.00  0.00    +0.000 A 
ATOM     19  C   UNL     1       1.032  11.492  20.620  0.00  0.00    +0.000 A 
ATOM     20  C   UNL     1       0.847  10.211  21.233  0.00  0.00    +0.000 A 
BRANCH  18  21
ATOM     21  O   UNL     1       1.513  12.748  18.558  0.00  0.00    +0.000 OA
ATOM     22  C   UNL     1       2.687  13.426  18.306  0.00  0.00    +0.000 C 
ENDBRANCH  18  21
BRANCH  19  23
ATOM     23  O   UNL     1       0.928  12.661  21.315  0.00  0.00    +0.000 OA
ATOM     24  C   UNL     1      -0.161  13.488  21.496  0.00  0.00    +0.000 C 
ENDBRANCH  19  23
BRANCH  20  25
ATOM     25  O   UNL     1       0.512  10.216  22.555  0.00  0.00    +0.000 OA
ATOM     26  C   UNL     1      -0.684  10.172  23.233  0.00  0.00    +0.000 C 
ENDBRANCH  20  25
ENDBRANCH  14  15
ENDBRANCH   1  14
TORSDOF 8
ENDMDL
MODEL 7
REMARK VINA RESULT:      -6.5      2.979      7.960
REMARK  Name = 
REMARK  13 active torsions:
REMARK  status: ('A' for Active; 'I' for Inactive)
REMARK    1  A    between atoms: C_1  and  O_2
REMARK    2  A    between atoms: O_2  and  C_3
REMARK    3  A    between atoms: C_6  and  C_7
REMARK    4  A    between atoms: C_7  and  C_8
REMARK    5  A    between atoms: C_7  and  N_9
REMARK    6  A    between atoms: N_9  and  C_10
REMARK    7  A    between atoms: C_10  and  C_11
REMARK    8  A    between atoms: C_14  and  O_15
REMARK    9  A    between atoms: O_15  and  C_16
REMARK   10  A    between atoms: C_17  and  O_18
REMARK   11  A    between atoms: O_18  and  C_19
REMARK   12  A    between atoms: C_20  and  O_21
REMARK   13  A    between atoms: O_21  and  C_22
REMARK                            x       y       z     vdW  Elec       q    Type
REMARK                         _______ _______ _______ _____ _____    ______ ____
ROOT
ATOM      1  N   UNL     1       2.105   7.456  20.558  0.00  0.00    +0.000 NA
ATOM      2  H   UNL     1       2.200   8.250  19.882  0.00  0.00    +0.000 HD
ENDROOT
BRANCH   1   3
ATOM      3  C   UNL     1       2.152   6.158  19.858  0.00  0.00    +0.000 C 
ATOM      4  C   UNL     1       2.076   5.012  20.871  0.00  0.00    +0.000 C 
BRANCH   3   8
ATOM      5  C   UNL     1       5.733   5.758  17.430  0.00  0.00    +0.000 A 
ATOM      6  C   UNL     1       5.623   5.115  18.668  0.00  0.00    +0.000 A 
ATOM      7  C   UNL     1       4.471   5.250  19.444  0.00  0.00    +0.000 A 
ATOM      8  C   UNL     1       3.398   6.032  18.995  0.00  0.00    +0.000 A 
ATOM      9  C   UNL     1       3.497   6.675  17.749  0.00  0.00    +0.000 A 
ATOM     10  C   UNL     1       4.651   6.544  16.968  0.00  0.00    +0.000 A 
ATOM     11  F   UNL     1       4.692   7.188  15.775  0.00  0.00    +0.000 F 
BRANCH   5  13
ATOM     12  C   UNL     1       7.136   4.670  15.741  0.00  0.00    +0.000 C 
ATOM     13  O   UNL     1       6.892   5.587  16.741  0.00  0.00    +0.000 OA
ENDBRANCH   5  13
ENDBRANCH   3   8
ENDBRANCH   1   3
BRANCH   1  14
ATOM     14  C   UNL     1       0.878   7.610  21.350  0.00  0.00    +0.000 C 
BRANCH  14  15
ATOM     15  C   UNL     1       0.440   9.060  21.399  0.00  0.00    +0.000 A 
ATOM     16  C   UNL     1      -0.221   9.458  22.573  0.00  0.00    +0.000 A 
ATOM     17  C   UNL     1      -0.665  10.757  22.748  0.00  0.00    +0.000 A 
ATOM     18  C   UNL     1      -0.476  11.718  21.761  0.00  0.00    +0.000 A 
ATOM     19  C   UNL     1       0.181  11.366  20.553  0.00  0.00    +0.000 A 
ATOM     20  C   UNL     1       0.655  10.028  20.362  0.00  0.00    +0.000 A 
BRANCH  18  21
ATOM     21  O   UNL     1      -0.943  12.968  22.047  0.00  0.00    +0.000 OA
ATOM     22  C   UNL     1      -0.225  14.089  22.407  0.00  0.00    +0.000 C 
ENDBRANCH  18  21
BRANCH  19  23
ATOM     23  O   UNL     1       0.333  12.342  19.611  0.00  0.00    +0.000 OA
ATOM     24  C   UNL     1      -0.547  12.781  18.644  0.00  0.00    +0.000 C 
ENDBRANCH  19  23
BRANCH  20  25
ATOM     25  O   UNL     1       1.313   9.782  19.193  0.00  0.00    +0.000 OA
ATOM     26  C   UNL     1       0.903   9.436  17.926  0.00  0.00    +0.000 C 
ENDBRANCH  20  25
ENDBRANCH  14  15
ENDBRANCH   1  14
TORSDOF 8
ENDMDL
MODEL 8
REMARK VINA RESULT:      -6.5      3.504      5.007
REMARK  Name = 
REMARK  13 active torsions:
REMARK  status: ('A' for Active; 'I' for Inactive)
REMARK    1  A    between atoms: C_1  and  O_2
REMARK    2  A    between atoms: O_2  and  C_3
REMARK    3  A    between atoms: C_6  and  C_7
REMARK    4  A    between atoms: C_7  and  C_8
REMARK    5  A    between atoms: C_7  and  N_9
REMARK    6  A    between atoms: N_9  and  C_10
REMARK    7  A    between atoms: C_10  and  C_11
REMARK    8  A    between atoms: C_14  and  O_15
REMARK    9  A    between atoms: O_15  and  C_16
REMARK   10  A    between atoms: C_17  and  O_18
REMARK   11  A    between atoms: O_18  and  C_19
REMARK   12  A    between atoms: C_20  and  O_21
REMARK   13  A    between atoms: O_21  and  C_22
REMARK                            x       y       z     vdW  Elec       q    Type
REMARK                         _______ _______ _______ _____ _____    ______ ____
ROOT
ATOM      1  N   UNL     1       1.500   8.743  17.794  0.00  0.00    +0.000 NA
ATOM      2  H   UNL     1       1.287   9.039  16.813  0.00  0.00    +0.000 HD
ENDROOT
BRANCH   1   3
ATOM      3  C   UNL     1       1.036   9.755  18.763  0.00  0.00    +0.000 C 
ATOM      4  C   UNL     1       1.078   9.182  20.182  0.00  0.00    +0.000 C 
BRANCH   3   8
ATOM      5  C   UNL     1      -2.947  11.223  17.836  0.00  0.00    +0.000 A 
ATOM      6  C   UNL     1      -2.185  11.796  18.859  0.00  0.00    +0.000 A 
ATOM      7  C   UNL     1      -0.908  11.319  19.154  0.00  0.00    +0.000 A 
ATOM      8  C   UNL     1      -0.361  10.253  18.426  0.00  0.00    +0.000 A 
ATOM      9  C   UNL     1      -1.116   9.676  17.390  0.00  0.00    +0.000 A 
ATOM     10  C   UNL     1      -2.398  10.151  17.092  0.00  0.00    +0.000 A 
ATOM     11  F   UNL     1      -3.083   9.555  16.084  0.00  0.00    +0.000 F 
BRANCH   5  13
ATOM     12  C   UNL     1      -5.395  11.130  17.884  0.00  0.00    +0.000 C 
ATOM     13  O   UNL     1      -4.187  11.737  17.619  0.00  0.00    +0.000 OA
ENDBRANCH   5  13
ENDBRANCH   3   8
ENDBRANCH   1   3
BRANCH   1  14
ATOM     14  C   UNL     1       2.934   8.461  17.939  0.00  0.00    +0.000 C 
BRANCH  14  15
ATOM     15  C   UNL     1       3.208   6.974  17.845  0.00  0.00    +0.000 A 
ATOM     16  C   UNL     1       2.171   6.133  18.283  0.00  0.00    +0.000 A 
ATOM     17  C   UNL     1       2.291   4.755  18.243  0.00  0.00    +0.000 A 
ATOM     18  C   UNL     1       3.450   4.150  17.771  0.00  0.00    +0.000 A 
ATOM     19  C   UNL     1       4.531   4.953  17.323  0.00  0.00    +0.000 A 
ATOM     20  C   UNL     1       4.418   6.381  17.349  0.00  0.00    +0.000 A 
BRANCH  18  21
ATOM     21  O   UNL     1       3.453   2.785  17.766  0.00  0.00    +0.000 OA
ATOM     22  C   UNL     1       2.390   1.926  17.948  0.00  0.00    +0.000 C 
ENDBRANCH  18  21
BRANCH  19  23
ATOM     23  O   UNL     1       5.651   4.313  16.879  0.00  0.00    +0.000 OA
ATOM     24  C   UNL     1       5.975   3.872  15.613  0.00  0.00    +0.000 C 
ENDBRANCH  19  23
BRANCH  20  25
ATOM     25  O   UNL     1       5.482   7.081  16.861  0.00  0.00    +0.000 OA
ATOM     26  C   UNL     1       6.723   7.396  17.365  0.00  0.00    +0.000 C 
ENDBRANCH  20  25
ENDBRANCH  14  15
ENDBRANCH   1  14
TORSDOF 8
ENDMDL
MODEL 9
REMARK VINA RESULT:      -6.4      3.817      6.039
REMARK  Name = 
REMARK  13 active torsions:
REMARK  status: ('A' for Active; 'I' for Inactive)
REMARK    1  A    between atoms: C_1  and  O_2
REMARK    2  A    between atoms: O_2  and  C_3
REMARK    3  A    between atoms: C_6  and  C_7
REMARK    4  A    between atoms: C_7  and  C_8
REMARK    5  A    between atoms: C_7  and  N_9
REMARK    6  A    between atoms: N_9  and  C_10
REMARK    7  A    between atoms: C_10  and  C_11
REMARK    8  A    between atoms: C_14  and  O_15
REMARK    9  A    between atoms: O_15  and  C_16
REMARK   10  A    between atoms: C_17  and  O_18
REMARK   11  A    between atoms: O_18  and  C_19
REMARK   12  A    between atoms: C_20  and  O_21
REMARK   13  A    between atoms: O_21  and  C_22
REMARK                            x       y       z     vdW  Elec       q    Type
REMARK                         _______ _______ _______ _____ _____    ______ ____
ROOT
ATOM      1  N   UNL     1       0.975   8.877  17.964  0.00  0.00    +0.000 NA
ATOM      2  H   UNL     1       0.747   8.808  16.945  0.00  0.00    +0.000 HD
ENDROOT
BRANCH   1   3
ATOM      3  C   UNL     1       0.624  10.208  18.494  0.00  0.00    +0.000 C 
ATOM      4  C   UNL     1       0.936  10.276  19.992  0.00  0.00    +0.000 C 
BRANCH   3   8
ATOM      5  C   UNL     1      -3.542  11.219  17.787  0.00  0.00    +0.000 A 
ATOM      6  C   UNL     1      -2.807  11.849  18.796  0.00  0.00    +0.000 A 
ATOM      7  C   UNL     1      -1.470  11.518  19.021  0.00  0.00    +0.000 A 
ATOM      8  C   UNL     1      -0.836  10.546  18.234  0.00  0.00    +0.000 A 
ATOM      9  C   UNL     1      -1.565   9.913  17.213  0.00  0.00    +0.000 A 
ATOM     10  C   UNL     1      -2.907  10.241  16.985  0.00  0.00    +0.000 A 
ATOM     11  F   UNL     1      -3.562   9.597  15.988  0.00  0.00    +0.000 F 
BRANCH   5  13
ATOM     12  C   UNL     1      -5.948  10.959  18.169  0.00  0.00    +0.000 C 
ATOM     13  O   UNL     1      -4.842  11.588  17.641  0.00  0.00    +0.000 OA
ENDBRANCH   5  13
ENDBRANCH   3   8
ENDBRANCH   1   3
BRANCH   1  14
ATOM     14  C   UNL     1       2.390   8.552  18.190  0.00  0.00    +0.000 C 
BRANCH  14  15
ATOM     15  C   UNL     1       2.539   7.181  18.819  0.00  0.00    +0.000 A 
ATOM     16  C   UNL     1       1.841   6.982  20.021  0.00  0.00    +0.000 A 
ATOM     17  C   UNL     1       1.887   5.773  20.693  0.00  0.00    +0.000 A 
ATOM     18  C   UNL     1       2.634   4.709  20.203  0.00  0.00    +0.000 A 
ATOM     19  C   UNL     1       3.364   4.859  18.995  0.00  0.00    +0.000 A 
ATOM     20  C   UNL     1       3.319   6.101  18.283  0.00  0.00    +0.000 A 
BRANCH  18  21
ATOM     21  O   UNL     1       2.596   3.561  20.941  0.00  0.00    +0.000 OA
ATOM     22  C   UNL     1       1.604   2.605  20.987  0.00  0.00    +0.000 C 
ENDBRANCH  18  21
BRANCH  19  23
ATOM     23  O   UNL     1       4.092   3.789  18.561  0.00  0.00    +0.000 OA
ATOM     24  C   UNL     1       3.717   2.733  17.758  0.00  0.00    +0.000 C 
ENDBRANCH  19  23
BRANCH  20  25
ATOM     25  O   UNL     1       4.013   6.151  17.110  0.00  0.00    +0.000 OA
ATOM     26  C   UNL     1       5.257   6.623  16.761  0.00  0.00    +0.000 C 
ENDBRANCH  20  25
ENDBRANCH  14  15
ENDBRANCH   1  14
TORSDOF 8
ENDMDL
