MODEL 1
REMARK VINA RESULT:      -8.0      0.000      0.000
REMARK  Name = 
REMARK  6 active torsions:
REMARK  status: ('A' for Active; 'I' for Inactive)
REMARK    1  A    between atoms: C_1  and  N_2
REMARK    2  A    between atoms: N_5  and  C_6
REMARK    3  A    between atoms: N_5  and  C_7
REMARK    4  A    between atoms: C_7  and  C_8
REMARK    5  A    between atoms: C_8  and  N_9
REMARK    6  A    between atoms: N_9  and  C_10
REMARK                            x       y       z     vdW  Elec       q    Type
REMARK                         _______ _______ _______ _____ _____    ______ ____
ROOT
ATOM      1  C   UNL     1       3.177   5.893  18.335  0.00  0.00    +0.000 A 
ATOM      2  C   UNL     1       2.572   4.768  19.048  0.00  0.00    +0.000 A 
ATOM      3  C   UNL     1       1.640   4.842  20.134  0.00  0.00    +0.000 A 
ATOM      4  C   UNL     1       1.132   3.711  20.763  0.00  0.00    +0.000 A 
ATOM      5  C   UNL     1       1.518   2.450  20.356  0.00  0.00    +0.000 A 
ATOM      6  C   UNL     1       2.412   2.316  19.302  0.00  0.00    +0.000 A 
ATOM      7  C   UNL     1       2.928   3.444  18.653  0.00  0.00    +0.000 A 
ATOM      8  N   UNL     1       3.787   3.233  17.638  0.00  0.00    +0.000 NA
ATOM      9  C   UNL     1       4.366   4.230  16.946  0.00  0.00    +0.000 A 
ATOM     10  C   UNL     1       5.242   3.877  15.909  0.00  0.00    +0.000 A 
ATOM     11  C   UNL     1       5.885   4.859  15.168  0.00  0.00    +0.000 A 
ATOM     12  C   UNL     1       5.655   6.198  15.454  0.00  0.00    +0.000 A 
ATOM     13  C   UNL     1       4.777   6.567  16.481  0.00  0.00    +0.000 A 
ATOM     14  C   UNL     1       4.097   5.585  17.262  0.00  0.00    +0.000 A 
ENDROOT
BRANCH   1  15
ATOM     15  N   UNL     1       2.908   7.289  18.645  0.00  0.00    +0.000 N 
ATOM     16  H   UNL     1       3.515   7.803  19.291  0.00  0.00    +0.000 HD
BRANCH  15  17
ATOM     17  C   UNL     1       1.809   8.066  18.112  0.00  0.00    +0.000 C 
BRANCH  17  18
ATOM     18  C   UNL     1       2.140   9.520  17.791  0.00  0.00    +0.000 C 
BRANCH  18  23
ATOM     19  C   UNL     1       1.382  14.283  19.258  0.00  0.00    +0.000 C 
ATOM     20  N   UNL     1       1.122  12.868  19.388  0.00  0.00    +0.000 N 
ATOM     21  C   UNL     1       1.731  11.887  18.532  0.00  0.00    +0.000 C 
ATOM     22  N   UNL     1       2.545  12.270  17.605  0.00  0.00    +0.000 NA
ATOM     23  N   UNL     1       1.459  10.473  18.673  0.00  0.00    +0.000 N 
ATOM     24  C   UNL     1       0.588   9.917  19.711  0.00  0.00    +0.000 C 
ATOM     25  H   UNL     1       0.467  12.609  20.132  0.00  0.00    +0.000 HD
ATOM     26  H   UNL     1       2.804  13.248  17.426  0.00  0.00    +0.000 HD
ENDBRANCH  18  23
ENDBRANCH  17  18
ENDBRANCH  15  17
ENDBRANCH   1  15
TORSDOF 4
ENDMDL
MODEL 2
REMARK VINA RESULT:      -8.0      0.094      3.806
REMARK  Name = 
REMARK  6 active torsions:
REMARK  status: ('A' for Active; 'I' for Inactive)
REMARK    1  A    between atoms: C_1  and  N_2
REMARK    2  A    between atoms: N_5  and  C_6
REMARK    3  A    between atoms: N_5  and  C_7
REMARK    4  A    between atoms: C_7  and  C_8
REMARK    5  A    between atoms: C_8  and  N_9
REMARK    6  A    between atoms: N_9  and  C_10
REMARK                            x       y       z     vdW  Elec       q    Type
REMARK                         _______ _______ _______ _____ _____    ______ ____
ROOT
ATOM      1  C   UNL     1       3.144   5.920  18.396  0.00  0.00    +0.000 A 
ATOM      2  C   UNL     1       4.069   5.633  17.300  0.00  0.00    +0.000 A 
ATOM      3  C   UNL     1       4.730   6.589  16.463  0.00  0.00    +0.000 A 
ATOM      4  C   UNL     1       5.583   6.217  15.429  0.00  0.00    +0.000 A 
ATOM      5  C   UNL     1       5.824   4.884  15.166  0.00  0.00    +0.000 A 
ATOM      6  C   UNL     1       5.218   3.912  15.951  0.00  0.00    +0.000 A 
ATOM      7  C   UNL     1       4.363   4.268  17.000  0.00  0.00    +0.000 A 
ATOM      8  N   UNL     1       3.816   3.270  17.717  0.00  0.00    +0.000 NA
ATOM      9  C   UNL     1       2.966   3.478  18.738  0.00  0.00    +0.000 A 
ATOM     10  C   UNL     1       2.467   2.351  19.407  0.00  0.00    +0.000 A 
ATOM     11  C   UNL     1       1.571   2.498  20.458  0.00  0.00    +0.000 A 
ATOM     12  C   UNL     1       1.172   3.768  20.850  0.00  0.00    +0.000 A 
ATOM     13  C   UNL     1       1.667   4.904  20.196  0.00  0.00    +0.000 A 
ATOM     14  C   UNL     1       2.590   4.792  19.114  0.00  0.00    +0.000 A 
ENDROOT
BRANCH   1  15
ATOM     15  N   UNL     1       2.752   7.262  18.796  0.00  0.00    +0.000 N 
ATOM     16  H   UNL     1       3.190   7.710  19.608  0.00  0.00    +0.000 HD
BRANCH  15  17
ATOM     17  C   UNL     1       1.751   8.072  18.136  0.00  0.00    +0.000 C 
BRANCH  17  18
ATOM     18  C   UNL     1       2.166   9.512  17.852  0.00  0.00    +0.000 C 
BRANCH  18  23
ATOM     19  C   UNL     1       1.360  14.315  19.152  0.00  0.00    +0.000 C 
ATOM     20  N   UNL     1       1.082  12.905  19.303  0.00  0.00    +0.000 N 
ATOM     21  C   UNL     1       1.732  11.900  18.508  0.00  0.00    +0.000 C 
ATOM     22  N   UNL     1       2.600  12.254  17.620  0.00  0.00    +0.000 NA
ATOM     23  N   UNL     1       1.443  10.491  18.670  0.00  0.00    +0.000 N 
ATOM     24  C   UNL     1       0.510   9.967  19.670  0.00  0.00    +0.000 C 
ATOM     25  H   UNL     1       0.385  12.670  20.014  0.00  0.00    +0.000 HD
ATOM     26  H   UNL     1       2.876  13.226  17.431  0.00  0.00    +0.000 HD
ENDBRANCH  18  23
ENDBRANCH  17  18
ENDBRANCH  15  17
ENDBRANCH   1  15
TORSDOF 4
ENDMDL
MODEL 3
REMARK VINA RESULT:      -8.0      1.473      4.335
REMARK  Name = 
REMARK  6 active torsions:
REMARK  status: ('A' for Active; 'I' for Inactive)
REMARK    1  A    between atoms: C_1  and  N_2
REMARK    2  A    between atoms: N_5  and  C_6
REMARK    3  A    between atoms: N_5  and  C_7
REMARK    4  A    between atoms: C_7  and  C_8
REMARK    5  A    between atoms: C_8  and  N_9
REMARK    6  A    between atoms: N_9  and  C_10
REMARK                            x       y       z     vdW  Elec       q    Type
REMARK                         _______ _______ _______ _____ _____    ______ ____
ROOT
ATOM      1  C   UNL     1       3.184   5.788  18.289  0.00  0.00    +0.000 A 
ATOM      2  C   UNL     1       4.140   5.479  17.225  0.00  0.00    +0.000 A 
ATOM      3  C   UNL     1       4.847   6.420  16.408  0.00  0.00    +0.000 A 
ATOM      4  C   UNL     1       5.726   6.028  15.404  0.00  0.00    +0.000 A 
ATOM      5  C   UNL     1       5.950   4.689  15.153  0.00  0.00    +0.000 A 
ATOM      6  C   UNL     1       5.299   3.732  15.920  0.00  0.00    +0.000 A 
ATOM      7  C   UNL     1       4.416   4.109  16.939  0.00  0.00    +0.000 A 
ATOM      8  N   UNL     1       3.826   3.123  17.640  0.00  0.00    +0.000 NA
ATOM      9  C   UNL     1       2.946   3.352  18.631  0.00  0.00    +0.000 A 
ATOM     10  C   UNL     1       2.403   2.237  19.287  0.00  0.00    +0.000 A 
ATOM     11  C   UNL     1       1.476   2.406  20.306  0.00  0.00    +0.000 A 
ATOM     12  C   UNL     1       1.089   3.685  20.681  0.00  0.00    +0.000 A 
ATOM     13  C   UNL     1       1.628   4.808  20.041  0.00  0.00    +0.000 A 
ATOM     14  C   UNL     1       2.584   4.674  18.990  0.00  0.00    +0.000 A 
ENDROOT
BRANCH   1  15
ATOM     15  N   UNL     1       2.806   7.140  18.672  0.00  0.00    +0.000 N 
ATOM     16  H   UNL     1       3.143   7.543  19.551  0.00  0.00    +0.000 HD
BRANCH  15  17
ATOM     17  C   UNL     1       1.953   8.018  17.901  0.00  0.00    +0.000 C 
BRANCH  17  18
ATOM     18  C   UNL     1       1.911   9.466  18.380  0.00  0.00    +0.000 C 
BRANCH  18  23
ATOM     19  C   UNL     1      -0.464   9.252  22.822  0.00  0.00    +0.000 C 
ATOM     20  N   UNL     1      -0.433   9.626  21.426  0.00  0.00    +0.000 N 
ATOM     21  C   UNL     1       0.710   9.388  20.588  0.00  0.00    +0.000 C 
ATOM     22  N   UNL     1       1.757   8.819  21.085  0.00  0.00    +0.000 NA
ATOM     23  N   UNL     1       0.727   9.769  19.191  0.00  0.00    +0.000 N 
ATOM     24  C   UNL     1      -0.413  10.382  18.506  0.00  0.00    +0.000 C 
ATOM     25  H   UNL     1      -1.281  10.078  21.074  0.00  0.00    +0.000 HD
ATOM     26  H   UNL     1       1.843   8.510  22.062  0.00  0.00    +0.000 HD
ENDBRANCH  18  23
ENDBRANCH  17  18
ENDBRANCH  15  17
ENDBRANCH   1  15
TORSDOF 4
ENDMDL
MODEL 4
REMARK VINA RESULT:      -7.9      1.926      4.427
REMARK  Name = 
REMARK  6 active torsions:
REMARK  status: ('A' for Active; 'I' for Inactive)
REMARK    1  A    between atoms: C_1  and  N_2
REMARK    2  A    between atoms: N_5  and  C_6
REMARK    3  A    between atoms: N_5  and  C_7
REMARK    4  A    between atoms: C_7  and  C_8
REMARK    5  A    between atoms: C_8  and  N_9
REMARK    6  A    between atoms: N_9  and  C_10
REMARK                            x       y       z     vdW  Elec       q    Type
REMARK                         _______ _______ _______ _____ _____    ______ ____
ROOT
ATOM      1  C   UNL     1       3.106   5.677  18.960  0.00  0.00    +0.000 A 
ATOM      2  C   UNL     1       4.056   5.685  17.848  0.00  0.00    +0.000 A 
ATOM      3  C   UNL     1       4.937   6.753  17.480  0.00  0.00    +0.000 A 
ATOM      4  C   UNL     1       5.796   6.674  16.389  0.00  0.00    +0.000 A 
ATOM      5  C   UNL     1       5.828   5.539  15.605  0.00  0.00    +0.000 A 
ATOM      6  C   UNL     1       5.004   4.467  15.919  0.00  0.00    +0.000 A 
ATOM      7  C   UNL     1       4.138   4.527  17.017  0.00  0.00    +0.000 A 
ATOM      8  N   UNL     1       3.372   3.447  17.259  0.00  0.00    +0.000 NA
ATOM      9  C   UNL     1       2.488   3.385  18.271  0.00  0.00    +0.000 A 
ATOM     10  C   UNL     1       1.752   2.200  18.417  0.00  0.00    +0.000 A 
ATOM     11  C   UNL     1       0.811   2.079  19.431  0.00  0.00    +0.000 A 
ATOM     12  C   UNL     1       0.602   3.136  20.306  0.00  0.00    +0.000 A 
ATOM     13  C   UNL     1       1.335   4.323  20.178  0.00  0.00    +0.000 A 
ATOM     14  C   UNL     1       2.311   4.483  19.150  0.00  0.00    +0.000 A 
ENDROOT
BRANCH   1  15
ATOM     15  N   UNL     1       2.916   6.794  19.873  0.00  0.00    +0.000 N 
ATOM     16  H   UNL     1       3.505   6.887  20.706  0.00  0.00    +0.000 HD
BRANCH  15  17
ATOM     17  C   UNL     1       1.927   7.838  19.720  0.00  0.00    +0.000 C 
BRANCH  17  18
ATOM     18  C   UNL     1       1.366   8.395  21.025  0.00  0.00    +0.000 C 
BRANCH  18  23
ATOM     19  C   UNL     1      -1.303  12.179  23.018  0.00  0.00    +0.000 C 
ATOM     20  N   UNL     1      -0.787  11.469  21.870  0.00  0.00    +0.000 N 
ATOM     21  C   UNL     1       0.043  10.302  21.992  0.00  0.00    +0.000 C 
ATOM     22  N   UNL     1       0.350   9.859  23.165  0.00  0.00    +0.000 NA
ATOM     23  N   UNL     1       0.554   9.601  20.833  0.00  0.00    +0.000 N 
ATOM     24  C   UNL     1       0.241   9.984  19.454  0.00  0.00    +0.000 C 
ATOM     25  H   UNL     1      -1.049  11.856  20.960  0.00  0.00    +0.000 HD
ATOM     26  H   UNL     1       0.036  10.283  24.048  0.00  0.00    +0.000 HD
ENDBRANCH  18  23
ENDBRANCH  17  18
ENDBRANCH  15  17
ENDBRANCH   1  15
TORSDOF 4
ENDMDL
MODEL 5
REMARK VINA RESULT:      -7.9      1.280      1.301
REMARK  Name = 
REMARK  6 active torsions:
REMARK  status: ('A' for Active; 'I' for Inactive)
REMARK    1  A    between atoms: C_1  and  N_2
REMARK    2  A    between atoms: N_5  and  C_6
REMARK    3  A    between atoms: N_5  and  C_7
REMARK    4  A    between atoms: C_7  and  C_8
REMARK    5  A    between atoms: C_8  and  N_9
REMARK    6  A    between atoms: N_9  and  C_10
REMARK                            x       y       z     vdW  Elec       q    Type
REMARK                         _______ _______ _______ _____ _____    ______ ____
ROOT
ATOM      1  C   UNL     1       3.250   5.851  18.515  0.00  0.00    +0.000 A 
ATOM      2  C   UNL     1       2.765   4.761  19.361  0.00  0.00    +0.000 A 
ATOM      3  C   UNL     1       1.434   4.592  19.864  0.00  0.00    +0.000 A 
ATOM      4  C   UNL     1       1.072   3.527  20.682  0.00  0.00    +0.000 A 
ATOM      5  C   UNL     1       2.004   2.576  21.047  0.00  0.00    +0.000 A 
ATOM      6  C   UNL     1       3.307   2.683  20.582  0.00  0.00    +0.000 A 
ATOM      7  C   UNL     1       3.688   3.745  19.753  0.00  0.00    +0.000 A 
ATOM      8  N   UNL     1       4.969   3.778  19.341  0.00  0.00    +0.000 NA
ATOM      9  C   UNL     1       5.463   4.753  18.557  0.00  0.00    +0.000 A 
ATOM     10  C   UNL     1       6.816   4.671  18.195  0.00  0.00    +0.000 A 
ATOM     11  C   UNL     1       7.391   5.655  17.403  0.00  0.00    +0.000 A 
ATOM     12  C   UNL     1       6.621   6.723  16.963  0.00  0.00    +0.000 A 
ATOM     13  C   UNL     1       5.267   6.815  17.310  0.00  0.00    +0.000 A 
ATOM     14  C   UNL     1       4.641   5.822  18.121  0.00  0.00    +0.000 A 
ENDROOT
BRANCH   1  15
ATOM     15  N   UNL     1       2.417   6.953  18.056  0.00  0.00    +0.000 N 
ATOM     16  H   UNL     1       1.937   6.898  17.152  0.00  0.00    +0.000 HD
BRANCH  15  17
ATOM     17  C   UNL     1       2.190   8.185  18.779  0.00  0.00    +0.000 C 
BRANCH  17  18
ATOM     18  C   UNL     1       1.483   9.280  17.987  0.00  0.00    +0.000 C 
BRANCH  18  23
ATOM     19  C   UNL     1       1.895  14.164  19.166  0.00  0.00    +0.000 C 
ATOM     20  N   UNL     1       1.316  12.859  19.388  0.00  0.00    +0.000 N 
ATOM     21  C   UNL     1       1.656  11.716  18.585  0.00  0.00    +0.000 C 
ATOM     22  N   UNL     1       2.509  11.844  17.624  0.00  0.00    +0.000 NA
ATOM     23  N   UNL     1       1.067  10.415  18.818  0.00  0.00    +0.000 N 
ATOM     24  C   UNL     1       0.121  10.138  19.901  0.00  0.00    +0.000 C 
ATOM     25  H   UNL     1       0.642  12.803  20.155  0.00  0.00    +0.000 HD
ATOM     26  H   UNL     1       2.983  12.723  17.380  0.00  0.00    +0.000 HD
ENDBRANCH  18  23
ENDBRANCH  17  18
ENDBRANCH  15  17
ENDBRANCH   1  15
TORSDOF 4
ENDMDL
MODEL 6
REMARK VINA RESULT:      -7.9      1.461      2.073
REMARK  Name = 
REMARK  6 active torsions:
REMARK  status: ('A' for Active; 'I' for Inactive)
REMARK    1  A    between atoms: C_1  and  N_2
REMARK    2  A    between atoms: N_5  and  C_6
REMARK    3  A    between atoms: N_5  and  C_7
REMARK    4  A    between atoms: C_7  and  C_8
REMARK    5  A    between atoms: C_8  and  N_9
REMARK    6  A    between atoms: N_9  and  C_10
REMARK                            x       y       z     vdW  Elec       q    Type
REMARK                         _______ _______ _______ _____ _____    ______ ____
ROOT
ATOM      1  C   UNL     1       3.221   5.794  18.286  0.00  0.00    +0.000 A 
ATOM      2  C   UNL     1       2.596   4.690  19.013  0.00  0.00    +0.000 A 
ATOM      3  C   UNL     1       1.646   4.794  20.080  0.00  0.00    +0.000 A 
ATOM      4  C   UNL     1       1.119   3.680  20.726  0.00  0.00    +0.000 A 
ATOM      5  C   UNL     1       1.505   2.408  20.354  0.00  0.00    +0.000 A 
ATOM      6  C   UNL     1       2.416   2.245  19.320  0.00  0.00    +0.000 A 
ATOM      7  C   UNL     1       2.952   3.354  18.654  0.00  0.00    +0.000 A 
ATOM      8  N   UNL     1       3.827   3.115  17.661  0.00  0.00    +0.000 NA
ATOM      9  C   UNL     1       4.424   4.093  16.957  0.00  0.00    +0.000 A 
ATOM     10  C   UNL     1       5.316   3.711  15.944  0.00  0.00    +0.000 A 
ATOM     11  C   UNL     1       5.979   4.673  15.193  0.00  0.00    +0.000 A 
ATOM     12  C   UNL     1       5.752   6.019  15.444  0.00  0.00    +0.000 A 
ATOM     13  C   UNL     1       4.858   6.416  16.446  0.00  0.00    +0.000 A 
ATOM     14  C   UNL     1       4.159   5.457  17.237  0.00  0.00    +0.000 A 
ENDROOT
BRANCH   1  15
ATOM     15  N   UNL     1       2.955   7.198  18.559  0.00  0.00    +0.000 N 
ATOM     16  H   UNL     1       3.481   7.694  19.286  0.00  0.00    +0.000 HD
BRANCH  15  17
ATOM     17  C   UNL     1       1.969   8.009  17.879  0.00  0.00    +0.000 C 
BRANCH  17  18
ATOM     18  C   UNL     1       1.913   9.469  18.320  0.00  0.00    +0.000 C 
BRANCH  18  23
ATOM     19  C   UNL     1      -0.439   9.209  22.771  0.00  0.00    +0.000 C 
ATOM     20  N   UNL     1      -0.410   9.609  21.383  0.00  0.00    +0.000 N 
ATOM     21  C   UNL     1       0.724   9.368  20.533  0.00  0.00    +0.000 C 
ATOM     22  N   UNL     1       1.764   8.773  21.013  0.00  0.00    +0.000 NA
ATOM     23  N   UNL     1       0.740   9.776  19.144  0.00  0.00    +0.000 N 
ATOM     24  C   UNL     1      -0.393  10.421  18.478  0.00  0.00    +0.000 C 
ATOM     25  H   UNL     1      -1.252  10.082  21.045  0.00  0.00    +0.000 HD
ATOM     26  H   UNL     1       1.850   8.443  21.983  0.00  0.00    +0.000 HD
ENDBRANCH  18  23
ENDBRANCH  17  18
ENDBRANCH  15  17
ENDBRANCH   1  15
TORSDOF 4
ENDMDL
MODEL 7
REMARK VINA RESULT:      -7.9      1.878      4.310
REMARK  Name = 
REMARK  6 active torsions:
REMARK  status: ('A' for Active; 'I' for Inactive)
REMARK    1  A    between atoms: C_1  and  N_2
REMARK    2  A    between atoms: N_5  and  C_6
REMARK    3  A    between atoms: N_5  and  C_7
REMARK    4  A    between atoms: C_7  and  C_8
REMARK    5  A    between atoms: C_8  and  N_9
REMARK    6  A    between atoms: N_9  and  C_10
REMARK                            x       y       z     vdW  Elec       q    Type
REMARK                         _______ _______ _______ _____ _____    ______ ____
ROOT
ATOM      1  C   UNL     1       3.228   5.875  18.542  0.00  0.00    +0.000 A 
ATOM      2  C   UNL     1       4.631   5.872  18.130  0.00  0.00    +0.000 A 
ATOM      3  C   UNL     1       5.288   6.852  17.316  0.00  0.00    +0.000 A 
ATOM      4  C   UNL     1       6.628   6.753  16.960  0.00  0.00    +0.000 A 
ATOM      5  C   UNL     1       7.388   5.682  17.384  0.00  0.00    +0.000 A 
ATOM      6  C   UNL     1       6.808   4.706  18.183  0.00  0.00    +0.000 A 
ATOM      7  C   UNL     1       5.462   4.793  18.557  0.00  0.00    +0.000 A 
ATOM      8  N   UNL     1       4.973   3.810  19.335  0.00  0.00    +0.000 NA
ATOM      9  C   UNL     1       3.693   3.768  19.748  0.00  0.00    +0.000 A 
ATOM     10  C   UNL     1       3.308   2.690  20.559  0.00  0.00    +0.000 A 
ATOM     11  C   UNL     1       1.998   2.579  21.003  0.00  0.00    +0.000 A 
ATOM     12  C   UNL     1       1.066   3.544  20.647  0.00  0.00    +0.000 A 
ATOM     13  C   UNL     1       1.437   4.631  19.845  0.00  0.00    +0.000 A 
ATOM     14  C   UNL     1       2.774   4.778  19.370  0.00  0.00    +0.000 A 
ENDROOT
BRANCH   1  15
ATOM     15  N   UNL     1       2.274   6.907  18.166  0.00  0.00    +0.000 N 
ATOM     16  H   UNL     1       1.653   6.771  17.362  0.00  0.00    +0.000 HD
BRANCH  15  17
ATOM     17  C   UNL     1       2.107   8.175  18.842  0.00  0.00    +0.000 C 
BRANCH  17  18
ATOM     18  C   UNL     1       1.367   9.243  18.042  0.00  0.00    +0.000 C 
BRANCH  18  23
ATOM     19  C   UNL     1      -3.073  11.581  18.521  0.00  0.00    +0.000 C 
ATOM     20  N   UNL     1      -1.781  11.209  19.051  0.00  0.00    +0.000 N 
ATOM     21  C   UNL     1      -0.847  10.403  18.314  0.00  0.00    +0.000 C 
ATOM     22  N   UNL     1      -1.158   9.988  17.132  0.00  0.00    +0.000 NA
ATOM     23  N   UNL     1       0.443  10.037  18.859  0.00  0.00    +0.000 N 
ATOM     24  C   UNL     1       0.924  10.481  20.169  0.00  0.00    +0.000 C 
ATOM     25  H   UNL     1      -1.578  11.554  19.992  0.00  0.00    +0.000 HD
ATOM     26  H   UNL     1      -2.046  10.196  16.657  0.00  0.00    +0.000 HD
ENDBRANCH  18  23
ENDBRANCH  17  18
ENDBRANCH  15  17
ENDBRANCH   1  15
TORSDOF 4
ENDMDL
MODEL 8
REMARK VINA RESULT:      -7.9      1.279      3.949
REMARK  Name = 
REMARK  6 active torsions:
REMARK  status: ('A' for Active; 'I' for Inactive)
REMARK    1  A    between atoms: C_1  and  N_2
REMARK    2  A    between atoms: N_5  and  C_6
REMARK    3  A    between atoms: N_5  and  C_7
REMARK    4  A    between atoms: C_7  and  C_8
REMARK    5  A    between atoms: C_8  and  N_9
REMARK    6  A    between atoms: N_9  and  C_10
REMARK                            x       y       z     vdW  Elec       q    Type
REMARK                         _______ _______ _______ _____ _____    ______ ____
ROOT
ATOM      1  C   UNL     1       3.278   5.871  18.545  0.00  0.00    +0.000 A 
ATOM      2  C   UNL     1       4.682   5.857  18.134  0.00  0.00    +0.000 A 
ATOM      3  C   UNL     1       5.349   6.833  17.326  0.00  0.00    +0.000 A 
ATOM      4  C   UNL     1       6.689   6.723  16.970  0.00  0.00    +0.000 A 
ATOM      5  C   UNL     1       7.438   5.644  17.391  0.00  0.00    +0.000 A 
ATOM      6  C   UNL     1       6.848   4.670  18.185  0.00  0.00    +0.000 A 
ATOM      7  C   UNL     1       5.502   4.768  18.558  0.00  0.00    +0.000 A 
ATOM      8  N   UNL     1       5.002   3.787  19.331  0.00  0.00    +0.000 NA
ATOM      9  C   UNL     1       3.722   3.755  19.743  0.00  0.00    +0.000 A 
ATOM     10  C   UNL     1       3.326   2.677  20.548  0.00  0.00    +0.000 A 
ATOM     11  C   UNL     1       2.014   2.576  20.990  0.00  0.00    +0.000 A 
ATOM     12  C   UNL     1       1.091   3.552  20.637  0.00  0.00    +0.000 A 
ATOM     13  C   UNL     1       1.474   4.638  19.840  0.00  0.00    +0.000 A 
ATOM     14  C   UNL     1       2.813   4.775  19.368  0.00  0.00    +0.000 A 
ENDROOT
BRANCH   1  15
ATOM     15  N   UNL     1       2.334   6.914  18.173  0.00  0.00    +0.000 N 
ATOM     16  H   UNL     1       1.764   6.819  17.326  0.00  0.00    +0.000 HD
BRANCH  15  17
ATOM     17  C   UNL     1       2.110   8.139  18.909  0.00  0.00    +0.000 C 
BRANCH  17  18
ATOM     18  C   UNL     1       1.808   9.364  18.052  0.00  0.00    +0.000 C 
BRANCH  18  23
ATOM     19  C   UNL     1       1.687  14.313  19.005  0.00  0.00    +0.000 C 
ATOM     20  N   UNL     1       1.244  12.965  19.281  0.00  0.00    +0.000 N 
ATOM     21  C   UNL     1       1.715  11.829  18.537  0.00  0.00    +0.000 C 
ATOM     22  N   UNL     1       2.567  12.002  17.582  0.00  0.00    +0.000 NA
ATOM     23  N   UNL     1       1.262  10.485  18.824  0.00  0.00    +0.000 N 
ATOM     24  C   UNL     1       0.331  10.160  19.907  0.00  0.00    +0.000 C 
ATOM     25  H   UNL     1       0.565  12.874  20.041  0.00  0.00    +0.000 HD
ATOM     26  H   UNL     1       2.951  12.914  17.303  0.00  0.00    +0.000 HD
ENDBRANCH  18  23
ENDBRANCH  17  18
ENDBRANCH  15  17
ENDBRANCH   1  15
TORSDOF 4
ENDMDL
MODEL 9
REMARK VINA RESULT:      -7.9      1.870      2.127
REMARK  Name = 
REMARK  6 active torsions:
REMARK  status: ('A' for Active; 'I' for Inactive)
REMARK    1  A    between atoms: C_1  and  N_2
REMARK    2  A    between atoms: N_5  and  C_6
REMARK    3  A    between atoms: N_5  and  C_7
REMARK    4  A    between atoms: C_7  and  C_8
REMARK    5  A    between atoms: C_8  and  N_9
REMARK    6  A    between atoms: N_9  and  C_10
REMARK                            x       y       z     vdW  Elec       q    Type
REMARK                         _______ _______ _______ _____ _____    ______ ____
ROOT
ATOM      1  C   UNL     1       3.253   5.902  18.585  0.00  0.00    +0.000 A 
ATOM      2  C   UNL     1       2.781   4.800  19.424  0.00  0.00    +0.000 A 
ATOM      3  C   UNL     1       1.464   4.634  19.962  0.00  0.00    +0.000 A 
ATOM      4  C   UNL     1       1.114   3.557  20.769  0.00  0.00    +0.000 A 
ATOM      5  C   UNL     1       2.046   2.592  21.090  0.00  0.00    +0.000 A 
ATOM      6  C   UNL     1       3.337   2.695  20.590  0.00  0.00    +0.000 A 
ATOM      7  C   UNL     1       3.705   3.769  19.771  0.00  0.00    +0.000 A 
ATOM      8  N   UNL     1       4.973   3.797  19.323  0.00  0.00    +0.000 NA
ATOM      9  C   UNL     1       5.455   4.782  18.544  0.00  0.00    +0.000 A 
ATOM     10  C   UNL     1       6.797   4.694  18.142  0.00  0.00    +0.000 A 
ATOM     11  C   UNL     1       7.359   5.687  17.352  0.00  0.00    +0.000 A 
ATOM     12  C   UNL     1       6.588   6.771  16.954  0.00  0.00    +0.000 A 
ATOM     13  C   UNL     1       5.245   6.869  17.341  0.00  0.00    +0.000 A 
ATOM     14  C   UNL     1       4.632   5.867  18.151  0.00  0.00    +0.000 A 
ENDROOT
BRANCH   1  15
ATOM     15  N   UNL     1       2.419   7.019  18.170  0.00  0.00    +0.000 N 
ATOM     16  H   UNL     1       2.070   7.077  17.208  0.00  0.00    +0.000 HD
BRANCH  15  17
ATOM     17  C   UNL     1       2.013   8.119  19.019  0.00  0.00    +0.000 C 
BRANCH  17  18
ATOM     18  C   UNL     1       1.482   9.345  18.282  0.00  0.00    +0.000 C 
BRANCH  18  23
ATOM     19  C   UNL     1      -3.021  11.593  18.553  0.00  0.00    +0.000 C 
ATOM     20  N   UNL     1      -1.756  11.230  19.149  0.00  0.00    +0.000 N 
ATOM     21  C   UNL     1      -0.765  10.459  18.450  0.00  0.00    +0.000 C 
ATOM     22  N   UNL     1      -0.998  10.068  17.242  0.00  0.00    +0.000 NA
ATOM     23  N   UNL     1       0.498  10.102  19.061  0.00  0.00    +0.000 N 
ATOM     24  C   UNL     1       0.892  10.522  20.408  0.00  0.00    +0.000 C 
ATOM     25  H   UNL     1      -1.615  11.556  20.109  0.00  0.00    +0.000 HD
ATOM     26  H   UNL     1      -1.860  10.272  16.721  0.00  0.00    +0.000 HD
ENDBRANCH  18  23
ENDBRANCH  17  18
ENDBRANCH  15  17
ENDBRANCH   1  15
TORSDOF 4
ENDMDL
