MODEL 1
REMARK VINA RESULT:      -7.5      0.000      0.000
REMARK  Name = 
REMARK  3 active torsions:
REMARK  status: ('A' for Active; 'I' for Inactive)
REMARK    1  A    between atoms: N_1  and  C_2
REMARK    2  A    between atoms: C_9  and  C_10
REMARK    3  A    between atoms: N_14  and  O_15
REMARK                            x       y       z     vdW  Elec       q    Type
REMARK                         _______ _______ _______ _____ _____    ______ ____
ROOT
ATOM      1  C   UNL     1       6.732   6.230  17.220  0.00  0.00    +0.000 C 
ATOM      2  C   UNL     1       5.323   6.822  17.220  0.00  0.00    +0.000 C 
ATOM      3  C   UNL     1       4.235   5.798  17.430  0.00  0.00    +0.000 A 
ATOM      4  C   UNL     1       4.491   4.462  17.057  0.00  0.00    +0.000 A 
ATOM      5  C   UNL     1       3.495   3.486  17.184  0.00  0.00    +0.000 A 
ATOM      6  C   UNL     1       2.236   3.820  17.670  0.00  0.00    +0.000 A 
ATOM      7  C   UNL     1       1.963   5.139  18.010  0.00  0.00    +0.000 A 
ATOM      8  C   UNL     1       2.938   6.153  17.883  0.00  0.00    +0.000 A 
ATOM      9  N   UNL     1       5.737   4.119  16.506  0.00  0.00    +0.000 N 
ATOM     10  C   UNL     1       6.817   4.969  16.350  0.00  0.00    +0.000 C 
ATOM     11  O   UNL     1       7.803   4.675  15.664  0.00  0.00    +0.000 OA
ENDROOT
BRANCH   8  12
ATOM     12  C   UNL     1       2.488   7.559  18.226  0.00  0.00    +0.000 C 
ATOM     13  F   UNL     1       3.364   8.550  17.916  0.00  0.00    +0.000 F 
ATOM     14  F   UNL     1       1.328   7.893  17.587  0.00  0.00    +0.000 F 
ATOM     15  F   UNL     1       2.227   7.699  19.556  0.00  0.00    +0.000 F 
ENDBRANCH   8  12
BRANCH   1  16
ATOM     16  N   UNL     1       7.735   7.241  16.828  0.00  0.00    +0.000 NA
ATOM     17  H   UNL     1       7.297   7.996  16.302  0.00  0.00    +0.000 HD
ATOM     18  H   UNL     1       8.434   6.816  16.218  0.00  0.00    +0.000 HD
ENDBRANCH   1  16
BRANCH   9  19
ATOM     19  O   UNL     1       5.806   2.874  15.841  0.00  0.00    +0.000 OA
ATOM     20  H   UNL     1       5.524   3.122  14.940  0.00  0.00    +0.000 HD
ENDBRANCH   9  19
TORSDOF 3
ENDMDL
MODEL 2
REMARK VINA RESULT:      -7.4      3.106      4.080
REMARK  Name = 
REMARK  3 active torsions:
REMARK  status: ('A' for Active; 'I' for Inactive)
REMARK    1  A    between atoms: N_1  and  C_2
REMARK    2  A    between atoms: C_9  and  C_10
REMARK    3  A    between atoms: N_14  and  O_15
REMARK                            x       y       z     vdW  Elec       q    Type
REMARK                         _______ _______ _______ _____ _____    ______ ____
ROOT
ATOM      1  C   UNL     1       5.780   4.181  14.572  0.00  0.00    +0.000 C 
ATOM      2  C   UNL     1       5.243   3.309  15.708  0.00  0.00    +0.000 C 
ATOM      3  C   UNL     1       4.988   4.068  16.987  0.00  0.00    +0.000 A 
ATOM      4  C   UNL     1       5.726   5.246  17.225  0.00  0.00    +0.000 A 
ATOM      5  C   UNL     1       5.562   5.957  18.421  0.00  0.00    +0.000 A 
ATOM      6  C   UNL     1       4.677   5.507  19.394  0.00  0.00    +0.000 A 
ATOM      7  C   UNL     1       3.969   4.331  19.183  0.00  0.00    +0.000 A 
ATOM      8  C   UNL     1       4.118   3.580  17.996  0.00  0.00    +0.000 A 
ATOM      9  N   UNL     1       6.669   5.682  16.279  0.00  0.00    +0.000 N 
ATOM     10  C   UNL     1       6.914   5.098  15.049  0.00  0.00    +0.000 C 
ATOM     11  O   UNL     1       7.898   5.387  14.359  0.00  0.00    +0.000 OA
ENDROOT
BRANCH   8  12
ATOM     12  C   UNL     1       3.338   2.284  17.922  0.00  0.00    +0.000 C 
ATOM     13  F   UNL     1       4.069   1.169  17.662  0.00  0.00    +0.000 F 
ATOM     14  F   UNL     1       2.681   2.016  19.090  0.00  0.00    +0.000 F 
ATOM     15  F   UNL     1       2.372   2.325  16.961  0.00  0.00    +0.000 F 
ENDBRANCH   8  12
BRANCH   1  16
ATOM     16  N   UNL     1       6.183   3.359  13.414  0.00  0.00    +0.000 NA
ATOM     17  H   UNL     1       6.599   3.940  12.689  0.00  0.00    +0.000 HD
ATOM     18  H   UNL     1       5.362   2.912  13.005  0.00  0.00    +0.000 HD
ENDBRANCH   1  16
BRANCH   9  19
ATOM     19  O   UNL     1       7.604   6.643  16.725  0.00  0.00    +0.000 OA
ATOM     20  H   UNL     1       7.596   6.485  17.688  0.00  0.00    +0.000 HD
ENDBRANCH   9  19
TORSDOF 3
ENDMDL
MODEL 3
REMARK VINA RESULT:      -7.3      3.807      4.771
REMARK  Name = 
REMARK  3 active torsions:
REMARK  status: ('A' for Active; 'I' for Inactive)
REMARK    1  A    between atoms: N_1  and  C_2
REMARK    2  A    between atoms: C_9  and  C_10
REMARK    3  A    between atoms: N_14  and  O_15
REMARK                            x       y       z     vdW  Elec       q    Type
REMARK                         _______ _______ _______ _____ _____    ______ ____
ROOT
ATOM      1  C   UNL     1       4.481   3.177  19.688  0.00  0.00    +0.000 C 
ATOM      2  C   UNL     1       4.508   3.839  18.311  0.00  0.00    +0.000 C 
ATOM      3  C   UNL     1       3.932   5.233  18.297  0.00  0.00    +0.000 A 
ATOM      4  C   UNL     1       2.978   5.573  19.278  0.00  0.00    +0.000 A 
ATOM      5  C   UNL     1       2.375   6.838  19.275  0.00  0.00    +0.000 A 
ATOM      6  C   UNL     1       2.702   7.773  18.300  0.00  0.00    +0.000 A 
ATOM      7  C   UNL     1       3.616   7.437  17.309  0.00  0.00    +0.000 A 
ATOM      8  C   UNL     1       4.234   6.168  17.272  0.00  0.00    +0.000 A 
ATOM      9  N   UNL     1       2.590   4.620  20.235  0.00  0.00    +0.000 N 
ATOM     10  C   UNL     1       3.119   3.349  20.374  0.00  0.00    +0.000 C 
ATOM     11  O   UNL     1       2.594   2.483  21.082  0.00  0.00    +0.000 OA
ENDROOT
BRANCH   8  12
ATOM     12  C   UNL     1       5.160   5.909  16.102  0.00  0.00    +0.000 C 
ATOM     13  F   UNL     1       4.991   4.720  15.467  0.00  0.00    +0.000 F 
ATOM     14  F   UNL     1       5.028   6.857  15.127  0.00  0.00    +0.000 F 
ATOM     15  F   UNL     1       6.472   5.945  16.473  0.00  0.00    +0.000 F 
ENDBRANCH   8  12
BRANCH   1  16
ATOM     16  N   UNL     1       4.883   1.758  19.605  0.00  0.00    +0.000 NA
ATOM     17  H   UNL     1       5.899   1.673  19.597  0.00  0.00    +0.000 HD
ATOM     18  H   UNL     1       4.541   1.352  18.733  0.00  0.00    +0.000 HD
ENDBRANCH   1  16
BRANCH   9  19
ATOM     19  O   UNL     1       1.404   4.897  20.950  0.00  0.00    +0.000 OA
ATOM     20  H   UNL     1       1.115   3.998  21.197  0.00  0.00    +0.000 HD
ENDBRANCH   9  19
TORSDOF 3
ENDMDL
MODEL 4
REMARK VINA RESULT:      -7.2      3.835      4.894
REMARK  Name = 
REMARK  3 active torsions:
REMARK  status: ('A' for Active; 'I' for Inactive)
REMARK    1  A    between atoms: N_1  and  C_2
REMARK    2  A    between atoms: C_9  and  C_10
REMARK    3  A    between atoms: N_14  and  O_15
REMARK                            x       y       z     vdW  Elec       q    Type
REMARK                         _______ _______ _______ _____ _____    ______ ____
ROOT
ATOM      1  C   UNL     1       3.757   2.337  18.714  0.00  0.00    +0.000 C 
ATOM      2  C   UNL     1       4.038   3.271  17.537  0.00  0.00    +0.000 C 
ATOM      3  C   UNL     1       3.723   4.719  17.822  0.00  0.00    +0.000 A 
ATOM      4  C   UNL     1       2.751   5.012  18.801  0.00  0.00    +0.000 A 
ATOM      5  C   UNL     1       2.387   6.339  19.065  0.00  0.00    +0.000 A 
ATOM      6  C   UNL     1       2.970   7.385  18.360  0.00  0.00    +0.000 A 
ATOM      7  C   UNL     1       3.905   7.105  17.371  0.00  0.00    +0.000 A 
ATOM      8  C   UNL     1       4.288   5.780  17.068  0.00  0.00    +0.000 A 
ATOM      9  N   UNL     1       2.107   3.964  19.481  0.00  0.00    +0.000 N 
ATOM     10  C   UNL     1       2.385   2.617  19.343  0.00  0.00    +0.000 C 
ATOM     11  O   UNL     1       1.646   1.735  19.795  0.00  0.00    +0.000 OA
ENDROOT
BRANCH   8  12
ATOM     12  C   UNL     1       5.266   5.611  15.923  0.00  0.00    +0.000 C 
ATOM     13  F   UNL     1       6.567   5.456  16.278  0.00  0.00    +0.000 F 
ATOM     14  F   UNL     1       4.971   4.520  15.157  0.00  0.00    +0.000 F 
ATOM     15  F   UNL     1       5.239   6.675  15.071  0.00  0.00    +0.000 F 
ENDBRANCH   8  12
BRANCH   1  16
ATOM     16  N   UNL     1       3.906   0.922  18.319  0.00  0.00    +0.000 NA
ATOM     17  H   UNL     1       4.244   0.365  19.102  0.00  0.00    +0.000 HD
ATOM     18  H   UNL     1       4.599   0.843  17.574  0.00  0.00    +0.000 HD
ENDBRANCH   1  16
BRANCH   9  19
ATOM     19  O   UNL     1       0.923   4.303  20.174  0.00  0.00    +0.000 OA
ATOM     20  H   UNL     1       0.363   3.526  19.986  0.00  0.00    +0.000 HD
ENDBRANCH   9  19
TORSDOF 3
ENDMDL
MODEL 5
REMARK VINA RESULT:      -7.2      3.953      5.019
REMARK  Name = 
REMARK  3 active torsions:
REMARK  status: ('A' for Active; 'I' for Inactive)
REMARK    1  A    between atoms: N_1  and  C_2
REMARK    2  A    between atoms: C_9  and  C_10
REMARK    3  A    between atoms: N_14  and  O_15
REMARK                            x       y       z     vdW  Elec       q    Type
REMARK                         _______ _______ _______ _____ _____    ______ ____
ROOT
ATOM      1  C   UNL     1       3.832   2.257  18.781  0.00  0.00    +0.000 C 
ATOM      2  C   UNL     1       4.133   3.056  17.513  0.00  0.00    +0.000 C 
ATOM      3  C   UNL     1       3.921   4.542  17.668  0.00  0.00    +0.000 A 
ATOM      4  C   UNL     1       3.005   4.990  18.641  0.00  0.00    +0.000 A 
ATOM      5  C   UNL     1       2.736   6.357  18.787  0.00  0.00    +0.000 A 
ATOM      6  C   UNL     1       3.361   7.291  17.969  0.00  0.00    +0.000 A 
ATOM      7  C   UNL     1       4.241   6.858  16.986  0.00  0.00    +0.000 A 
ATOM      8  C   UNL     1       4.526   5.487  16.800  0.00  0.00    +0.000 A 
ATOM      9  N   UNL     1       2.318   4.056  19.436  0.00  0.00    +0.000 N 
ATOM     10  C   UNL     1       2.504   2.686  19.420  0.00  0.00    +0.000 C 
ATOM     11  O   UNL     1       1.726   1.902  19.974  0.00  0.00    +0.000 OA
ENDROOT
BRANCH   8  12
ATOM     12  C   UNL     1       5.451   5.147  15.649  0.00  0.00    +0.000 C 
ATOM     13  F   UNL     1       4.997   4.202  14.787  0.00  0.00    +0.000 F 
ATOM     14  F   UNL     1       5.723   6.238  14.873  0.00  0.00    +0.000 F 
ATOM     15  F   UNL     1       6.662   4.698  16.086  0.00  0.00    +0.000 F 
ENDBRANCH   8  12
BRANCH   1  16
ATOM     16  N   UNL     1       3.877   0.804  18.519  0.00  0.00    +0.000 NA
ATOM     17  H   UNL     1       4.464   0.603  17.710  0.00  0.00    +0.000 HD
ATOM     18  H   UNL     1       2.939   0.464  18.301  0.00  0.00    +0.000 HD
ENDBRANCH   1  16
BRANCH   9  19
ATOM     19  O   UNL     1       1.184   4.537  20.127  0.00  0.00    +0.000 OA
ATOM     20  H   UNL     1       1.600   4.999  20.879  0.00  0.00    +0.000 HD
ENDBRANCH   9  19
TORSDOF 3
ENDMDL
MODEL 6
REMARK VINA RESULT:      -7.1      2.633      3.623
REMARK  Name = 
REMARK  3 active torsions:
REMARK  status: ('A' for Active; 'I' for Inactive)
REMARK    1  A    between atoms: N_1  and  C_2
REMARK    2  A    between atoms: C_9  and  C_10
REMARK    3  A    between atoms: N_14  and  O_15
REMARK                            x       y       z     vdW  Elec       q    Type
REMARK                         _______ _______ _______ _____ _____    ______ ____
ROOT
ATOM      1  C   UNL     1       5.510   4.334  15.275  0.00  0.00    +0.000 C 
ATOM      2  C   UNL     1       4.669   3.765  16.417  0.00  0.00    +0.000 C 
ATOM      3  C   UNL     1       3.930   4.816  17.209  0.00  0.00    +0.000 A 
ATOM      4  C   UNL     1       4.457   6.123  17.241  0.00  0.00    +0.000 A 
ATOM      5  C   UNL     1       3.837   7.121  18.004  0.00  0.00    +0.000 A 
ATOM      6  C   UNL     1       2.699   6.834  18.749  0.00  0.00    +0.000 A 
ATOM      7  C   UNL     1       2.190   5.541  18.750  0.00  0.00    +0.000 A 
ATOM      8  C   UNL     1       2.796   4.507  18.004  0.00  0.00    +0.000 A 
ATOM      9  N   UNL     1       5.642   6.415  16.543  0.00  0.00    +0.000 N 
ATOM     10  C   UNL     1       6.341   5.542  15.730  0.00  0.00    +0.000 C 
ATOM     11  O   UNL     1       7.483   5.781  15.322  0.00  0.00    +0.000 OA
ENDROOT
BRANCH   8  12
ATOM     12  C   UNL     1       2.180   3.130  18.147  0.00  0.00    +0.000 C 
ATOM     13  F   UNL     1       2.249   2.336  17.047  0.00  0.00    +0.000 F 
ATOM     14  F   UNL     1       2.769   2.409  19.146  0.00  0.00    +0.000 F 
ATOM     15  F   UNL     1       0.858   3.196  18.473  0.00  0.00    +0.000 F 
ENDBRANCH   8  12
BRANCH   1  16
ATOM     16  N   UNL     1       6.349   3.287  14.657  0.00  0.00    +0.000 NA
ATOM     17  H   UNL     1       7.312   3.606  14.566  0.00  0.00    +0.000 HD
ATOM     18  H   UNL     1       6.010   3.083  13.717  0.00  0.00    +0.000 HD
ENDBRANCH   1  16
BRANCH   9  19
ATOM     19  O   UNL     1       6.293   7.619  16.893  0.00  0.00    +0.000 OA
ATOM     20  H   UNL     1       5.545   8.154  17.218  0.00  0.00    +0.000 HD
ENDBRANCH   9  19
TORSDOF 3
ENDMDL
MODEL 7
REMARK VINA RESULT:      -7.1      2.063      2.469
REMARK  Name = 
REMARK  3 active torsions:
REMARK  status: ('A' for Active; 'I' for Inactive)
REMARK    1  A    between atoms: N_1  and  C_2
REMARK    2  A    between atoms: C_9  and  C_10
REMARK    3  A    between atoms: N_14  and  O_15
REMARK                            x       y       z     vdW  Elec       q    Type
REMARK                         _______ _______ _______ _____ _____    ______ ____
ROOT
ATOM      1  C   UNL     1       6.422   4.811  19.251  0.00  0.00    +0.000 C 
ATOM      2  C   UNL     1       5.005   5.292  19.563  0.00  0.00    +0.000 C 
ATOM      3  C   UNL     1       3.933   4.562  18.792  0.00  0.00    +0.000 A 
ATOM      4  C   UNL     1       4.276   3.981  17.554  0.00  0.00    +0.000 A 
ATOM      5  C   UNL     1       3.304   3.338  16.777  0.00  0.00    +0.000 A 
ATOM      6  C   UNL     1       1.985   3.270  17.211  0.00  0.00    +0.000 A 
ATOM      7  C   UNL     1       1.630   3.866  18.415  0.00  0.00    +0.000 A 
ATOM      8  C   UNL     1       2.580   4.535  19.218  0.00  0.00    +0.000 A 
ATOM      9  N   UNL     1       5.591   4.094  17.071  0.00  0.00    +0.000 N 
ATOM     10  C   UNL     1       6.654   4.673  17.740  0.00  0.00    +0.000 C 
ATOM     11  O   UNL     1       7.726   4.939  17.184  0.00  0.00    +0.000 OA
ENDROOT
BRANCH   8  12
ATOM     12  C   UNL     1       2.047   5.198  20.471  0.00  0.00    +0.000 C 
ATOM     13  F   UNL     1       2.630   4.813  21.636  0.00  0.00    +0.000 F 
ATOM     14  F   UNL     1       2.191   6.556  20.431  0.00  0.00    +0.000 F 
ATOM     15  F   UNL     1       0.712   4.976  20.636  0.00  0.00    +0.000 F 
ENDBRANCH   8  12
BRANCH   1  16
ATOM     16  N   UNL     1       7.433   5.680  19.889  0.00  0.00    +0.000 NA
ATOM     17  H   UNL     1       7.023   6.576  20.147  0.00  0.00    +0.000 HD
ATOM     18  H   UNL     1       8.187   5.873  19.229  0.00  0.00    +0.000 HD
ENDBRANCH   1  16
BRANCH   9  19
ATOM     19  O   UNL     1       5.781   3.809  15.701  0.00  0.00    +0.000 OA
ATOM     20  H   UNL     1       5.802   4.707  15.319  0.00  0.00    +0.000 HD
ENDBRANCH   9  19
TORSDOF 3
ENDMDL
MODEL 8
REMARK VINA RESULT:      -7.0      3.511      4.857
REMARK  Name = 
REMARK  3 active torsions:
REMARK  status: ('A' for Active; 'I' for Inactive)
REMARK    1  A    between atoms: N_1  and  C_2
REMARK    2  A    between atoms: C_9  and  C_10
REMARK    3  A    between atoms: N_14  and  O_15
REMARK                            x       y       z     vdW  Elec       q    Type
REMARK                         _______ _______ _______ _____ _____    ______ ____
ROOT
ATOM      1  C   UNL     1       3.094   5.573  19.447  0.00  0.00    +0.000 C 
ATOM      2  C   UNL     1       4.600   5.313  19.488  0.00  0.00    +0.000 C 
ATOM      3  C   UNL     1       5.185   4.925  18.152  0.00  0.00    +0.000 A 
ATOM      4  C   UNL     1       4.340   4.313  17.204  0.00  0.00    +0.000 A 
ATOM      5  C   UNL     1       4.848   3.887  15.970  0.00  0.00    +0.000 A 
ATOM      6  C   UNL     1       6.194   4.053  15.666  0.00  0.00    +0.000 A 
ATOM      7  C   UNL     1       7.042   4.626  16.606  0.00  0.00    +0.000 A 
ATOM      8  C   UNL     1       6.568   5.055  17.865  0.00  0.00    +0.000 A 
ATOM      9  N   UNL     1       2.990   4.082  17.518  0.00  0.00    +0.000 N 
ATOM     10  C   UNL     1       2.349   4.472  18.680  0.00  0.00    +0.000 C 
ATOM     11  O   UNL     1       1.230   4.054  18.996  0.00  0.00    +0.000 OA
ENDROOT
BRANCH   8  12
ATOM     12  C   UNL     1       7.609   5.600  18.821  0.00  0.00    +0.000 C 
ATOM     13  F   UNL     1       7.218   5.717  20.116  0.00  0.00    +0.000 F 
ATOM     14  F   UNL     1       8.729   4.818  18.855  0.00  0.00    +0.000 F 
ATOM     15  F   UNL     1       8.040   6.840  18.451  0.00  0.00    +0.000 F 
ENDBRANCH   8  12
BRANCH   1  16
ATOM     16  N   UNL     1       2.549   5.766  20.807  0.00  0.00    +0.000 NA
ATOM     17  H   UNL     1       1.534   5.682  20.801  0.00  0.00    +0.000 HD
ATOM     18  H   UNL     1       2.771   6.705  21.138  0.00  0.00    +0.000 HD
ENDBRANCH   1  16
BRANCH   9  19
ATOM     19  O   UNL     1       2.301   3.170  16.687  0.00  0.00    +0.000 OA
ATOM     20  H   UNL     1       1.443   3.621  16.578  0.00  0.00    +0.000 HD
ENDBRANCH   9  19
TORSDOF 3
ENDMDL
MODEL 9
REMARK VINA RESULT:      -7.0      2.605      4.114
REMARK  Name = 
REMARK  3 active torsions:
REMARK  status: ('A' for Active; 'I' for Inactive)
REMARK    1  A    between atoms: N_1  and  C_2
REMARK    2  A    between atoms: C_9  and  C_10
REMARK    3  A    between atoms: N_14  and  O_15
REMARK                            x       y       z     vdW  Elec       q    Type
REMARK                         _______ _______ _______ _____ _____    ______ ____
ROOT
ATOM      1  C   UNL     1       1.829   3.898  19.669  0.00  0.00    +0.000 C 
ATOM      2  C   UNL     1       1.998   5.409  19.511  0.00  0.00    +0.000 C 
ATOM      3  C   UNL     1       3.137   5.801  18.604  0.00  0.00    +0.000 A 
ATOM      4  C   UNL     1       4.215   4.903  18.456  0.00  0.00    +0.000 A 
ATOM      5  C   UNL     1       5.320   5.244  17.666  0.00  0.00    +0.000 A 
ATOM      6  C   UNL     1       5.376   6.475  17.024  0.00  0.00    +0.000 A 
ATOM      7  C   UNL     1       4.335   7.380  17.189  0.00  0.00    +0.000 A 
ATOM      8  C   UNL     1       3.211   7.077  17.988  0.00  0.00    +0.000 A 
ATOM      9  N   UNL     1       4.203   3.679  19.147  0.00  0.00    +0.000 N 
ATOM     10  C   UNL     1       3.171   3.202  19.934  0.00  0.00    +0.000 C 
ATOM     11  O   UNL     1       3.302   2.231  20.688  0.00  0.00    +0.000 OA
ENDROOT
BRANCH   8  12
ATOM     12  C   UNL     1       2.180   8.177  18.137  0.00  0.00    +0.000 C 
ATOM     13  F   UNL     1       1.815   8.475  19.410  0.00  0.00    +0.000 F 
ATOM     14  F   UNL     1       2.613   9.358  17.603  0.00  0.00    +0.000 F 
ATOM     15  F   UNL     1       1.022   7.881  17.480  0.00  0.00    +0.000 F 
ENDBRANCH   8  12
BRANCH   1  16
ATOM     16  N   UNL     1       0.825   3.578  20.705  0.00  0.00    +0.000 NA
ATOM     17  H   UNL     1       0.691   2.571  20.775  0.00  0.00    +0.000 HD
ATOM     18  H   UNL     1      -0.076   3.984  20.449  0.00  0.00    +0.000 HD
ENDBRANCH   1  16
BRANCH   9  19
ATOM     19  O   UNL     1       5.438   2.999  19.236  0.00  0.00    +0.000 OA
ATOM     20  H   UNL     1       5.629   2.826  18.295  0.00  0.00    +0.000 HD
ENDBRANCH   9  19
TORSDOF 3
ENDMDL
