MODEL 1
REMARK VINA RESULT:      -8.5      0.000      0.000
REMARK  Name = 
REMARK  10 active torsions:
REMARK  status: ('A' for Active; 'I' for Inactive)
REMARK    1  A    between atoms: C_1  and  O_2
REMARK    2  A    between atoms: O_2  and  C_3
REMARK    3  A    between atoms: C_3  and  C_4
REMARK    4  A    between atoms: C_7  and  C_8
REMARK    5  A    between atoms: N_10  and  C_11
REMARK    6  A    between atoms: C_14  and  C_15
REMARK    7  A    between atoms: C_16  and  C_17
REMARK    8  A    between atoms: C_20  and  N_21
REMARK    9  A    between atoms: C_22  and  C_24
REMARK   10  A    between atoms: C_29  and  C_30
REMARK                            x       y       z     vdW  Elec       q    Type
REMARK                         _______ _______ _______ _____ _____    ______ ____
ROOT
ATOM      1  C   UNL     1       2.091  13.900  18.377  0.00  0.00    +0.000 A 
ATOM      2  N   UNL     1       0.930  13.446  18.792  0.00  0.00    +0.000 NA
ATOM      3  C   UNL     1       0.998  12.071  18.677  0.00  0.00    +0.000 A 
ATOM      4  C   UNL     1       0.055  11.088  19.001  0.00  0.00    +0.000 A 
ATOM      5  C   UNL     1       0.403   9.729  18.819  0.00  0.00    +0.000 A 
ATOM      6  C   UNL     1       1.602   9.351  18.219  0.00  0.00    +0.000 A 
ATOM      7  C   UNL     1       2.542  10.345  17.864  0.00  0.00    +0.000 A 
ATOM      8  C   UNL     1       2.220  11.684  18.139  0.00  0.00    +0.000 A 
ATOM      9  N   UNL     1       2.903  12.867  17.971  0.00  0.00    +0.000 N 
ATOM     10  H   UNL     1       3.840  12.974  17.606  0.00  0.00    +0.000 HD
ENDROOT
BRANCH   4  11
ATOM     11  C   UNL     1      -1.302  11.434  19.494  0.00  0.00    +0.000 C 
ATOM     12  O   UNL     1      -2.250  11.071  18.807  0.00  0.00    +0.000 OA
ATOM     13  N   UNL     1      -1.384  12.196  20.651  0.00  0.00    +0.000 N 
ATOM     14  H   UNL     1      -0.510  12.564  21.021  0.00  0.00    +0.000 HD
BRANCH  13  15
ATOM     15  C   UNL     1      -2.586  12.654  21.230  0.00  0.00    +0.000 A 
ATOM     16  C   UNL     1      -3.457  13.513  20.564  0.00  0.00    +0.000 A 
ATOM     17  C   UNL     1      -4.571  14.043  21.208  0.00  0.00    +0.000 A 
ATOM     18  C   UNL     1      -4.847  13.726  22.542  0.00  0.00    +0.000 A 
ATOM     19  C   UNL     1      -6.010  14.404  23.209  0.00  0.00    +0.000 C 
ATOM     20  C   UNL     1      -4.011  12.812  23.215  0.00  0.00    +0.000 A 
ATOM     21  C   UNL     1      -4.213  12.438  24.658  0.00  0.00    +0.000 C 
ATOM     22  C   UNL     1      -2.901  12.263  22.535  0.00  0.00    +0.000 A 
ENDBRANCH  13  15
ENDBRANCH   4  11
BRANCH   6  23
ATOM     23  N   UNL     1       1.932   8.005  17.907  0.00  0.00    +0.000 N 
ATOM     24  C   UNL     1       2.334   6.996  18.783  0.00  0.00    +0.000 C 
ATOM     25  O   UNL     1       2.545   7.149  19.974  0.00  0.00    +0.000 OA
ATOM     26  H   UNL     1       1.689   7.739  16.966  0.00  0.00    +0.000 HD
BRANCH  24  27
ATOM     27  C   UNL     1       2.593   5.629  18.212  0.00  0.00    +0.000 A 
ATOM     28  C   UNL     1       1.559   4.686  18.461  0.00  0.00    +0.000 A 
ATOM     29  C   UNL     1       1.654   3.350  18.060  0.00  0.00    +0.000 A 
ATOM     30  C   UNL     1       2.763   2.928  17.350  0.00  0.00    +0.000 A 
ATOM     31  C   UNL     1       3.760   3.847  17.030  0.00  0.00    +0.000 A 
ATOM     32  C   UNL     1       3.699   5.204  17.448  0.00  0.00    +0.000 A 
BRANCH  32  33
ATOM     33  C   UNL     1       4.862   6.060  17.020  0.00  0.00    +0.000 C 
ATOM     34  F   UNL     1       5.579   6.639  18.014  0.00  0.00    +0.000 F 
ATOM     35  F   UNL     1       5.777   5.326  16.324  0.00  0.00    +0.000 F 
ATOM     36  F   UNL     1       4.501   7.082  16.199  0.00  0.00    +0.000 F 
ENDBRANCH  32  33
ENDBRANCH  24  27
ENDBRANCH   6  23
BRANCH   1  37
ATOM     37  C   UNL     1       2.523  15.323  18.344  0.00  0.00    +0.000 C 
BRANCH  37  39
ATOM     38  C   UNL     1       1.332  17.347  18.248  0.00  0.00    +0.000 C 
ATOM     39  O   UNL     1       1.460  16.095  18.910  0.00  0.00    +0.000 OA
ENDBRANCH  37  39
ENDBRANCH   1  37
TORSDOF 7
ENDMDL
MODEL 2
REMARK VINA RESULT:      -8.3      1.234      1.741
REMARK  Name = 
REMARK  10 active torsions:
REMARK  status: ('A' for Active; 'I' for Inactive)
REMARK    1  A    between atoms: C_1  and  O_2
REMARK    2  A    between atoms: O_2  and  C_3
REMARK    3  A    between atoms: C_3  and  C_4
REMARK    4  A    between atoms: C_7  and  C_8
REMARK    5  A    between atoms: N_10  and  C_11
REMARK    6  A    between atoms: C_14  and  C_15
REMARK    7  A    between atoms: C_16  and  C_17
REMARK    8  A    between atoms: C_20  and  N_21
REMARK    9  A    between atoms: C_22  and  C_24
REMARK   10  A    between atoms: C_29  and  C_30
REMARK                            x       y       z     vdW  Elec       q    Type
REMARK                         _______ _______ _______ _____ _____    ______ ____
ROOT
ATOM      1  C   UNL     1       2.065  13.244  18.345  0.00  0.00    +0.000 A 
ATOM      2  N   UNL     1       1.207  12.793  19.232  0.00  0.00    +0.000 NA
ATOM      3  C   UNL     1       1.276  11.416  19.158  0.00  0.00    +0.000 A 
ATOM      4  C   UNL     1       0.598  10.434  19.893  0.00  0.00    +0.000 A 
ATOM      5  C   UNL     1       0.890   9.074  19.639  0.00  0.00    +0.000 A 
ATOM      6  C   UNL     1       1.738   8.686  18.604  0.00  0.00    +0.000 A 
ATOM      7  C   UNL     1       2.400   9.675  17.842  0.00  0.00    +0.000 A 
ATOM      8  C   UNL     1       2.171  11.022  18.170  0.00  0.00    +0.000 A 
ATOM      9  N   UNL     1       2.671  12.205  17.678  0.00  0.00    +0.000 N 
ATOM     10  H   UNL     1       3.361  12.309  16.945  0.00  0.00    +0.000 HD
ENDROOT
BRANCH   4  11
ATOM     11  C   UNL     1      -0.437  10.783  20.899  0.00  0.00    +0.000 C 
ATOM     12  O   UNL     1      -0.531  10.048  21.875  0.00  0.00    +0.000 OA
ATOM     13  N   UNL     1      -1.255  11.869  20.621  0.00  0.00    +0.000 N 
ATOM     14  H   UNL     1      -1.167  12.284  19.695  0.00  0.00    +0.000 HD
BRANCH  13  15
ATOM     15  C   UNL     1      -2.315  12.310  21.439  0.00  0.00    +0.000 A 
ATOM     16  C   UNL     1      -2.221  12.346  22.829  0.00  0.00    +0.000 A 
ATOM     17  C   UNL     1      -3.326  12.669  23.612  0.00  0.00    +0.000 A 
ATOM     18  C   UNL     1      -4.560  12.967  23.024  0.00  0.00    +0.000 A 
ATOM     19  C   UNL     1      -5.736  13.213  23.926  0.00  0.00    +0.000 C 
ATOM     20  C   UNL     1      -4.659  12.994  21.619  0.00  0.00    +0.000 A 
ATOM     21  C   UNL     1      -5.953  13.273  20.902  0.00  0.00    +0.000 C 
ATOM     22  C   UNL     1      -3.520  12.691  20.840  0.00  0.00    +0.000 A 
ENDBRANCH  13  15
ENDBRANCH   4  11
BRANCH   6  23
ATOM     23  N   UNL     1       1.959   7.331  18.239  0.00  0.00    +0.000 N 
ATOM     24  C   UNL     1       2.544   6.321  19.006  0.00  0.00    +0.000 C 
ATOM     25  O   UNL     1       3.038   6.480  20.108  0.00  0.00    +0.000 OA
ATOM     26  H   UNL     1       1.492   7.061  17.388  0.00  0.00    +0.000 HD
BRANCH  24  27
ATOM     27  C   UNL     1       2.633   4.945  18.408  0.00  0.00    +0.000 A 
ATOM     28  C   UNL     1       1.591   4.065  18.808  0.00  0.00    +0.000 A 
ATOM     29  C   UNL     1       1.545   2.727  18.402  0.00  0.00    +0.000 A 
ATOM     30  C   UNL     1       2.511   2.243  17.538  0.00  0.00    +0.000 A 
ATOM     31  C   UNL     1       3.505   3.101  17.074  0.00  0.00    +0.000 A 
ATOM     32  C   UNL     1       3.588   4.457  17.492  0.00  0.00    +0.000 A 
BRANCH  32  33
ATOM     33  C   UNL     1       4.726   5.244  16.897  0.00  0.00    +0.000 C 
ATOM     34  F   UNL     1       4.424   6.485  16.441  0.00  0.00    +0.000 F 
ATOM     35  F   UNL     1       5.710   5.451  17.819  0.00  0.00    +0.000 F 
ATOM     36  F   UNL     1       5.324   4.615  15.850  0.00  0.00    +0.000 F 
ENDBRANCH  32  33
ENDBRANCH  24  27
ENDBRANCH   6  23
BRANCH   1  37
ATOM     37  C   UNL     1       2.385  14.671  18.071  0.00  0.00    +0.000 C 
BRANCH  37  39
ATOM     38  C   UNL     1       4.659  15.216  17.845  0.00  0.00    +0.000 C 
ATOM     39  O   UNL     1       3.601  14.967  18.762  0.00  0.00    +0.000 OA
ENDBRANCH  37  39
ENDBRANCH   1  37
TORSDOF 7
ENDMDL
MODEL 3
REMARK VINA RESULT:      -8.3      0.724      1.333
REMARK  Name = 
REMARK  10 active torsions:
REMARK  status: ('A' for Active; 'I' for Inactive)
REMARK    1  A    between atoms: C_1  and  O_2
REMARK    2  A    between atoms: O_2  and  C_3
REMARK    3  A    between atoms: C_3  and  C_4
REMARK    4  A    between atoms: C_7  and  C_8
REMARK    5  A    between atoms: N_10  and  C_11
REMARK    6  A    between atoms: C_14  and  C_15
REMARK    7  A    between atoms: C_16  and  C_17
REMARK    8  A    between atoms: C_20  and  N_21
REMARK    9  A    between atoms: C_22  and  C_24
REMARK   10  A    between atoms: C_29  and  C_30
REMARK                            x       y       z     vdW  Elec       q    Type
REMARK                         _______ _______ _______ _____ _____    ______ ____
ROOT
ATOM      1  C   UNL     1       2.098  13.845  18.333  0.00  0.00    +0.000 A 
ATOM      2  N   UNL     1       0.993  13.373  18.866  0.00  0.00    +0.000 NA
ATOM      3  C   UNL     1       1.077  11.999  18.756  0.00  0.00    +0.000 A 
ATOM      4  C   UNL     1       0.192  11.000  19.182  0.00  0.00    +0.000 A 
ATOM      5  C   UNL     1       0.547   9.646  18.976  0.00  0.00    +0.000 A 
ATOM      6  C   UNL     1       1.687   9.286  18.262  0.00  0.00    +0.000 A 
ATOM      7  C   UNL     1       2.567  10.294  17.806  0.00  0.00    +0.000 A 
ATOM      8  C   UNL     1       2.247  11.630  18.101  0.00  0.00    +0.000 A 
ATOM      9  N   UNL     1       2.886  12.823  17.856  0.00  0.00    +0.000 N 
ATOM     10  H   UNL     1       3.779  12.945  17.397  0.00  0.00    +0.000 HD
ENDROOT
BRANCH   4  11
ATOM     11  C   UNL     1      -1.116  11.326  19.805  0.00  0.00    +0.000 C 
ATOM     12  O   UNL     1      -2.119  11.101  19.138  0.00  0.00    +0.000 OA
ATOM     13  N   UNL     1      -1.093  11.919  21.060  0.00  0.00    +0.000 N 
ATOM     14  H   UNL     1      -0.182  12.196  21.420  0.00  0.00    +0.000 HD
BRANCH  13  15
ATOM     15  C   UNL     1      -2.235  12.336  21.775  0.00  0.00    +0.000 A 
ATOM     16  C   UNL     1      -2.378  12.122  23.144  0.00  0.00    +0.000 A 
ATOM     17  C   UNL     1      -3.567  12.436  23.796  0.00  0.00    +0.000 A 
ATOM     18  C   UNL     1      -4.651  12.974  23.094  0.00  0.00    +0.000 A 
ATOM     19  C   UNL     1      -5.937  13.200  23.836  0.00  0.00    +0.000 C 
ATOM     20  C   UNL     1      -4.505  13.252  21.720  0.00  0.00    +0.000 A 
ATOM     21  C   UNL     1      -5.626  13.801  20.880  0.00  0.00    +0.000 C 
ATOM     22  C   UNL     1      -3.280  12.954  21.081  0.00  0.00    +0.000 A 
ENDBRANCH  13  15
ENDBRANCH   4  11
BRANCH   6  23
ATOM     23  N   UNL     1       2.011   7.944  17.929  0.00  0.00    +0.000 N 
ATOM     24  C   UNL     1       2.381   6.912  18.793  0.00  0.00    +0.000 C 
ATOM     25  O   UNL     1       2.563   7.037  19.992  0.00  0.00    +0.000 OA
ATOM     26  H   UNL     1       1.790   7.700  16.977  0.00  0.00    +0.000 HD
BRANCH  24  27
ATOM     27  C   UNL     1       2.641   5.555  18.201  0.00  0.00    +0.000 A 
ATOM     28  C   UNL     1       1.611   4.605  18.442  0.00  0.00    +0.000 A 
ATOM     29  C   UNL     1       1.708   3.275  18.020  0.00  0.00    +0.000 A 
ATOM     30  C   UNL     1       2.813   2.867  17.296  0.00  0.00    +0.000 A 
ATOM     31  C   UNL     1       3.805   3.794  16.984  0.00  0.00    +0.000 A 
ATOM     32  C   UNL     1       3.743   5.144  17.423  0.00  0.00    +0.000 A 
BRANCH  32  33
ATOM     33  C   UNL     1       4.900   6.011  17.000  0.00  0.00    +0.000 C 
ATOM     34  F   UNL     1       5.608   6.596  17.998  0.00  0.00    +0.000 F 
ATOM     35  F   UNL     1       5.825   5.285  16.308  0.00  0.00    +0.000 F 
ATOM     36  F   UNL     1       4.534   7.030  16.178  0.00  0.00    +0.000 F 
ENDBRANCH  32  33
ENDBRANCH  24  27
ENDBRANCH   6  23
BRANCH   1  37
ATOM     37  C   UNL     1       2.495  15.276  18.244  0.00  0.00    +0.000 C 
BRANCH  37  39
ATOM     38  C   UNL     1       3.308  15.794  20.386  0.00  0.00    +0.000 C 
ATOM     39  O   UNL     1       3.660  15.437  19.057  0.00  0.00    +0.000 OA
ENDBRANCH  37  39
ENDBRANCH   1  37
TORSDOF 7
ENDMDL
MODEL 4
REMARK VINA RESULT:      -8.2      3.897     11.109
REMARK  Name = 
REMARK  10 active torsions:
REMARK  status: ('A' for Active; 'I' for Inactive)
REMARK    1  A    between atoms: C_1  and  O_2
REMARK    2  A    between atoms: O_2  and  C_3
REMARK    3  A    between atoms: C_3  and  C_4
REMARK    4  A    between atoms: C_7  and  C_8
REMARK    5  A    between atoms: N_10  and  C_11
REMARK    6  A    between atoms: C_14  and  C_15
REMARK    7  A    between atoms: C_16  and  C_17
REMARK    8  A    between atoms: C_20  and  N_21
REMARK    9  A    between atoms: C_22  and  C_24
REMARK   10  A    between atoms: C_29  and  C_30
REMARK                            x       y       z     vdW  Elec       q    Type
REMARK                         _______ _______ _______ _____ _____    ______ ____
ROOT
ATOM      1  C   UNL     1       3.943   2.689  20.265  0.00  0.00    +0.000 A 
ATOM      2  N   UNL     1       4.356   3.423  19.256  0.00  0.00    +0.000 NA
ATOM      3  C   UNL     1       3.689   4.627  19.366  0.00  0.00    +0.000 A 
ATOM      4  C   UNL     1       3.767   5.780  18.576  0.00  0.00    +0.000 A 
ATOM      5  C   UNL     1       2.991   6.906  18.940  0.00  0.00    +0.000 A 
ATOM      6  C   UNL     1       2.071   6.857  19.985  0.00  0.00    +0.000 A 
ATOM      7  C   UNL     1       1.970   5.683  20.765  0.00  0.00    +0.000 A 
ATOM      8  C   UNL     1       2.816   4.607  20.448  0.00  0.00    +0.000 A 
ATOM      9  N   UNL     1       3.008   3.367  21.012  0.00  0.00    +0.000 N 
ATOM     10  H   UNL     1       2.543   3.000  21.832  0.00  0.00    +0.000 HD
ENDROOT
BRANCH   4  11
ATOM     11  C   UNL     1       4.609   5.839  17.354  0.00  0.00    +0.000 C 
ATOM     12  O   UNL     1       5.025   6.942  17.020  0.00  0.00    +0.000 OA
ATOM     13  N   UNL     1       4.798   4.655  16.654  0.00  0.00    +0.000 N 
ATOM     14  H   UNL     1       4.255   3.849  16.960  0.00  0.00    +0.000 HD
BRANCH  13  15
ATOM     15  C   UNL     1       5.527   4.537  15.452  0.00  0.00    +0.000 A 
ATOM     16  C   UNL     1       6.802   5.077  15.295  0.00  0.00    +0.000 A 
ATOM     17  C   UNL     1       7.443   5.050  14.060  0.00  0.00    +0.000 A 
ATOM     18  C   UNL     1       6.824   4.479  12.943  0.00  0.00    +0.000 A 
ATOM     19  C   UNL     1       7.527   4.567  11.618  0.00  0.00    +0.000 C 
ATOM     20  C   UNL     1       5.560   3.875  13.095  0.00  0.00    +0.000 A 
ATOM     21  C   UNL     1       4.808   3.266  11.943  0.00  0.00    +0.000 C 
ATOM     22  C   UNL     1       4.937   3.887  14.364  0.00  0.00    +0.000 A 
ENDBRANCH  13  15
ENDBRANCH   4  11
BRANCH   6  23
ATOM     23  N   UNL     1       1.188   7.924  20.301  0.00  0.00    +0.000 N 
ATOM     24  C   UNL     1       1.268   8.813  21.374  0.00  0.00    +0.000 C 
ATOM     25  O   UNL     1       2.092   8.752  22.271  0.00  0.00    +0.000 OA
ATOM     26  H   UNL     1       0.531   8.134  19.567  0.00  0.00    +0.000 HD
BRANCH  24  27
ATOM     27  C   UNL     1       0.225   9.891  21.475  0.00  0.00    +0.000 A 
ATOM     28  C   UNL     1      -0.301  10.075  22.783  0.00  0.00    +0.000 A 
ATOM     29  C   UNL     1      -1.323  10.989  23.056  0.00  0.00    +0.000 A 
ATOM     30  C   UNL     1      -1.813  11.788  22.039  0.00  0.00    +0.000 A 
ATOM     31  C   UNL     1      -1.268  11.679  20.762  0.00  0.00    +0.000 A 
ATOM     32  C   UNL     1      -0.247  10.740  20.453  0.00  0.00    +0.000 A 
BRANCH  32  33
ATOM     33  C   UNL     1       0.226  10.752  19.024  0.00  0.00    +0.000 C 
ATOM     34  F   UNL     1      -0.138   9.692  18.262  0.00  0.00    +0.000 F 
ATOM     35  F   UNL     1      -0.268  11.836  18.357  0.00  0.00    +0.000 F 
ATOM     36  F   UNL     1       1.579  10.828  18.907  0.00  0.00    +0.000 F 
ENDBRANCH  32  33
ENDBRANCH  24  27
ENDBRANCH   6  23
BRANCH   1  37
ATOM     37  C   UNL     1       4.400   1.314  20.604  0.00  0.00    +0.000 C 
BRANCH  37  39
ATOM     38  C   UNL     1       5.905   0.206  22.028  0.00  0.00    +0.000 C 
ATOM     39  O   UNL     1       5.549   1.452  21.443  0.00  0.00    +0.000 OA
ENDBRANCH  37  39
ENDBRANCH   1  37
TORSDOF 7
ENDMDL
MODEL 5
REMARK VINA RESULT:      -8.2      1.224      1.684
REMARK  Name = 
REMARK  10 active torsions:
REMARK  status: ('A' for Active; 'I' for Inactive)
REMARK    1  A    between atoms: C_1  and  O_2
REMARK    2  A    between atoms: O_2  and  C_3
REMARK    3  A    between atoms: C_3  and  C_4
REMARK    4  A    between atoms: C_7  and  C_8
REMARK    5  A    between atoms: N_10  and  C_11
REMARK    6  A    between atoms: C_14  and  C_15
REMARK    7  A    between atoms: C_16  and  C_17
REMARK    8  A    between atoms: C_20  and  N_21
REMARK    9  A    between atoms: C_22  and  C_24
REMARK   10  A    between atoms: C_29  and  C_30
REMARK                            x       y       z     vdW  Elec       q    Type
REMARK                         _______ _______ _______ _____ _____    ______ ____
ROOT
ATOM      1  C   UNL     1       2.131  13.849  18.355  0.00  0.00    +0.000 A 
ATOM      2  N   UNL     1       1.073  13.388  18.982  0.00  0.00    +0.000 NA
ATOM      3  C   UNL     1       1.141  12.013  18.878  0.00  0.00    +0.000 A 
ATOM      4  C   UNL     1       0.289  11.023  19.385  0.00  0.00    +0.000 A 
ATOM      5  C   UNL     1       0.619   9.665  19.164  0.00  0.00    +0.000 A 
ATOM      6  C   UNL     1       1.695   9.293  18.360  0.00  0.00    +0.000 A 
ATOM      7  C   UNL     1       2.538  10.291  17.824  0.00  0.00    +0.000 A 
ATOM      8  C   UNL     1       2.250  11.632  18.132  0.00  0.00    +0.000 A 
ATOM      9  N   UNL     1       2.872  12.819  17.823  0.00  0.00    +0.000 N 
ATOM     10  H   UNL     1       3.725  12.932  17.291  0.00  0.00    +0.000 HD
ENDROOT
BRANCH   4  11
ATOM     11  C   UNL     1      -0.961  11.361  20.112  0.00  0.00    +0.000 C 
ATOM     12  O   UNL     1      -1.130  10.827  21.202  0.00  0.00    +0.000 OA
ATOM     13  N   UNL     1      -1.863  12.198  19.472  0.00  0.00    +0.000 N 
ATOM     14  H   UNL     1      -1.662  12.433  18.501  0.00  0.00    +0.000 HD
BRANCH  13  15
ATOM     15  C   UNL     1      -3.116  12.583  19.994  0.00  0.00    +0.000 A 
ATOM     16  C   UNL     1      -3.238  13.390  21.123  0.00  0.00    +0.000 A 
ATOM     17  C   UNL     1      -4.485  13.651  21.683  0.00  0.00    +0.000 A 
ATOM     18  C   UNL     1      -5.650  13.110  21.127  0.00  0.00    +0.000 A 
ATOM     19  C   UNL     1      -6.953  13.350  21.834  0.00  0.00    +0.000 C 
ATOM     20  C   UNL     1      -5.551  12.340  19.951  0.00  0.00    +0.000 A 
ATOM     21  C   UNL     1      -6.746  11.695  19.302  0.00  0.00    +0.000 C 
ATOM     22  C   UNL     1      -4.280  12.110  19.380  0.00  0.00    +0.000 A 
ENDBRANCH  13  15
ENDBRANCH   4  11
BRANCH   6  23
ATOM     23  N   UNL     1       1.983   7.945  18.015  0.00  0.00    +0.000 N 
ATOM     24  C   UNL     1       2.404   6.915  18.857  0.00  0.00    +0.000 C 
ATOM     25  O   UNL     1       2.670   7.046  20.040  0.00  0.00    +0.000 OA
ATOM     26  H   UNL     1       1.694   7.698  17.082  0.00  0.00    +0.000 HD
BRANCH  24  27
ATOM     27  C   UNL     1       2.611   5.553  18.256  0.00  0.00    +0.000 A 
ATOM     28  C   UNL     1       1.564   4.630  18.528  0.00  0.00    +0.000 A 
ATOM     29  C   UNL     1       1.613   3.298  18.102  0.00  0.00    +0.000 A 
ATOM     30  C   UNL     1       2.686   2.863  17.345  0.00  0.00    +0.000 A 
ATOM     31  C   UNL     1       3.692   3.764  17.005  0.00  0.00    +0.000 A 
ATOM     32  C   UNL     1       3.678   5.115  17.446  0.00  0.00    +0.000 A 
BRANCH  32  33
ATOM     33  C   UNL     1       4.844   5.952  16.990  0.00  0.00    +0.000 C 
ATOM     34  F   UNL     1       5.620   6.484  17.966  0.00  0.00    +0.000 F 
ATOM     35  F   UNL     1       5.708   5.212  16.235  0.00  0.00    +0.000 F 
ATOM     36  F   UNL     1       4.477   7.005  16.212  0.00  0.00    +0.000 F 
ENDBRANCH  32  33
ENDBRANCH  24  27
ENDBRANCH   6  23
BRANCH   1  37
ATOM     37  C   UNL     1       2.527  15.277  18.220  0.00  0.00    +0.000 C 
BRANCH  37  39
ATOM     38  C   UNL     1       4.490  15.607  19.467  0.00  0.00    +0.000 C 
ATOM     39  O   UNL     1       3.956  15.313  18.183  0.00  0.00    +0.000 OA
ENDBRANCH  37  39
ENDBRANCH   1  37
TORSDOF 7
ENDMDL
MODEL 6
REMARK VINA RESULT:      -8.1      2.184      2.776
REMARK  Name = 
REMARK  10 active torsions:
REMARK  status: ('A' for Active; 'I' for Inactive)
REMARK    1  A    between atoms: C_1  and  O_2
REMARK    2  A    between atoms: O_2  and  C_3
REMARK    3  A    between atoms: C_3  and  C_4
REMARK    4  A    between atoms: C_7  and  C_8
REMARK    5  A    between atoms: N_10  and  C_11
REMARK    6  A    between atoms: C_14  and  C_15
REMARK    7  A    between atoms: C_16  and  C_17
REMARK    8  A    between atoms: C_20  and  N_21
REMARK    9  A    between atoms: C_22  and  C_24
REMARK   10  A    between atoms: C_29  and  C_30
REMARK                            x       y       z     vdW  Elec       q    Type
REMARK                         _______ _______ _______ _____ _____    ______ ____
ROOT
ATOM      1  C   UNL     1       1.950  13.271  18.352  0.00  0.00    +0.000 A 
ATOM      2  N   UNL     1       1.105  12.800  19.241  0.00  0.00    +0.000 NA
ATOM      3  C   UNL     1       1.225  11.425  19.185  0.00  0.00    +0.000 A 
ATOM      4  C   UNL     1       0.582  10.429  19.930  0.00  0.00    +0.000 A 
ATOM      5  C   UNL     1       0.926   9.077  19.695  0.00  0.00    +0.000 A 
ATOM      6  C   UNL     1       1.792   8.707  18.668  0.00  0.00    +0.000 A 
ATOM      7  C   UNL     1       2.419   9.711  17.896  0.00  0.00    +0.000 A 
ATOM      8  C   UNL     1       2.139  11.052  18.206  0.00  0.00    +0.000 A 
ATOM      9  N   UNL     1       2.596  12.247  17.700  0.00  0.00    +0.000 N 
ATOM     10  H   UNL     1       3.285  12.367  16.969  0.00  0.00    +0.000 HD
ENDROOT
BRANCH   4  11
ATOM     11  C   UNL     1      -0.470  10.752  20.928  0.00  0.00    +0.000 C 
ATOM     12  O   UNL     1      -0.607   9.969  21.862  0.00  0.00    +0.000 OA
ATOM     13  N   UNL     1      -1.253  11.871  20.687  0.00  0.00    +0.000 N 
ATOM     14  H   UNL     1      -1.132  12.331  19.787  0.00  0.00    +0.000 HD
BRANCH  13  15
ATOM     15  C   UNL     1      -2.324  12.296  21.502  0.00  0.00    +0.000 A 
ATOM     16  C   UNL     1      -2.242  12.314  22.893  0.00  0.00    +0.000 A 
ATOM     17  C   UNL     1      -3.355  12.622  23.670  0.00  0.00    +0.000 A 
ATOM     18  C   UNL     1      -4.585  12.922  23.076  0.00  0.00    +0.000 A 
ATOM     19  C   UNL     1      -5.771  13.150  23.970  0.00  0.00    +0.000 C 
ATOM     20  C   UNL     1      -4.672  12.966  21.669  0.00  0.00    +0.000 A 
ATOM     21  C   UNL     1      -5.960  13.249  20.945  0.00  0.00    +0.000 C 
ATOM     22  C   UNL     1      -3.525  12.679  20.897  0.00  0.00    +0.000 A 
ENDBRANCH  13  15
ENDBRANCH   4  11
BRANCH   6  23
ATOM     23  N   UNL     1       2.065   7.357  18.322  0.00  0.00    +0.000 N 
ATOM     24  C   UNL     1       2.567   6.346  19.143  0.00  0.00    +0.000 C 
ATOM     25  O   UNL     1       2.932   6.501  20.296  0.00  0.00    +0.000 OA
ATOM     26  H   UNL     1       1.700   7.090  17.422  0.00  0.00    +0.000 HD
BRANCH  24  27
ATOM     27  C   UNL     1       2.736   4.975  18.551  0.00  0.00    +0.000 A 
ATOM     28  C   UNL     1       3.697   4.905  17.505  0.00  0.00    +0.000 A 
ATOM     29  C   UNL     1       3.943   3.726  16.794  0.00  0.00    +0.000 A 
ATOM     30  C   UNL     1       3.276   2.566  17.145  0.00  0.00    +0.000 A 
ATOM     31  C   UNL     1       2.381   2.589  18.212  0.00  0.00    +0.000 A 
ATOM     32  C   UNL     1       2.094   3.779  18.932  0.00  0.00    +0.000 A 
BRANCH  32  33
ATOM     33  C   UNL     1       1.100   3.628  20.054  0.00  0.00    +0.000 C 
ATOM     34  F   UNL     1       0.087   2.751  19.844  0.00  0.00    +0.000 F 
ATOM     35  F   UNL     1       1.711   3.177  21.188  0.00  0.00    +0.000 F 
ATOM     36  F   UNL     1       0.496   4.797  20.396  0.00  0.00    +0.000 F 
ENDBRANCH  32  33
ENDBRANCH  24  27
ENDBRANCH   6  23
BRANCH   1  37
ATOM     37  C   UNL     1       2.217  14.706  18.060  0.00  0.00    +0.000 C 
BRANCH  37  39
ATOM     38  C   UNL     1       4.524  15.144  18.015  0.00  0.00    +0.000 C 
ATOM     39  O   UNL     1       3.362  15.082  18.830  0.00  0.00    +0.000 OA
ENDBRANCH  37  39
ENDBRANCH   1  37
TORSDOF 7
ENDMDL
MODEL 7
REMARK VINA RESULT:      -8.0      4.093     11.254
REMARK  Name = 
REMARK  10 active torsions:
REMARK  status: ('A' for Active; 'I' for Inactive)
REMARK    1  A    between atoms: C_1  and  O_2
REMARK    2  A    between atoms: O_2  and  C_3
REMARK    3  A    between atoms: C_3  and  C_4
REMARK    4  A    between atoms: C_7  and  C_8
REMARK    5  A    between atoms: N_10  and  C_11
REMARK    6  A    between atoms: C_14  and  C_15
REMARK    7  A    between atoms: C_16  and  C_17
REMARK    8  A    between atoms: C_20  and  N_21
REMARK    9  A    between atoms: C_22  and  C_24
REMARK   10  A    between atoms: C_29  and  C_30
REMARK                            x       y       z     vdW  Elec       q    Type
REMARK                         _______ _______ _______ _____ _____    ______ ____
ROOT
ATOM      1  C   UNL     1       4.169   2.745  19.930  0.00  0.00    +0.000 A 
ATOM      2  N   UNL     1       4.512   3.445  18.872  0.00  0.00    +0.000 NA
ATOM      3  C   UNL     1       3.841   4.647  18.979  0.00  0.00    +0.000 A 
ATOM      4  C   UNL     1       3.858   5.772  18.145  0.00  0.00    +0.000 A 
ATOM      5  C   UNL     1       3.095   6.904  18.516  0.00  0.00    +0.000 A 
ATOM      6  C   UNL     1       2.242   6.885  19.617  0.00  0.00    +0.000 A 
ATOM      7  C   UNL     1       2.202   5.740  20.444  0.00  0.00    +0.000 A 
ATOM      8  C   UNL     1       3.037   4.660  20.114  0.00  0.00    +0.000 A 
ATOM      9  N   UNL     1       3.276   3.443  20.709  0.00  0.00    +0.000 N 
ATOM     10  H   UNL     1       2.866   3.102  21.569  0.00  0.00    +0.000 HD
ENDROOT
BRANCH   4  11
ATOM     11  C   UNL     1       4.623   5.792  16.872  0.00  0.00    +0.000 C 
ATOM     12  O   UNL     1       4.849   6.890  16.379  0.00  0.00    +0.000 OA
ATOM     13  N   UNL     1       4.958   4.567  16.311  0.00  0.00    +0.000 N 
ATOM     14  H   UNL     1       4.560   3.738  16.748  0.00  0.00    +0.000 HD
BRANCH  13  15
ATOM     15  C   UNL     1       5.638   4.401  15.086  0.00  0.00    +0.000 A 
ATOM     16  C   UNL     1       6.923   4.895  14.872  0.00  0.00    +0.000 A 
ATOM     17  C   UNL     1       7.517   4.822  13.616  0.00  0.00    +0.000 A 
ATOM     18  C   UNL     1       6.840   4.248  12.534  0.00  0.00    +0.000 A 
ATOM     19  C   UNL     1       7.497   4.286  11.184  0.00  0.00    +0.000 C 
ATOM     20  C   UNL     1       5.564   3.690  12.745  0.00  0.00    +0.000 A 
ATOM     21  C   UNL     1       4.751   3.081  11.634  0.00  0.00    +0.000 C 
ATOM     22  C   UNL     1       4.988   3.748  14.034  0.00  0.00    +0.000 A 
ENDBRANCH  13  15
ENDBRANCH   4  11
BRANCH   6  23
ATOM     23  N   UNL     1       1.370   7.956  19.949  0.00  0.00    +0.000 N 
ATOM     24  C   UNL     1       1.273   9.205  19.334  0.00  0.00    +0.000 C 
ATOM     25  O   UNL     1       2.003   9.602  18.442  0.00  0.00    +0.000 OA
ATOM     26  H   UNL     1       0.648   7.700  20.604  0.00  0.00    +0.000 HD
BRANCH  24  27
ATOM     27  C   UNL     1       0.237  10.166  19.848  0.00  0.00    +0.000 A 
ATOM     28  C   UNL     1      -0.346  10.988  18.846  0.00  0.00    +0.000 A 
ATOM     29  C   UNL     1      -1.283  11.982  19.146  0.00  0.00    +0.000 A 
ATOM     30  C   UNL     1      -1.706  12.148  20.452  0.00  0.00    +0.000 A 
ATOM     31  C   UNL     1      -1.204  11.310  21.445  0.00  0.00    +0.000 A 
ATOM     32  C   UNL     1      -0.232  10.310  21.170  0.00  0.00    +0.000 A 
BRANCH  32  33
ATOM     33  C   UNL     1       0.205   9.495  22.359  0.00  0.00    +0.000 C 
ATOM     34  F   UNL     1      -0.214   9.931  23.572  0.00  0.00    +0.000 F 
ATOM     35  F   UNL     1      -0.267   8.218  22.274  0.00  0.00    +0.000 F 
ATOM     36  F   UNL     1       1.556   9.386  22.466  0.00  0.00    +0.000 F 
ENDBRANCH  32  33
ENDBRANCH  24  27
ENDBRANCH   6  23
BRANCH   1  37
ATOM     37  C   UNL     1       4.660   1.387  20.288  0.00  0.00    +0.000 C 
BRANCH  37  39
ATOM     38  C   UNL     1       5.938   0.270  21.914  0.00  0.00    +0.000 C 
ATOM     39  O   UNL     1       5.361   1.511  21.529  0.00  0.00    +0.000 OA
ENDBRANCH  37  39
ENDBRANCH   1  37
TORSDOF 7
ENDMDL
MODEL 8
REMARK VINA RESULT:      -8.0      2.403      2.800
REMARK  Name = 
REMARK  10 active torsions:
REMARK  status: ('A' for Active; 'I' for Inactive)
REMARK    1  A    between atoms: C_1  and  O_2
REMARK    2  A    between atoms: O_2  and  C_3
REMARK    3  A    between atoms: C_3  and  C_4
REMARK    4  A    between atoms: C_7  and  C_8
REMARK    5  A    between atoms: N_10  and  C_11
REMARK    6  A    between atoms: C_14  and  C_15
REMARK    7  A    between atoms: C_16  and  C_17
REMARK    8  A    between atoms: C_20  and  N_21
REMARK    9  A    between atoms: C_22  and  C_24
REMARK   10  A    between atoms: C_29  and  C_30
REMARK                            x       y       z     vdW  Elec       q    Type
REMARK                         _______ _______ _______ _____ _____    ______ ____
ROOT
ATOM      1  C   UNL     1       2.231  13.093  18.175  0.00  0.00    +0.000 A 
ATOM      2  N   UNL     1       1.530  12.813  19.250  0.00  0.00    +0.000 NA
ATOM      3  C   UNL     1       1.494  11.434  19.330  0.00  0.00    +0.000 A 
ATOM      4  C   UNL     1       0.908  10.597  20.287  0.00  0.00    +0.000 A 
ATOM      5  C   UNL     1       1.058   9.198  20.149  0.00  0.00    +0.000 A 
ATOM      6  C   UNL     1       1.668   8.632  19.031  0.00  0.00    +0.000 A 
ATOM      7  C   UNL     1       2.234   9.475  18.049  0.00  0.00    +0.000 A 
ATOM      8  C   UNL     1       2.159  10.864  18.250  0.00  0.00    +0.000 A 
ATOM      9  N   UNL     1       2.631  11.942  17.538  0.00  0.00    +0.000 N 
ATOM     10  H   UNL     1       3.174  11.909  16.685  0.00  0.00    +0.000 HD
ENDROOT
BRANCH   4  11
ATOM     11  C   UNL     1       0.107  11.137  21.416  0.00  0.00    +0.000 C 
ATOM     12  O   UNL     1       0.159  10.525  22.476  0.00  0.00    +0.000 OA
ATOM     13  N   UNL     1      -0.685  12.248  21.160  0.00  0.00    +0.000 N 
ATOM     14  H   UNL     1      -0.753  12.550  20.190  0.00  0.00    +0.000 HD
BRANCH  13  15
ATOM     15  C   UNL     1      -1.541  12.860  22.099  0.00  0.00    +0.000 A 
ATOM     16  C   UNL     1      -2.917  12.641  22.109  0.00  0.00    +0.000 A 
ATOM     17  C   UNL     1      -3.749  13.353  22.968  0.00  0.00    +0.000 A 
ATOM     18  C   UNL     1      -3.225  14.307  23.846  0.00  0.00    +0.000 A 
ATOM     19  C   UNL     1      -4.184  15.110  24.679  0.00  0.00    +0.000 C 
ATOM     20  C   UNL     1      -1.829  14.500  23.893  0.00  0.00    +0.000 A 
ATOM     21  C   UNL     1      -1.182  15.526  24.783  0.00  0.00    +0.000 C 
ATOM     22  C   UNL     1      -0.999  13.748  23.033  0.00  0.00    +0.000 A 
ENDBRANCH  13  15
ENDBRANCH   4  11
BRANCH   6  23
ATOM     23  N   UNL     1       1.728   7.232  18.797  0.00  0.00    +0.000 N 
ATOM     24  C   UNL     1       2.863   6.422  18.731  0.00  0.00    +0.000 C 
ATOM     25  O   UNL     1       4.012   6.825  18.788  0.00  0.00    +0.000 OA
ATOM     26  H   UNL     1       0.830   6.777  18.842  0.00  0.00    +0.000 HD
BRANCH  24  27
ATOM     27  C   UNL     1       2.665   4.949  18.507  0.00  0.00    +0.000 A 
ATOM     28  C   UNL     1       3.221   4.462  17.292  0.00  0.00    +0.000 A 
ATOM     29  C   UNL     1       3.081   3.131  16.887  0.00  0.00    +0.000 A 
ATOM     30  C   UNL     1       2.428   2.232  17.710  0.00  0.00    +0.000 A 
ATOM     31  C   UNL     1       1.934   2.665  18.939  0.00  0.00    +0.000 A 
ATOM     32  C   UNL     1       2.041   4.017  19.362  0.00  0.00    +0.000 A 
BRANCH  32  33
ATOM     33  C   UNL     1       1.451   4.315  20.716  0.00  0.00    +0.000 C 
ATOM     34  F   UNL     1       0.421   5.195  20.741  0.00  0.00    +0.000 F 
ATOM     35  F   UNL     1       0.946   3.183  21.286  0.00  0.00    +0.000 F 
ATOM     36  F   UNL     1       2.360   4.804  21.601  0.00  0.00    +0.000 F 
ENDBRANCH  32  33
ENDBRANCH  24  27
ENDBRANCH   6  23
BRANCH   1  37
ATOM     37  C   UNL     1       2.583  14.451  17.679  0.00  0.00    +0.000 C 
BRANCH  37  39
ATOM     38  C   UNL     1       2.694  16.656  18.481  0.00  0.00    +0.000 C 
ATOM     39  O   UNL     1       2.069  15.389  18.628  0.00  0.00    +0.000 OA
ENDBRANCH  37  39
ENDBRANCH   1  37
TORSDOF 7
ENDMDL
MODEL 9
REMARK VINA RESULT:      -8.0      2.789      4.290
REMARK  Name = 
REMARK  10 active torsions:
REMARK  status: ('A' for Active; 'I' for Inactive)
REMARK    1  A    between atoms: C_1  and  O_2
REMARK    2  A    between atoms: O_2  and  C_3
REMARK    3  A    between atoms: C_3  and  C_4
REMARK    4  A    between atoms: C_7  and  C_8
REMARK    5  A    between atoms: N_10  and  C_11
REMARK    6  A    between atoms: C_14  and  C_15
REMARK    7  A    between atoms: C_16  and  C_17
REMARK    8  A    between atoms: C_20  and  N_21
REMARK    9  A    between atoms: C_22  and  C_24
REMARK   10  A    between atoms: C_29  and  C_30
REMARK                            x       y       z     vdW  Elec       q    Type
REMARK                         _______ _______ _______ _____ _____    ______ ____
ROOT
ATOM      1  C   UNL     1      -3.294  11.300  17.899  0.00  0.00    +0.000 A 
ATOM      2  N   UNL     1      -2.561  11.621  18.942  0.00  0.00    +0.000 NA
ATOM      3  C   UNL     1      -1.375  10.928  18.799  0.00  0.00    +0.000 A 
ATOM      4  C   UNL     1      -0.229  10.918  19.605  0.00  0.00    +0.000 A 
ATOM      5  C   UNL     1       0.878  10.137  19.199  0.00  0.00    +0.000 A 
ATOM      6  C   UNL     1       0.816   9.293  18.092  0.00  0.00    +0.000 A 
ATOM      7  C   UNL     1      -0.350   9.281  17.295  0.00  0.00    +0.000 A 
ATOM      8  C   UNL     1      -1.406  10.134  17.658  0.00  0.00    +0.000 A 
ATOM      9  N   UNL     1      -2.633  10.400  17.096  0.00  0.00    +0.000 N 
ATOM     10  H   UNL     1      -3.002  10.004  16.242  0.00  0.00    +0.000 HD
ENDROOT
BRANCH   4  11
ATOM     11  C   UNL     1      -0.163  11.671  20.883  0.00  0.00    +0.000 C 
ATOM     12  O   UNL     1       0.641  11.275  21.719  0.00  0.00    +0.000 OA
ATOM     13  N   UNL     1      -1.060  12.716  21.054  0.00  0.00    +0.000 N 
ATOM     14  H   UNL     1      -1.779  12.824  20.341  0.00  0.00    +0.000 HD
BRANCH  13  15
ATOM     15  C   UNL     1      -1.167  13.504  22.219  0.00  0.00    +0.000 A 
ATOM     16  C   UNL     1      -2.134  13.267  23.194  0.00  0.00    +0.000 A 
ATOM     17  C   UNL     1      -2.291  14.135  24.270  0.00  0.00    +0.000 A 
ATOM     18  C   UNL     1      -1.482  15.269  24.402  0.00  0.00    +0.000 A 
ATOM     19  C   UNL     1      -1.765  16.217  25.532  0.00  0.00    +0.000 C 
ATOM     20  C   UNL     1      -0.460  15.493  23.458  0.00  0.00    +0.000 A 
ATOM     21  C   UNL     1       0.436  16.701  23.503  0.00  0.00    +0.000 C 
ATOM     22  C   UNL     1      -0.297  14.585  22.388  0.00  0.00    +0.000 A 
ENDBRANCH  13  15
ENDBRANCH   4  11
BRANCH   6  23
ATOM     23  N   UNL     1       1.862   8.404  17.726  0.00  0.00    +0.000 N 
ATOM     24  C   UNL     1       2.419   7.377  18.489  0.00  0.00    +0.000 C 
ATOM     25  O   UNL     1       2.134   7.135  19.649  0.00  0.00    +0.000 OA
ATOM     26  H   UNL     1       2.099   8.443  16.748  0.00  0.00    +0.000 HD
BRANCH  24  27
ATOM     27  C   UNL     1       3.500   6.541  17.862  0.00  0.00    +0.000 A 
ATOM     28  C   UNL     1       4.715   7.239  17.624  0.00  0.00    +0.000 A 
ATOM     29  C   UNL     1       5.810   6.641  16.991  0.00  0.00    +0.000 A 
ATOM     30  C   UNL     1       5.743   5.308  16.627  0.00  0.00    +0.000 A 
ATOM     31  C   UNL     1       4.590   4.579  16.912  0.00  0.00    +0.000 A 
ATOM     32  C   UNL     1       3.455   5.171  17.530  0.00  0.00    +0.000 A 
BRANCH  32  33
ATOM     33  C   UNL     1       2.293   4.242  17.762  0.00  0.00    +0.000 C 
ATOM     34  F   UNL     1       1.091   4.654  17.289  0.00  0.00    +0.000 F 
ATOM     35  F   UNL     1       2.503   3.038  17.154  0.00  0.00    +0.000 F 
ATOM     36  F   UNL     1       2.083   3.964  19.076  0.00  0.00    +0.000 F 
ENDBRANCH  32  33
ENDBRANCH  24  27
ENDBRANCH   6  23
BRANCH   1  37
ATOM     37  C   UNL     1      -4.650  11.820  17.579  0.00  0.00    +0.000 C 
BRANCH  37  39
ATOM     38  C   UNL     1      -6.350  10.703  18.756  0.00  0.00    +0.000 C 
ATOM     39  O   UNL     1      -5.412  11.771  18.788  0.00  0.00    +0.000 OA
ENDBRANCH  37  39
ENDBRANCH   1  37
TORSDOF 7
ENDMDL
