MODEL 1
REMARK VINA RESULT:      -7.6      0.000      0.000
REMARK  Name = 
REMARK  7 active torsions:
REMARK  status: ('A' for Active; 'I' for Inactive)
REMARK    1  A    between atoms: C_2  and  C_13
REMARK    2  A    between atoms: N_3  and  CA_4
REMARK    3  A    between atoms: CA_4  and  C_5
REMARK    4  A    between atoms: CA_4  and  C_7
REMARK    5  A    between atoms: C_5  and  O_6
REMARK    6  A    between atoms: C_7  and  C_8
REMARK    7  A    between atoms: C_16  and  C_17
REMARK                            x       y       z     vdW  Elec       q    Type
REMARK                         _______ _______ _______ _____ _____    ______ ____
ROOT
ATOM      1  O   UNL     1       5.859   5.060  18.033  0.00  0.00    +0.000 OA
ATOM      2  C   UNL     1       5.555   4.274  17.138  0.00  0.00    +0.000 C 
ATOM      3  N   UNL     1       4.577   3.320  17.297  0.00  0.00    +0.000 N 
ATOM      4  H   UNL     1       4.379   2.705  16.524  0.00  0.00    +0.000 HD
ENDROOT
BRANCH   2   5
ATOM      5  C   UNL     1       6.166   4.332  15.811  0.00  0.00    +0.000 A 
ATOM      6  C   UNL     1       7.174   5.221  15.473  0.00  0.00    +0.000 A 
ATOM      7  N   UNL     1       7.460   5.088  14.141  0.00  0.00    +0.000 N 
ATOM      8  C   UNL     1       6.646   4.127  13.589  0.00  0.00    +0.000 A 
ATOM      9  C   UNL     1       5.876   3.609  14.613  0.00  0.00    +0.000 A 
ATOM     10  H   UNL     1       8.138   5.646  13.631  0.00  0.00    +0.000 HD
BRANCH   8  11
ATOM     11  C   UNL     1       6.671   3.840  12.137  0.00  0.00    +0.000 C 
ATOM     12  F   UNL     1       7.332   4.804  11.448  0.00  0.00    +0.000 F 
ATOM     13  F   UNL     1       7.282   2.663  11.869  0.00  0.00    +0.000 F 
ATOM     14  F   UNL     1       5.419   3.774  11.625  0.00  0.00    +0.000 F 
ENDBRANCH   8  11
ENDBRANCH   2   5
BRANCH   3  15
ATOM     15  CA  UNL     1       3.742   3.180  18.497  0.00  0.00    +0.000 C 
BRANCH  15  16
ATOM     16  C   UNL     1       3.971   1.829  19.212  0.00  0.00    +0.000 C 
BRANCH  16  17
ATOM     17  O   UNL     1       5.123   1.807  20.045  0.00  0.00    +0.000 OA
ATOM     18  H   UNL     1       5.890   2.106  19.508  0.00  0.00    +0.000 HD
ENDBRANCH  16  17
ENDBRANCH  15  16
BRANCH  15  19
ATOM     19  C   UNL     1       2.260   3.491  18.205  0.00  0.00    +0.000 C 
BRANCH  19  20
ATOM     20  C   UNL     1       1.768   4.805  18.823  0.00  0.00    +0.000 C 
ATOM     21  C   UNL     1       1.960   4.897  20.335  0.00  0.00    +0.000 C 
ATOM     22  C   UNL     1       1.818   6.384  20.628  0.00  0.00    +0.000 C 
ATOM     23  C   UNL     1       2.302   7.105  19.371  0.00  0.00    +0.000 C 
ATOM     24  C   UNL     1       2.549   6.021  18.322  0.00  0.00    +0.000 C 
ENDBRANCH  19  20
ENDBRANCH  15  19
ENDBRANCH   3  15
TORSDOF 7
ENDMDL
MODEL 2
REMARK VINA RESULT:      -7.3      0.843      1.448
REMARK  Name = 
REMARK  7 active torsions:
REMARK  status: ('A' for Active; 'I' for Inactive)
REMARK    1  A    between atoms: C_2  and  C_13
REMARK    2  A    between atoms: N_3  and  CA_4
REMARK    3  A    between atoms: CA_4  and  C_5
REMARK    4  A    between atoms: CA_4  and  C_7
REMARK    5  A    between atoms: C_5  and  O_6
REMARK    6  A    between atoms: C_7  and  C_8
REMARK    7  A    between atoms: C_16  and  C_17
REMARK                            x       y       z     vdW  Elec       q    Type
REMARK                         _______ _______ _______ _____ _____    ______ ____
ROOT
ATOM      1  O   UNL     1       6.335   5.222  18.458  0.00  0.00    +0.000 OA
ATOM      2  C   UNL     1       5.904   4.410  17.643  0.00  0.00    +0.000 C 
ATOM      3  N   UNL     1       4.956   3.469  17.972  0.00  0.00    +0.000 N 
ATOM      4  H   UNL     1       4.647   2.830  17.256  0.00  0.00    +0.000 HD
ENDROOT
BRANCH   2   5
ATOM      5  C   UNL     1       6.317   4.422  16.241  0.00  0.00    +0.000 A 
ATOM      6  C   UNL     1       7.214   5.339  15.716  0.00  0.00    +0.000 A 
ATOM      7  N   UNL     1       7.317   5.143  14.366  0.00  0.00    +0.000 N 
ATOM      8  C   UNL     1       6.490   4.112  13.986  0.00  0.00    +0.000 A 
ATOM      9  C   UNL     1       5.903   3.616  15.135  0.00  0.00    +0.000 A 
ATOM     10  H   UNL     1       7.883   5.703  13.736  0.00  0.00    +0.000 HD
BRANCH   8  11
ATOM     11  C   UNL     1       6.327   3.742  12.562  0.00  0.00    +0.000 C 
ATOM     12  F   UNL     1       5.049   3.921  12.142  0.00  0.00    +0.000 F 
ATOM     13  F   UNL     1       7.122   4.482  11.756  0.00  0.00    +0.000 F 
ATOM     14  F   UNL     1       6.635   2.440  12.351  0.00  0.00    +0.000 F 
ENDBRANCH   8  11
ENDBRANCH   2   5
BRANCH   3  15
ATOM     15  CA  UNL     1       4.303   3.373  19.284  0.00  0.00    +0.000 C 
BRANCH  15  16
ATOM     16  C   UNL     1       4.284   1.924  19.822  0.00  0.00    +0.000 C 
BRANCH  16  17
ATOM     17  O   UNL     1       4.378   0.933  18.807  0.00  0.00    +0.000 OA
ATOM     18  H   UNL     1       5.328   0.809  18.591  0.00  0.00    +0.000 HD
ENDBRANCH  16  17
ENDBRANCH  15  16
BRANCH  15  19
ATOM     19  C   UNL     1       2.923   4.061  19.290  0.00  0.00    +0.000 C 
BRANCH  19  20
ATOM     20  C   UNL     1       2.988   5.582  19.477  0.00  0.00    +0.000 C 
ATOM     21  C   UNL     1       2.687   6.383  18.211  0.00  0.00    +0.000 C 
ATOM     22  C   UNL     1       2.388   7.781  18.731  0.00  0.00    +0.000 C 
ATOM     23  C   UNL     1       1.798   7.590  20.127  0.00  0.00    +0.000 C 
ATOM     24  C   UNL     1       1.929   6.102  20.450  0.00  0.00    +0.000 C 
ENDBRANCH  19  20
ENDBRANCH  15  19
ENDBRANCH   3  15
TORSDOF 7
ENDMDL
MODEL 3
REMARK VINA RESULT:      -7.2      1.722      2.413
REMARK  Name = 
REMARK  7 active torsions:
REMARK  status: ('A' for Active; 'I' for Inactive)
REMARK    1  A    between atoms: C_2  and  C_13
REMARK    2  A    between atoms: N_3  and  CA_4
REMARK    3  A    between atoms: CA_4  and  C_5
REMARK    4  A    between atoms: CA_4  and  C_7
REMARK    5  A    between atoms: C_5  and  O_6
REMARK    6  A    between atoms: C_7  and  C_8
REMARK    7  A    between atoms: C_16  and  C_17
REMARK                            x       y       z     vdW  Elec       q    Type
REMARK                         _______ _______ _______ _____ _____    ______ ____
ROOT
ATOM      1  O   UNL     1       7.283   6.185  16.272  0.00  0.00    +0.000 OA
ATOM      2  C   UNL     1       6.348   5.451  15.961  0.00  0.00    +0.000 C 
ATOM      3  N   UNL     1       5.270   5.241  16.789  0.00  0.00    +0.000 N 
ATOM      4  H   UNL     1       4.537   4.624  16.474  0.00  0.00    +0.000 HD
ENDROOT
BRANCH   2   5
ATOM      5  C   UNL     1       6.275   4.795  14.656  0.00  0.00    +0.000 A 
ATOM      6  C   UNL     1       7.295   4.843  13.719  0.00  0.00    +0.000 A 
ATOM      7  N   UNL     1       6.883   4.214  12.576  0.00  0.00    +0.000 N 
ATOM      8  C   UNL     1       5.596   3.757  12.741  0.00  0.00    +0.000 A 
ATOM      9  C   UNL     1       5.220   4.057  14.036  0.00  0.00    +0.000 A 
ATOM     10  H   UNL     1       7.428   4.137  11.722  0.00  0.00    +0.000 HD
BRANCH   8  11
ATOM     11  C   UNL     1       4.859   3.117  11.627  0.00  0.00    +0.000 C 
ATOM     12  F   UNL     1       5.427   1.941  11.262  0.00  0.00    +0.000 F 
ATOM     13  F   UNL     1       3.574   2.857  11.960  0.00  0.00    +0.000 F 
ATOM     14  F   UNL     1       4.841   3.908  10.528  0.00  0.00    +0.000 F 
ENDBRANCH   8  11
ENDBRANCH   2   5
BRANCH   3  15
ATOM     15  CA  UNL     1       5.073   5.911  18.080  0.00  0.00    +0.000 C 
BRANCH  15  16
ATOM     16  C   UNL     1       5.841   5.212  19.225  0.00  0.00    +0.000 C 
BRANCH  16  17
ATOM     17  O   UNL     1       6.067   3.826  19.002  0.00  0.00    +0.000 OA
ATOM     18  H   UNL     1       5.220   3.424  18.708  0.00  0.00    +0.000 HD
ENDBRANCH  16  17
ENDBRANCH  15  16
BRANCH  15  19
ATOM     19  C   UNL     1       3.579   6.148  18.383  0.00  0.00    +0.000 C 
BRANCH  19  20
ATOM     20  C   UNL     1       2.880   4.947  19.030  0.00  0.00    +0.000 C 
ATOM     21  C   UNL     1       1.973   5.308  20.205  0.00  0.00    +0.000 C 
ATOM     22  C   UNL     1       1.096   4.077  20.378  0.00  0.00    +0.000 C 
ATOM     23  C   UNL     1       0.969   3.457  18.987  0.00  0.00    +0.000 C 
ATOM     24  C   UNL     1       1.911   4.244  18.078  0.00  0.00    +0.000 C 
ENDBRANCH  19  20
ENDBRANCH  15  19
ENDBRANCH   3  15
TORSDOF 7
ENDMDL
MODEL 4
REMARK VINA RESULT:      -7.0      1.682      2.378
REMARK  Name = 
REMARK  7 active torsions:
REMARK  status: ('A' for Active; 'I' for Inactive)
REMARK    1  A    between atoms: C_2  and  C_13
REMARK    2  A    between atoms: N_3  and  CA_4
REMARK    3  A    between atoms: CA_4  and  C_5
REMARK    4  A    between atoms: CA_4  and  C_7
REMARK    5  A    between atoms: C_5  and  O_6
REMARK    6  A    between atoms: C_7  and  C_8
REMARK    7  A    between atoms: C_16  and  C_17
REMARK                            x       y       z     vdW  Elec       q    Type
REMARK                         _______ _______ _______ _____ _____    ______ ____
ROOT
ATOM      1  O   UNL     1       5.866   5.355  19.699  0.00  0.00    +0.000 OA
ATOM      2  C   UNL     1       5.330   4.657  18.841  0.00  0.00    +0.000 C 
ATOM      3  N   UNL     1       4.113   4.049  19.041  0.00  0.00    +0.000 N 
ATOM      4  H   UNL     1       3.731   3.487  18.296  0.00  0.00    +0.000 HD
ENDROOT
BRANCH   2   5
ATOM      5  C   UNL     1       5.915   4.471  17.514  0.00  0.00    +0.000 A 
ATOM      6  C   UNL     1       7.259   4.666  17.237  0.00  0.00    +0.000 A 
ATOM      7  N   UNL     1       7.468   4.505  15.894  0.00  0.00    +0.000 N 
ATOM      8  C   UNL     1       6.275   4.215  15.275  0.00  0.00    +0.000 A 
ATOM      9  C   UNL     1       5.312   4.136  16.263  0.00  0.00    +0.000 A 
ATOM     10  H   UNL     1       8.359   4.626  15.423  0.00  0.00    +0.000 HD
BRANCH   8  11
ATOM     11  C   UNL     1       6.186   4.082  13.803  0.00  0.00    +0.000 C 
ATOM     12  F   UNL     1       6.452   2.815  13.398  0.00  0.00    +0.000 F 
ATOM     13  F   UNL     1       4.953   4.399  13.344  0.00  0.00    +0.000 F 
ATOM     14  F   UNL     1       7.072   4.893  13.179  0.00  0.00    +0.000 F 
ENDBRANCH   8  11
ENDBRANCH   2   5
BRANCH   3  15
ATOM     15  CA  UNL     1       3.288   4.218  20.244  0.00  0.00    +0.000 C 
BRANCH  15  16
ATOM     16  C   UNL     1       2.915   2.865  20.891  0.00  0.00    +0.000 C 
BRANCH  16  17
ATOM     17  O   UNL     1       2.239   2.990  22.136  0.00  0.00    +0.000 OA
ATOM     18  H   UNL     1       1.570   2.272  22.190  0.00  0.00    +0.000 HD
ENDBRANCH  16  17
ENDBRANCH  15  16
BRANCH  15  19
ATOM     19  C   UNL     1       2.081   5.143  19.988  0.00  0.00    +0.000 C 
BRANCH  19  20
ATOM     20  C   UNL     1       2.468   6.569  19.578  0.00  0.00    +0.000 C 
ATOM     21  C   UNL     1       2.297   6.863  18.089  0.00  0.00    +0.000 C 
ATOM     22  C   UNL     1       2.315   8.383  18.016  0.00  0.00    +0.000 C 
ATOM     23  C   UNL     1       1.748   8.872  19.347  0.00  0.00    +0.000 C 
ATOM     24  C   UNL     1       1.576   7.631  20.223  0.00  0.00    +0.000 C 
ENDBRANCH  19  20
ENDBRANCH  15  19
ENDBRANCH   3  15
TORSDOF 7
ENDMDL
MODEL 5
REMARK VINA RESULT:      -7.0      0.803      1.280
REMARK  Name = 
REMARK  7 active torsions:
REMARK  status: ('A' for Active; 'I' for Inactive)
REMARK    1  A    between atoms: C_2  and  C_13
REMARK    2  A    between atoms: N_3  and  CA_4
REMARK    3  A    between atoms: CA_4  and  C_5
REMARK    4  A    between atoms: CA_4  and  C_7
REMARK    5  A    between atoms: C_5  and  O_6
REMARK    6  A    between atoms: C_7  and  C_8
REMARK    7  A    between atoms: C_16  and  C_17
REMARK                            x       y       z     vdW  Elec       q    Type
REMARK                         _______ _______ _______ _____ _____    ______ ____
ROOT
ATOM      1  O   UNL     1       5.614   6.047  17.864  0.00  0.00    +0.000 OA
ATOM      2  C   UNL     1       5.547   4.950  17.316  0.00  0.00    +0.000 C 
ATOM      3  N   UNL     1       4.878   3.886  17.876  0.00  0.00    +0.000 N 
ATOM      4  H   UNL     1       4.864   3.012  17.374  0.00  0.00    +0.000 HD
ENDROOT
BRANCH   2   5
ATOM      5  C   UNL     1       6.116   4.706  15.991  0.00  0.00    +0.000 A 
ATOM      6  C   UNL     1       7.302   5.274  15.553  0.00  0.00    +0.000 A 
ATOM      7  N   UNL     1       7.509   4.926  14.246  0.00  0.00    +0.000 N 
ATOM      8  C   UNL     1       6.469   4.141  13.808  0.00  0.00    +0.000 A 
ATOM      9  C   UNL     1       5.623   3.948  14.885  0.00  0.00    +0.000 A 
ATOM     10  H   UNL     1       8.289   5.238  13.675  0.00  0.00    +0.000 HD
BRANCH   8  11
ATOM     11  C   UNL     1       6.382   3.695  12.399  0.00  0.00    +0.000 C 
ATOM     12  F   UNL     1       7.029   4.547  11.564  0.00  0.00    +0.000 F 
ATOM     13  F   UNL     1       6.929   2.470  12.226  0.00  0.00    +0.000 F 
ATOM     14  F   UNL     1       5.096   3.628  11.980  0.00  0.00    +0.000 F 
ENDBRANCH   8  11
ENDBRANCH   2   5
BRANCH   3  15
ATOM     15  CA  UNL     1       4.117   3.953  19.130  0.00  0.00    +0.000 C 
BRANCH  15  16
ATOM     16  C   UNL     1       4.012   2.574  19.823  0.00  0.00    +0.000 C 
BRANCH  16  17
ATOM     17  O   UNL     1       5.216   1.818  19.783  0.00  0.00    +0.000 OA
ATOM     18  H   UNL     1       5.150   1.108  20.459  0.00  0.00    +0.000 HD
ENDBRANCH  16  17
ENDBRANCH  15  16
BRANCH  15  19
ATOM     19  C   UNL     1       2.762   4.664  18.943  0.00  0.00    +0.000 C 
BRANCH  19  20
ATOM     20  C   UNL     1       2.745   6.110  19.451  0.00  0.00    +0.000 C 
ATOM     21  C   UNL     1       2.326   7.139  18.402  0.00  0.00    +0.000 C 
ATOM     22  C   UNL     1       1.972   8.370  19.224  0.00  0.00    +0.000 C 
ATOM     23  C   UNL     1       1.473   7.845  20.569  0.00  0.00    +0.000 C 
ATOM     24  C   UNL     1       1.711   6.335  20.556  0.00  0.00    +0.000 C 
ENDBRANCH  19  20
ENDBRANCH  15  19
ENDBRANCH   3  15
TORSDOF 7
ENDMDL
MODEL 6
REMARK VINA RESULT:      -7.0      2.058      2.781
REMARK  Name = 
REMARK  7 active torsions:
REMARK  status: ('A' for Active; 'I' for Inactive)
REMARK    1  A    between atoms: C_2  and  C_13
REMARK    2  A    between atoms: N_3  and  CA_4
REMARK    3  A    between atoms: CA_4  and  C_5
REMARK    4  A    between atoms: CA_4  and  C_7
REMARK    5  A    between atoms: C_5  and  O_6
REMARK    6  A    between atoms: C_7  and  C_8
REMARK    7  A    between atoms: C_16  and  C_17
REMARK                            x       y       z     vdW  Elec       q    Type
REMARK                         _______ _______ _______ _____ _____    ______ ____
ROOT
ATOM      1  O   UNL     1       6.120   6.763  15.945  0.00  0.00    +0.000 OA
ATOM      2  C   UNL     1       6.217   5.539  15.886  0.00  0.00    +0.000 C 
ATOM      3  N   UNL     1       6.347   4.756  17.008  0.00  0.00    +0.000 N 
ATOM      4  H   UNL     1       6.425   3.758  16.889  0.00  0.00    +0.000 HD
ENDROOT
BRANCH   2   5
ATOM      5  C   UNL     1       6.136   4.814  14.619  0.00  0.00    +0.000 A 
ATOM      6  C   UNL     1       7.197   4.697  13.736  0.00  0.00    +0.000 A 
ATOM      7  N   UNL     1       6.774   4.044  12.610  0.00  0.00    +0.000 N 
ATOM      8  C   UNL     1       5.440   3.736  12.732  0.00  0.00    +0.000 A 
ATOM      9  C   UNL     1       5.037   4.154  13.986  0.00  0.00    +0.000 A 
ATOM     10  H   UNL     1       7.347   3.858  11.793  0.00  0.00    +0.000 HD
BRANCH   8  11
ATOM     11  C   UNL     1       4.691   3.108  11.619  0.00  0.00    +0.000 C 
ATOM     12  F   UNL     1       4.626   3.925  10.537  0.00  0.00    +0.000 F 
ATOM     13  F   UNL     1       5.266   1.953  11.215  0.00  0.00    +0.000 F 
ATOM     14  F   UNL     1       3.417   2.825  11.978  0.00  0.00    +0.000 F 
ENDBRANCH   8  11
ENDBRANCH   2   5
BRANCH   3  15
ATOM     15  CA  UNL     1       6.308   5.265  18.385  0.00  0.00    +0.000 C 
BRANCH  15  16
ATOM     16  C   UNL     1       7.719   5.367  19.009  0.00  0.00    +0.000 C 
BRANCH  16  17
ATOM     17  O   UNL     1       7.714   5.469  20.428  0.00  0.00    +0.000 OA
ATOM     18  H   UNL     1       8.219   4.707  20.788  0.00  0.00    +0.000 HD
ENDBRANCH  16  17
ENDBRANCH  15  16
BRANCH  15  19
ATOM     19  C   UNL     1       5.293   4.495  19.254  0.00  0.00    +0.000 C 
BRANCH  19  20
ATOM     20  C   UNL     1       4.079   3.974  18.476  0.00  0.00    +0.000 C 
ATOM     21  C   UNL     1       3.237   2.953  19.238  0.00  0.00    +0.000 C 
ATOM     22  C   UNL     1       1.921   2.929  18.476  0.00  0.00    +0.000 C 
ATOM     23  C   UNL     1       1.756   4.327  17.883  0.00  0.00    +0.000 C 
ATOM     24  C   UNL     1       3.059   5.072  18.170  0.00  0.00    +0.000 C 
ENDBRANCH  19  20
ENDBRANCH  15  19
ENDBRANCH   3  15
TORSDOF 7
ENDMDL
MODEL 7
REMARK VINA RESULT:      -7.0      4.297      7.417
REMARK  Name = 
REMARK  7 active torsions:
REMARK  status: ('A' for Active; 'I' for Inactive)
REMARK    1  A    between atoms: C_2  and  C_13
REMARK    2  A    between atoms: N_3  and  CA_4
REMARK    3  A    between atoms: CA_4  and  C_5
REMARK    4  A    between atoms: CA_4  and  C_7
REMARK    5  A    between atoms: C_5  and  O_6
REMARK    6  A    between atoms: C_7  and  C_8
REMARK    7  A    between atoms: C_16  and  C_17
REMARK                            x       y       z     vdW  Elec       q    Type
REMARK                         _______ _______ _______ _____ _____    ______ ____
ROOT
ATOM      1  O   UNL     1       6.720   4.713  19.291  0.00  0.00    +0.000 OA
ATOM      2  C   UNL     1       5.673   4.483  18.691  0.00  0.00    +0.000 C 
ATOM      3  N   UNL     1       5.525   4.730  17.346  0.00  0.00    +0.000 N 
ATOM      4  H   UNL     1       4.637   4.521  16.915  0.00  0.00    +0.000 HD
ENDROOT
BRANCH   2   5
ATOM      5  C   UNL     1       4.520   3.866  19.347  0.00  0.00    +0.000 A 
ATOM      6  C   UNL     1       4.508   2.554  19.794  0.00  0.00    +0.000 A 
ATOM      7  N   UNL     1       3.261   2.256  20.272  0.00  0.00    +0.000 N 
ATOM      8  C   UNL     1       2.442   3.353  20.137  0.00  0.00    +0.000 A 
ATOM      9  C   UNL     1       3.213   4.375  19.617  0.00  0.00    +0.000 A 
ATOM     10  H   UNL     1       2.973   1.350  20.628  0.00  0.00    +0.000 HD
BRANCH   8  11
ATOM     11  C   UNL     1       1.005   3.287  20.487  0.00  0.00    +0.000 C 
ATOM     12  F   UNL     1       0.467   4.525  20.629  0.00  0.00    +0.000 F 
ATOM     13  F   UNL     1       0.286   2.644  19.538  0.00  0.00    +0.000 F 
ATOM     14  F   UNL     1       0.810   2.633  21.656  0.00  0.00    +0.000 F 
ENDBRANCH   8  11
ENDBRANCH   2   5
BRANCH   3  15
ATOM     15  CA  UNL     1       6.598   5.214  16.468  0.00  0.00    +0.000 C 
BRANCH  15  16
ATOM     16  C   UNL     1       7.367   6.403  17.088  0.00  0.00    +0.000 C 
BRANCH  16  17
ATOM     17  O   UNL     1       6.629   7.618  17.105  0.00  0.00    +0.000 OA
ATOM     18  H   UNL     1       6.168   7.705  16.242  0.00  0.00    +0.000 HD
ENDBRANCH  16  17
ENDBRANCH  15  16
BRANCH  15  19
ATOM     19  C   UNL     1       6.095   5.473  15.034  0.00  0.00    +0.000 C 
BRANCH  19  20
ATOM     20  C   UNL     1       6.410   4.339  14.051  0.00  0.00    +0.000 C 
ATOM     21  C   UNL     1       5.195   3.817  13.286  0.00  0.00    +0.000 C 
ATOM     22  C   UNL     1       5.804   3.054  12.119  0.00  0.00    +0.000 C 
ATOM     23  C   UNL     1       7.132   3.744  11.816  0.00  0.00    +0.000 C 
ATOM     24  C   UNL     1       7.341   4.779  12.921  0.00  0.00    +0.000 C 
ENDBRANCH  19  20
ENDBRANCH  15  19
ENDBRANCH   3  15
TORSDOF 7
ENDMDL
MODEL 8
REMARK VINA RESULT:      -7.0      0.992      1.374
REMARK  Name = 
REMARK  7 active torsions:
REMARK  status: ('A' for Active; 'I' for Inactive)
REMARK    1  A    between atoms: C_2  and  C_13
REMARK    2  A    between atoms: N_3  and  CA_4
REMARK    3  A    between atoms: CA_4  and  C_5
REMARK    4  A    between atoms: CA_4  and  C_7
REMARK    5  A    between atoms: C_5  and  O_6
REMARK    6  A    between atoms: C_7  and  C_8
REMARK    7  A    between atoms: C_16  and  C_17
REMARK                            x       y       z     vdW  Elec       q    Type
REMARK                         _______ _______ _______ _____ _____    ______ ____
ROOT
ATOM      1  O   UNL     1       6.164   4.303  18.429  0.00  0.00    +0.000 OA
ATOM      2  C   UNL     1       5.518   3.965  17.440  0.00  0.00    +0.000 C 
ATOM      3  N   UNL     1       4.254   3.431  17.534  0.00  0.00    +0.000 N 
ATOM      4  H   UNL     1       3.780   3.172  16.683  0.00  0.00    +0.000 HD
ENDROOT
BRANCH   2   5
ATOM      5  C   UNL     1       6.016   4.166  16.080  0.00  0.00    +0.000 A 
ATOM      6  C   UNL     1       6.727   5.288  15.685  0.00  0.00    +0.000 A 
ATOM      7  N   UNL     1       6.965   5.217  14.339  0.00  0.00    +0.000 N 
ATOM      8  C   UNL     1       6.411   4.063  13.835  0.00  0.00    +0.000 A 
ATOM      9  C   UNL     1       5.866   3.373  14.901  0.00  0.00    +0.000 A 
ATOM     10  H   UNL     1       7.438   5.928  13.791  0.00  0.00    +0.000 HD
BRANCH   8  11
ATOM     11  C   UNL     1       6.433   3.771  12.383  0.00  0.00    +0.000 C 
ATOM     12  F   UNL     1       7.274   4.602  11.719  0.00  0.00    +0.000 F 
ATOM     13  F   UNL     1       6.837   2.505  12.133  0.00  0.00    +0.000 F 
ATOM     14  F   UNL     1       5.206   3.922  11.830  0.00  0.00    +0.000 F 
ENDBRANCH   8  11
ENDBRANCH   2   5
BRANCH   3  15
ATOM     15  CA  UNL     1       3.510   3.275  18.790  0.00  0.00    +0.000 C 
BRANCH  15  16
ATOM     16  C   UNL     1       3.181   1.795  19.093  0.00  0.00    +0.000 C 
BRANCH  16  17
ATOM     17  O   UNL     1       1.868   1.407  18.708  0.00  0.00    +0.000 OA
ATOM     18  H   UNL     1       1.816   0.428  18.753  0.00  0.00    +0.000 HD
ENDBRANCH  16  17
ENDBRANCH  15  16
BRANCH  15  19
ATOM     19  C   UNL     1       2.288   4.213  18.854  0.00  0.00    +0.000 C 
BRANCH  19  20
ATOM     20  C   UNL     1       2.640   5.668  19.188  0.00  0.00    +0.000 C 
ATOM     21  C   UNL     1       2.428   6.645  18.034  0.00  0.00    +0.000 C 
ATOM     22  C   UNL     1       2.418   8.008  18.711  0.00  0.00    +0.000 C 
ATOM     23  C   UNL     1       1.874   7.771  20.118  0.00  0.00    +0.000 C 
ATOM     24  C   UNL     1       1.745   6.257  20.280  0.00  0.00    +0.000 C 
ENDBRANCH  19  20
ENDBRANCH  15  19
ENDBRANCH   3  15
TORSDOF 7
ENDMDL
MODEL 9
REMARK VINA RESULT:      -6.9      0.826      1.497
REMARK  Name = 
REMARK  7 active torsions:
REMARK  status: ('A' for Active; 'I' for Inactive)
REMARK    1  A    between atoms: C_2  and  C_13
REMARK    2  A    between atoms: N_3  and  CA_4
REMARK    3  A    between atoms: CA_4  and  C_5
REMARK    4  A    between atoms: CA_4  and  C_7
REMARK    5  A    between atoms: C_5  and  O_6
REMARK    6  A    between atoms: C_7  and  C_8
REMARK    7  A    between atoms: C_16  and  C_17
REMARK                            x       y       z     vdW  Elec       q    Type
REMARK                         _______ _______ _______ _____ _____    ______ ____
ROOT
ATOM      1  O   UNL     1       5.726   5.876  17.964  0.00  0.00    +0.000 OA
ATOM      2  C   UNL     1       5.671   4.802  17.370  0.00  0.00    +0.000 C 
ATOM      3  N   UNL     1       5.055   3.695  17.905  0.00  0.00    +0.000 N 
ATOM      4  H   UNL     1       5.048   2.844  17.366  0.00  0.00    +0.000 HD
ENDROOT
BRANCH   2   5
ATOM      5  C   UNL     1       6.200   4.634  16.017  0.00  0.00    +0.000 A 
ATOM      6  C   UNL     1       7.293   5.334  15.531  0.00  0.00    +0.000 A 
ATOM      7  N   UNL     1       7.475   5.022  14.211  0.00  0.00    +0.000 N 
ATOM      8  C   UNL     1       6.509   4.128  13.813  0.00  0.00    +0.000 A 
ATOM      9  C   UNL     1       5.743   3.833  14.925  0.00  0.00    +0.000 A 
ATOM     10  H   UNL     1       8.187   5.423  13.609  0.00  0.00    +0.000 HD
BRANCH   8  11
ATOM     11  C   UNL     1       6.405   3.686  12.404  0.00  0.00    +0.000 C 
ATOM     12  F   UNL     1       6.885   2.428  12.238  0.00  0.00    +0.000 F 
ATOM     13  F   UNL     1       5.123   3.686  11.970  0.00  0.00    +0.000 F 
ATOM     14  F   UNL     1       7.113   4.493  11.579  0.00  0.00    +0.000 F 
ENDBRANCH   8  11
ENDBRANCH   2   5
BRANCH   3  15
ATOM     15  CA  UNL     1       4.337   3.684  19.186  0.00  0.00    +0.000 C 
BRANCH  15  16
ATOM     16  C   UNL     1       4.347   2.286  19.848  0.00  0.00    +0.000 C 
BRANCH  16  17
ATOM     17  O   UNL     1       3.839   2.276  21.176  0.00  0.00    +0.000 OA
ATOM     18  H   UNL     1       3.695   3.207  21.452  0.00  0.00    +0.000 HD
ENDBRANCH  16  17
ENDBRANCH  15  16
BRANCH  15  19
ATOM     19  C   UNL     1       2.933   4.308  19.064  0.00  0.00    +0.000 C 
BRANCH  19  20
ATOM     20  C   UNL     1       2.812   5.694  19.708  0.00  0.00    +0.000 C 
ATOM     21  C   UNL     1       2.507   6.820  18.723  0.00  0.00    +0.000 C 
ATOM     22  C   UNL     1       2.017   7.955  19.610  0.00  0.00    +0.000 C 
ATOM     23  C   UNL     1       1.361   7.288  20.817  0.00  0.00    +0.000 C 
ATOM     24  C   UNL     1       1.638   5.791  20.684  0.00  0.00    +0.000 C 
ENDBRANCH  19  20
ENDBRANCH  15  19
ENDBRANCH   3  15
TORSDOF 7
ENDMDL
