MODEL 1
REMARK VINA RESULT:      -7.6      0.000      0.000
REMARK  Name = 
REMARK  11 active torsions:
REMARK  status: ('A' for Active; 'I' for Inactive)
REMARK    1  A    between atoms: C_1  and  C_2
REMARK    2  A    between atoms: C_2  and  N_3
REMARK    3  A    between atoms: N_6  and  C_7
REMARK    4  A    between atoms: C_10  and  C_11
REMARK    5  A    between atoms: C_19  and  C_20
REMARK    6  A    between atoms: C_24  and  C_25
REMARK    7  A    between atoms: C_24  and  C_26
REMARK    8  A    between atoms: C_26  and  C_27
REMARK    9  A    between atoms: C_27  and  C_28
REMARK   10  A    between atoms: C_27  and  C_29
REMARK   11  A    between atoms: C_27  and  O_30
REMARK                            x       y       z     vdW  Elec       q    Type
REMARK                         _______ _______ _______ _____ _____    ______ ____
ROOT
ATOM      1  C   UNL     1       0.367  11.028  19.844  0.00  0.00    +0.000 A 
ATOM      2  N   UNL     1       1.122  12.163  19.795  0.00  0.00    +0.000 NA
ATOM      3  C   UNL     1       0.540  13.374  19.918  0.00  0.00    +0.000 A 
ATOM      4  N   UNL     1       1.279  14.529  19.753  0.00  0.00    +0.000 N 
ATOM      5  C   UNL     1       1.036  15.733  20.571  0.00  0.00    +0.000 C 
ATOM      6  C   UNL     1       1.017  16.953  19.641  0.00  0.00    +0.000 C 
ATOM      7  O   UNL     1       2.290  17.100  19.009  0.00  0.00    +0.000 OA
ATOM      8  C   UNL     1       2.600  15.931  18.228  0.00  0.00    +0.000 C 
ATOM      9  C   UNL     1       2.594  14.610  19.062  0.00  0.00    +0.000 C 
ATOM     10  C   UNL     1       2.934  13.468  18.109  0.00  0.00    +0.000 C 
ATOM     11  C   UNL     1      -0.816  13.410  20.119  0.00  0.00    +0.000 A 
ATOM     12  C   UNL     1      -1.503  12.221  20.177  0.00  0.00    +0.000 A 
ATOM     13  N   UNL     1      -0.961  11.006  20.044  0.00  0.00    +0.000 NA
ATOM     14  C   UNL     1      -2.953  12.519  20.439  0.00  0.00    +0.000 C 
ATOM     15  C   UNL     1      -3.222  12.328  21.940  0.00  0.00    +0.000 C 
ATOM     16  O   UNL     1      -3.075  13.936  20.169  0.00  0.00    +0.000 OA
ATOM     17  C   UNL     1      -1.771  14.529  20.275  0.00  0.00    +0.000 C 
ENDROOT
BRANCH   1  21
ATOM     18  C   UNL     1       2.398   7.234  19.213  0.00  0.00    +0.000 A 
ATOM     19  C   UNL     1       2.281   8.178  18.195  0.00  0.00    +0.000 A 
ATOM     20  C   UNL     1       1.618   9.399  18.402  0.00  0.00    +0.000 A 
ATOM     21  C   UNL     1       1.048   9.730  19.639  0.00  0.00    +0.000 A 
ATOM     22  C   UNL     1       1.164   8.762  20.661  0.00  0.00    +0.000 A 
ATOM     23  C   UNL     1       1.814   7.527  20.450  0.00  0.00    +0.000 A 
BRANCH  18  27
ATOM     24  N   UNL     1       3.368   3.783  18.458  0.00  0.00    +0.000 N 
ATOM     25  C   UNL     1       2.534   4.887  18.416  0.00  0.00    +0.000 C 
ATOM     26  O   UNL     1       1.450   4.843  17.833  0.00  0.00    +0.000 OA
ATOM     27  N   UNL     1       3.069   5.990  19.045  0.00  0.00    +0.000 N 
ATOM     28  H   UNL     1       3.885   3.677  19.318  0.00  0.00    +0.000 HD
ATOM     29  H   UNL     1       4.071   5.982  19.158  0.00  0.00    +0.000 HD
BRANCH  24  31
ATOM     30  C   UNL     1       3.608   1.319  18.265  0.00  0.00    +0.000 C 
ATOM     31  C   UNL     1       2.877   2.569  17.822  0.00  0.00    +0.000 C 
ENDBRANCH  24  31
ENDBRANCH  18  27
ENDBRANCH   1  21
BRANCH  14  32
ATOM     32  C   UNL     1      -3.964  11.775  19.560  0.00  0.00    +0.000 C 
BRANCH  32  33
ATOM     33  C   UNL     1      -3.618  11.512  18.067  0.00  0.00    +0.000 C 
ATOM     34  C   UNL     1      -3.140  10.090  17.754  0.00  0.00    +0.000 C 
ATOM     35  C   UNL     1      -4.736  11.896  17.098  0.00  0.00    +0.000 C 
BRANCH  33  36
ATOM     36  O   UNL     1      -2.518  12.392  17.757  0.00  0.00    +0.000 OA
ATOM     37  H   UNL     1      -2.882  13.284  17.632  0.00  0.00    +0.000 HD
ENDBRANCH  33  36
ENDBRANCH  32  33
ENDBRANCH  14  32
TORSDOF 6
ENDMDL
MODEL 2
REMARK VINA RESULT:      -7.5      0.974      1.291
REMARK  Name = 
REMARK  11 active torsions:
REMARK  status: ('A' for Active; 'I' for Inactive)
REMARK    1  A    between atoms: C_1  and  C_2
REMARK    2  A    between atoms: C_2  and  N_3
REMARK    3  A    between atoms: N_6  and  C_7
REMARK    4  A    between atoms: C_10  and  C_11
REMARK    5  A    between atoms: C_19  and  C_20
REMARK    6  A    between atoms: C_24  and  C_25
REMARK    7  A    between atoms: C_24  and  C_26
REMARK    8  A    between atoms: C_26  and  C_27
REMARK    9  A    between atoms: C_27  and  C_28
REMARK   10  A    between atoms: C_27  and  C_29
REMARK   11  A    between atoms: C_27  and  O_30
REMARK                            x       y       z     vdW  Elec       q    Type
REMARK                         _______ _______ _______ _____ _____    ______ ____
ROOT
ATOM      1  C   UNL     1       0.468  11.255  19.754  0.00  0.00    +0.000 A 
ATOM      2  N   UNL     1       1.224  12.390  19.771  0.00  0.00    +0.000 NA
ATOM      3  C   UNL     1       0.651  13.587  20.018  0.00  0.00    +0.000 A 
ATOM      4  N   UNL     1       1.388  14.751  19.922  0.00  0.00    +0.000 N 
ATOM      5  C   UNL     1       1.181  15.882  20.847  0.00  0.00    +0.000 C 
ATOM      6  C   UNL     1       1.129  17.176  20.025  0.00  0.00    +0.000 C 
ATOM      7  O   UNL     1       2.377  17.376  19.357  0.00  0.00    +0.000 OA
ATOM      8  C   UNL     1       2.652  16.277  18.469  0.00  0.00    +0.000 C 
ATOM      9  C   UNL     1       2.674  14.890  19.188  0.00  0.00    +0.000 C 
ATOM     10  C   UNL     1       2.971  13.833  18.129  0.00  0.00    +0.000 C 
ATOM     11  C   UNL     1      -0.695  13.605  20.275  0.00  0.00    +0.000 A 
ATOM     12  C   UNL     1      -1.383  12.416  20.261  0.00  0.00    +0.000 A 
ATOM     13  N   UNL     1      -0.851  11.216  20.004  0.00  0.00    +0.000 NA
ATOM     14  C   UNL     1      -2.821  12.691  20.605  0.00  0.00    +0.000 C 
ATOM     15  C   UNL     1      -3.030  12.374  22.094  0.00  0.00    +0.000 C 
ATOM     16  O   UNL     1      -2.949  14.126  20.460  0.00  0.00    +0.000 OA
ATOM     17  C   UNL     1      -1.639  14.707  20.564  0.00  0.00    +0.000 C 
ENDROOT
BRANCH   1  21
ATOM     18  C   UNL     1       2.460   7.527  18.725  0.00  0.00    +0.000 A 
ATOM     19  C   UNL     1       2.323   8.562  17.802  0.00  0.00    +0.000 A 
ATOM     20  C   UNL     1       1.672   9.761  18.137  0.00  0.00    +0.000 A 
ATOM     21  C   UNL     1       1.136   9.978  19.413  0.00  0.00    +0.000 A 
ATOM     22  C   UNL     1       1.272   8.920  20.339  0.00  0.00    +0.000 A 
ATOM     23  C   UNL     1       1.908   7.707  19.998  0.00  0.00    +0.000 A 
BRANCH  18  27
ATOM     24  N   UNL     1       3.352   4.076  17.882  0.00  0.00    +0.000 N 
ATOM     25  C   UNL     1       2.484   5.143  18.035  0.00  0.00    +0.000 C 
ATOM     26  O   UNL     1       1.281   5.023  17.800  0.00  0.00    +0.000 OA
ATOM     27  N   UNL     1       3.119   6.302  18.426  0.00  0.00    +0.000 N 
ATOM     28  H   UNL     1       4.103   4.043  18.557  0.00  0.00    +0.000 HD
ATOM     29  H   UNL     1       4.109   6.339  18.240  0.00  0.00    +0.000 HD
BRANCH  24  31
ATOM     30  C   UNL     1       3.360   1.612  18.190  0.00  0.00    +0.000 C 
ATOM     31  C   UNL     1       2.764   2.808  17.478  0.00  0.00    +0.000 C 
ENDBRANCH  24  31
ENDBRANCH  18  27
ENDBRANCH   1  21
BRANCH  14  32
ATOM     32  C   UNL     1      -3.868  12.024  19.707  0.00  0.00    +0.000 C 
BRANCH  32  33
ATOM     33  C   UNL     1      -5.340  12.522  19.764  0.00  0.00    +0.000 C 
ATOM     34  C   UNL     1      -6.329  11.721  18.912  0.00  0.00    +0.000 C 
ATOM     35  C   UNL     1      -5.889  12.659  21.185  0.00  0.00    +0.000 C 
BRANCH  33  36
ATOM     36  O   UNL     1      -5.324  13.860  19.226  0.00  0.00    +0.000 OA
ATOM     37  H   UNL     1      -6.212  14.236  19.347  0.00  0.00    +0.000 HD
ENDBRANCH  33  36
ENDBRANCH  32  33
ENDBRANCH  14  32
TORSDOF 6
ENDMDL
MODEL 3
REMARK VINA RESULT:      -7.4      1.627      1.886
REMARK  Name = 
REMARK  11 active torsions:
REMARK  status: ('A' for Active; 'I' for Inactive)
REMARK    1  A    between atoms: C_1  and  C_2
REMARK    2  A    between atoms: C_2  and  N_3
REMARK    3  A    between atoms: N_6  and  C_7
REMARK    4  A    between atoms: C_10  and  C_11
REMARK    5  A    between atoms: C_19  and  C_20
REMARK    6  A    between atoms: C_24  and  C_25
REMARK    7  A    between atoms: C_24  and  C_26
REMARK    8  A    between atoms: C_26  and  C_27
REMARK    9  A    between atoms: C_27  and  C_28
REMARK   10  A    between atoms: C_27  and  C_29
REMARK   11  A    between atoms: C_27  and  O_30
REMARK                            x       y       z     vdW  Elec       q    Type
REMARK                         _______ _______ _______ _____ _____    ______ ____
ROOT
ATOM      1  C   UNL     1       0.443  11.322  19.806  0.00  0.00    +0.000 A 
ATOM      2  N   UNL     1       1.248  12.423  19.797  0.00  0.00    +0.000 NA
ATOM      3  C   UNL     1       0.734  13.645  20.053  0.00  0.00    +0.000 A 
ATOM      4  N   UNL     1       1.516  14.776  19.931  0.00  0.00    +0.000 N 
ATOM      5  C   UNL     1       1.384  15.918  20.855  0.00  0.00    +0.000 C 
ATOM      6  C   UNL     1       1.365  17.210  20.028  0.00  0.00    +0.000 C 
ATOM      7  O   UNL     1       2.601  17.353  19.325  0.00  0.00    +0.000 OA
ATOM      8  C   UNL     1       2.804  16.240  18.435  0.00  0.00    +0.000 C 
ATOM      9  C   UNL     1       2.787  14.857  19.161  0.00  0.00    +0.000 C 
ATOM     10  C   UNL     1       3.010  13.783  18.101  0.00  0.00    +0.000 C 
ATOM     11  C   UNL     1      -0.603  13.722  20.347  0.00  0.00    +0.000 A 
ATOM     12  C   UNL     1      -1.341  12.563  20.357  0.00  0.00    +0.000 A 
ATOM     13  N   UNL     1      -0.869  11.340  20.093  0.00  0.00    +0.000 NA
ATOM     14  C   UNL     1      -2.756  12.901  20.739  0.00  0.00    +0.000 C 
ATOM     15  C   UNL     1      -2.938  12.600  22.234  0.00  0.00    +0.000 C 
ATOM     16  O   UNL     1      -2.827  14.339  20.590  0.00  0.00    +0.000 OA
ATOM     17  C   UNL     1      -1.491  14.865  20.655  0.00  0.00    +0.000 C 
ENDROOT
BRANCH   1  21
ATOM     18  C   UNL     1       2.242   7.507  18.741  0.00  0.00    +0.000 A 
ATOM     19  C   UNL     1       2.033   8.506  17.793  0.00  0.00    +0.000 A 
ATOM     20  C   UNL     1       1.445   9.734  18.141  0.00  0.00    +0.000 A 
ATOM     21  C   UNL     1       1.047  10.016  19.454  0.00  0.00    +0.000 A 
ATOM     22  C   UNL     1       1.255   8.994  20.406  0.00  0.00    +0.000 A 
ATOM     23  C   UNL     1       1.828   7.752  20.055  0.00  0.00    +0.000 A 
BRANCH  18  27
ATOM     24  N   UNL     1       4.367   4.776  17.539  0.00  0.00    +0.000 N 
ATOM     25  C   UNL     1       4.053   6.101  17.789  0.00  0.00    +0.000 C 
ATOM     26  O   UNL     1       4.828   7.007  17.482  0.00  0.00    +0.000 OA
ATOM     27  N   UNL     1       2.842   6.255  18.429  0.00  0.00    +0.000 N 
ATOM     28  H   UNL     1       3.580   4.196  17.286  0.00  0.00    +0.000 HD
ATOM     29  H   UNL     1       2.501   5.441  18.917  0.00  0.00    +0.000 HD
BRANCH  24  31
ATOM     30  C   UNL     1       5.472   4.265  15.374  0.00  0.00    +0.000 C 
ATOM     31  C   UNL     1       5.628   4.521  16.859  0.00  0.00    +0.000 C 
ENDBRANCH  24  31
ENDBRANCH  18  27
ENDBRANCH   1  21
BRANCH  14  32
ATOM     32  C   UNL     1      -3.856  12.276  19.874  0.00  0.00    +0.000 C 
BRANCH  32  33
ATOM     33  C   UNL     1      -5.311  12.807  20.001  0.00  0.00    +0.000 C 
ATOM     34  C   UNL     1      -6.352  12.051  19.170  0.00  0.00    +0.000 C 
ATOM     35  C   UNL     1      -5.801  12.921  21.445  0.00  0.00    +0.000 C 
BRANCH  33  36
ATOM     36  O   UNL     1      -5.283  14.157  19.495  0.00  0.00    +0.000 OA
ATOM     37  H   UNL     1      -6.183  14.516  19.566  0.00  0.00    +0.000 HD
ENDBRANCH  33  36
ENDBRANCH  32  33
ENDBRANCH  14  32
TORSDOF 6
ENDMDL
MODEL 4
REMARK VINA RESULT:      -7.3      1.301      1.342
REMARK  Name = 
REMARK  11 active torsions:
REMARK  status: ('A' for Active; 'I' for Inactive)
REMARK    1  A    between atoms: C_1  and  C_2
REMARK    2  A    between atoms: C_2  and  N_3
REMARK    3  A    between atoms: N_6  and  C_7
REMARK    4  A    between atoms: C_10  and  C_11
REMARK    5  A    between atoms: C_19  and  C_20
REMARK    6  A    between atoms: C_24  and  C_25
REMARK    7  A    between atoms: C_24  and  C_26
REMARK    8  A    between atoms: C_26  and  C_27
REMARK    9  A    between atoms: C_27  and  C_28
REMARK   10  A    between atoms: C_27  and  C_29
REMARK   11  A    between atoms: C_27  and  O_30
REMARK                            x       y       z     vdW  Elec       q    Type
REMARK                         _______ _______ _______ _____ _____    ______ ____
ROOT
ATOM      1  C   UNL     1       0.509  11.030  19.696  0.00  0.00    +0.000 A 
ATOM      2  N   UNL     1       1.278  12.156  19.693  0.00  0.00    +0.000 NA
ATOM      3  C   UNL     1       0.720  13.363  19.926  0.00  0.00    +0.000 A 
ATOM      4  N   UNL     1       1.469  14.517  19.810  0.00  0.00    +0.000 N 
ATOM      5  C   UNL     1       1.279  15.663  20.720  0.00  0.00    +0.000 C 
ATOM      6  C   UNL     1       1.237  16.946  19.880  0.00  0.00    +0.000 C 
ATOM      7  O   UNL     1       2.484  17.122  19.203  0.00  0.00    +0.000 OA
ATOM      8  C   UNL     1       2.742  16.008  18.329  0.00  0.00    +0.000 C 
ATOM      9  C   UNL     1       2.752  14.632  19.068  0.00  0.00    +0.000 C 
ATOM     10  C   UNL     1       3.033  13.556  18.023  0.00  0.00    +0.000 C 
ATOM     11  C   UNL     1      -0.625  13.400  20.189  0.00  0.00    +0.000 A 
ATOM     12  C   UNL     1      -1.326  12.218  20.195  0.00  0.00    +0.000 A 
ATOM     13  N   UNL     1      -0.809  11.009  19.953  0.00  0.00    +0.000 NA
ATOM     14  C   UNL     1      -2.759  12.514  20.542  0.00  0.00    +0.000 C 
ATOM     15  C   UNL     1      -2.964  12.221  22.036  0.00  0.00    +0.000 C 
ATOM     16  O   UNL     1      -2.872  13.948  20.378  0.00  0.00    +0.000 OA
ATOM     17  C   UNL     1      -1.556  14.516  20.467  0.00  0.00    +0.000 C 
ENDROOT
BRANCH   1  21
ATOM     18  C   UNL     1       2.452   7.266  18.708  0.00  0.00    +0.000 A 
ATOM     19  C   UNL     1       2.239   8.252  17.747  0.00  0.00    +0.000 A 
ATOM     20  C   UNL     1       1.604   9.463  18.070  0.00  0.00    +0.000 A 
ATOM     21  C   UNL     1       1.161   9.741  19.370  0.00  0.00    +0.000 A 
ATOM     22  C   UNL     1       1.374   8.731  20.334  0.00  0.00    +0.000 A 
ATOM     23  C   UNL     1       1.994   7.506  20.008  0.00  0.00    +0.000 A 
BRANCH  18  27
ATOM     24  N   UNL     1       4.686   4.592  17.575  0.00  0.00    +0.000 N 
ATOM     25  C   UNL     1       4.323   5.909  17.803  0.00  0.00    +0.000 C 
ATOM     26  O   UNL     1       5.072   6.836  17.496  0.00  0.00    +0.000 OA
ATOM     27  N   UNL     1       3.098   6.030  18.422  0.00  0.00    +0.000 N 
ATOM     28  H   UNL     1       3.923   3.983  17.317  0.00  0.00    +0.000 HD
ATOM     29  H   UNL     1       2.777   5.211  18.915  0.00  0.00    +0.000 HD
BRANCH  24  31
ATOM     30  C   UNL     1       5.836   4.012  15.451  0.00  0.00    +0.000 C 
ATOM     31  C   UNL     1       5.965   4.371  16.917  0.00  0.00    +0.000 C 
ENDBRANCH  24  31
ENDBRANCH  18  27
ENDBRANCH   1  21
BRANCH  14  32
ATOM     32  C   UNL     1      -3.818  11.846  19.659  0.00  0.00    +0.000 C 
BRANCH  32  33
ATOM     33  C   UNL     1      -3.482  11.545  18.172  0.00  0.00    +0.000 C 
ATOM     34  C   UNL     1      -2.954  10.133  17.899  0.00  0.00    +0.000 C 
ATOM     35  C   UNL     1      -4.628  11.853  17.206  0.00  0.00    +0.000 C 
BRANCH  33  36
ATOM     36  O   UNL     1      -2.422  12.456  17.816  0.00  0.00    +0.000 OA
ATOM     37  H   UNL     1      -2.322  12.427  16.849  0.00  0.00    +0.000 HD
ENDBRANCH  33  36
ENDBRANCH  32  33
ENDBRANCH  14  32
TORSDOF 6
ENDMDL
MODEL 5
REMARK VINA RESULT:      -7.2      1.617      1.854
REMARK  Name = 
REMARK  11 active torsions:
REMARK  status: ('A' for Active; 'I' for Inactive)
REMARK    1  A    between atoms: C_1  and  C_2
REMARK    2  A    between atoms: C_2  and  N_3
REMARK    3  A    between atoms: N_6  and  C_7
REMARK    4  A    between atoms: C_10  and  C_11
REMARK    5  A    between atoms: C_19  and  C_20
REMARK    6  A    between atoms: C_24  and  C_25
REMARK    7  A    between atoms: C_24  and  C_26
REMARK    8  A    between atoms: C_26  and  C_27
REMARK    9  A    between atoms: C_27  and  C_28
REMARK   10  A    between atoms: C_27  and  C_29
REMARK   11  A    between atoms: C_27  and  O_30
REMARK                            x       y       z     vdW  Elec       q    Type
REMARK                         _______ _______ _______ _____ _____    ______ ____
ROOT
ATOM      1  C   UNL     1       0.768  11.355  20.230  0.00  0.00    +0.000 A 
ATOM      2  N   UNL     1       1.544  12.450  19.990  0.00  0.00    +0.000 NA
ATOM      3  C   UNL     1       1.140  13.673  20.394  0.00  0.00    +0.000 A 
ATOM      4  N   UNL     1       1.862  14.800  20.053  0.00  0.00    +0.000 N 
ATOM      5  C   UNL     1       2.020  15.935  20.982  0.00  0.00    +0.000 C 
ATOM      6  C   UNL     1       1.769  17.234  20.205  0.00  0.00    +0.000 C 
ATOM      7  O   UNL     1       2.744  17.374  19.170  0.00  0.00    +0.000 OA
ATOM      8  C   UNL     1       2.665  16.267  18.253  0.00  0.00    +0.000 C 
ATOM      9  C   UNL     1       2.850  14.878  18.943  0.00  0.00    +0.000 C 
ATOM     10  C   UNL     1       2.739  13.812  17.858  0.00  0.00    +0.000 C 
ATOM     11  C   UNL     1      -0.050  13.758  21.070  0.00  0.00    +0.000 A 
ATOM     12  C   UNL     1      -0.763  12.604  21.291  0.00  0.00    +0.000 A 
ATOM     13  N   UNL     1      -0.401  11.380  20.891  0.00  0.00    +0.000 NA
ATOM     14  C   UNL     1      -1.999  12.949  22.075  0.00  0.00    +0.000 C 
ATOM     15  C   UNL     1      -1.734  12.636  23.556  0.00  0.00    +0.000 C 
ATOM     16  O   UNL     1      -2.096  14.389  21.963  0.00  0.00    +0.000 OA
ATOM     17  C   UNL     1      -0.796  14.904  21.634  0.00  0.00    +0.000 C 
ENDROOT
BRANCH   1  21
ATOM     18  C   UNL     1       2.146   7.538  18.664  0.00  0.00    +0.000 A 
ATOM     19  C   UNL     1       1.964   8.644  17.837  0.00  0.00    +0.000 A 
ATOM     20  C   UNL     1       1.512   9.873  18.347  0.00  0.00    +0.000 A 
ATOM     21  C   UNL     1       1.228  10.048  19.707  0.00  0.00    +0.000 A 
ATOM     22  C   UNL     1       1.407   8.918  20.536  0.00  0.00    +0.000 A 
ATOM     23  C   UNL     1       1.843   7.678  20.023  0.00  0.00    +0.000 A 
BRANCH  18  27
ATOM     24  N   UNL     1       4.040   4.752  17.225  0.00  0.00    +0.000 N 
ATOM     25  C   UNL     1       3.874   6.044  17.694  0.00  0.00    +0.000 C 
ATOM     26  O   UNL     1       4.806   6.849  17.680  0.00  0.00    +0.000 OA
ATOM     27  N   UNL     1       2.610   6.280  18.187  0.00  0.00    +0.000 N 
ATOM     28  H   UNL     1       3.231   4.366  16.759  0.00  0.00    +0.000 HD
ATOM     29  H   UNL     1       2.086   5.459  18.452  0.00  0.00    +0.000 HD
BRANCH  24  31
ATOM     30  C   UNL     1       5.381   4.404  15.163  0.00  0.00    +0.000 C 
ATOM     31  C   UNL     1       5.346   4.418  16.678  0.00  0.00    +0.000 C 
ENDBRANCH  24  31
ENDBRANCH  18  27
ENDBRANCH   1  21
BRANCH  14  32
ATOM     32  C   UNL     1      -3.311  12.339  21.569  0.00  0.00    +0.000 C 
BRANCH  32  33
ATOM     33  C   UNL     1      -3.800  12.683  20.135  0.00  0.00    +0.000 C 
ATOM     34  C   UNL     1      -2.963  12.078  19.002  0.00  0.00    +0.000 C 
ATOM     35  C   UNL     1      -5.278  12.370  19.895  0.00  0.00    +0.000 C 
BRANCH  33  36
ATOM     36  O   UNL     1      -3.684  14.115  20.011  0.00  0.00    +0.000 OA
ATOM     37  H   UNL     1      -3.458  14.313  19.086  0.00  0.00    +0.000 HD
ENDBRANCH  33  36
ENDBRANCH  32  33
ENDBRANCH  14  32
TORSDOF 6
ENDMDL
MODEL 6
REMARK VINA RESULT:      -7.2      1.388      1.865
REMARK  Name = 
REMARK  11 active torsions:
REMARK  status: ('A' for Active; 'I' for Inactive)
REMARK    1  A    between atoms: C_1  and  C_2
REMARK    2  A    between atoms: C_2  and  N_3
REMARK    3  A    between atoms: N_6  and  C_7
REMARK    4  A    between atoms: C_10  and  C_11
REMARK    5  A    between atoms: C_19  and  C_20
REMARK    6  A    between atoms: C_24  and  C_25
REMARK    7  A    between atoms: C_24  and  C_26
REMARK    8  A    between atoms: C_26  and  C_27
REMARK    9  A    between atoms: C_27  and  C_28
REMARK   10  A    between atoms: C_27  and  C_29
REMARK   11  A    between atoms: C_27  and  O_30
REMARK                            x       y       z     vdW  Elec       q    Type
REMARK                         _______ _______ _______ _____ _____    ______ ____
ROOT
ATOM      1  C   UNL     1       0.325  11.589  20.012  0.00  0.00    +0.000 A 
ATOM      2  N   UNL     1       1.123  12.688  19.898  0.00  0.00    +0.000 NA
ATOM      3  C   UNL     1       0.605  13.926  20.047  0.00  0.00    +0.000 A 
ATOM      4  N   UNL     1       1.382  15.044  19.819  0.00  0.00    +0.000 N 
ATOM      5  C   UNL     1       1.249  16.265  20.638  0.00  0.00    +0.000 C 
ATOM      6  C   UNL     1       1.219  17.477  19.698  0.00  0.00    +0.000 C 
ATOM      7  O   UNL     1       2.451  17.561  18.978  0.00  0.00    +0.000 OA
ATOM      8  C   UNL     1       2.654  16.373  18.191  0.00  0.00    +0.000 C 
ATOM      9  C   UNL     1       2.647  15.061  19.037  0.00  0.00    +0.000 C 
ATOM     10  C   UNL     1       2.870  13.897  18.077  0.00  0.00    +0.000 C 
ATOM     11  C   UNL     1      -0.731  14.023  20.341  0.00  0.00    +0.000 A 
ATOM     12  C   UNL     1      -1.463  12.867  20.460  0.00  0.00    +0.000 A 
ATOM     13  N   UNL     1      -0.986  11.627  20.303  0.00  0.00    +0.000 NA
ATOM     14  C   UNL     1      -2.877  13.232  20.818  0.00  0.00    +0.000 C 
ATOM     15  C   UNL     1      -3.049  13.066  22.335  0.00  0.00    +0.000 C 
ATOM     16  O   UNL     1      -2.955  14.651  20.541  0.00  0.00    +0.000 OA
ATOM     17  C   UNL     1      -1.622  15.185  20.550  0.00  0.00    +0.000 C 
ENDROOT
BRANCH   1  21
ATOM     18  C   UNL     1       2.080   7.665  19.347  0.00  0.00    +0.000 A 
ATOM     19  C   UNL     1       1.622   8.057  20.603  0.00  0.00    +0.000 A 
ATOM     20  C   UNL     1       1.062   9.328  20.814  0.00  0.00    +0.000 A 
ATOM     21  C   UNL     1       0.932  10.259  19.775  0.00  0.00    +0.000 A 
ATOM     22  C   UNL     1       1.408   9.856  18.508  0.00  0.00    +0.000 A 
ATOM     23  C   UNL     1       1.989   8.586  18.298  0.00  0.00    +0.000 A 
BRANCH  18  27
ATOM     24  N   UNL     1       3.020   4.124  19.335  0.00  0.00    +0.000 N 
ATOM     25  C   UNL     1       2.254   5.215  19.709  0.00  0.00    +0.000 C 
ATOM     26  O   UNL     1       1.309   5.092  20.489  0.00  0.00    +0.000 OA
ATOM     27  N   UNL     1       2.646   6.384  19.092  0.00  0.00    +0.000 N 
ATOM     28  H   UNL     1       4.000   4.324  19.199  0.00  0.00    +0.000 HD
ATOM     29  H   UNL     1       3.179   6.271  18.244  0.00  0.00    +0.000 HD
BRANCH  24  31
ATOM     30  C   UNL     1       1.745   2.006  19.100  0.00  0.00    +0.000 C 
ATOM     31  C   UNL     1       2.679   2.848  19.945  0.00  0.00    +0.000 C 
ENDBRANCH  24  31
ENDBRANCH  18  27
ENDBRANCH   1  21
BRANCH  14  32
ATOM     32  C   UNL     1      -3.978  12.527  20.019  0.00  0.00    +0.000 C 
BRANCH  32  33
ATOM     33  C   UNL     1      -5.436  13.059  20.109  0.00  0.00    +0.000 C 
ATOM     34  C   UNL     1      -6.476  12.237  19.342  0.00  0.00    +0.000 C 
ATOM     35  C   UNL     1      -5.923  13.282  21.542  0.00  0.00    +0.000 C 
BRANCH  33  36
ATOM     36  O   UNL     1      -5.416  14.367  19.501  0.00  0.00    +0.000 OA
ATOM     37  H   UNL     1      -5.282  15.019  20.210  0.00  0.00    +0.000 HD
ENDBRANCH  33  36
ENDBRANCH  32  33
ENDBRANCH  14  32
TORSDOF 6
ENDMDL
MODEL 7
REMARK VINA RESULT:      -7.1      2.796      3.849
REMARK  Name = 
REMARK  11 active torsions:
REMARK  status: ('A' for Active; 'I' for Inactive)
REMARK    1  A    between atoms: C_1  and  C_2
REMARK    2  A    between atoms: C_2  and  N_3
REMARK    3  A    between atoms: N_6  and  C_7
REMARK    4  A    between atoms: C_10  and  C_11
REMARK    5  A    between atoms: C_19  and  C_20
REMARK    6  A    between atoms: C_24  and  C_25
REMARK    7  A    between atoms: C_24  and  C_26
REMARK    8  A    between atoms: C_26  and  C_27
REMARK    9  A    between atoms: C_27  and  C_28
REMARK   10  A    between atoms: C_27  and  C_29
REMARK   11  A    between atoms: C_27  and  O_30
REMARK                            x       y       z     vdW  Elec       q    Type
REMARK                         _______ _______ _______ _____ _____    ______ ____
ROOT
ATOM      1  C   UNL     1      -1.027  12.589  21.928  0.00  0.00    +0.000 A 
ATOM      2  N   UNL     1      -0.551  13.664  21.237  0.00  0.00    +0.000 NA
ATOM      3  C   UNL     1      -1.159  14.865  21.339  0.00  0.00    +0.000 A 
ATOM      4  N   UNL     1      -0.755  15.926  20.554  0.00  0.00    +0.000 N 
ATOM      5  C   UNL     1      -0.734  17.310  21.066  0.00  0.00    +0.000 C 
ATOM      6  C   UNL     1      -1.364  18.226  20.008  0.00  0.00    +0.000 C 
ATOM      7  O   UNL     1      -0.586  18.188  18.810  0.00  0.00    +0.000 OA
ATOM      8  C   UNL     1      -0.536  16.848  18.287  0.00  0.00    +0.000 C 
ATOM      9  C   UNL     1       0.039  15.809  19.301  0.00  0.00    +0.000 C 
ATOM     10  C   UNL     1       0.029  14.447  18.614  0.00  0.00    +0.000 C 
ATOM     11  C   UNL     1      -2.241  14.959  22.176  0.00  0.00    +0.000 A 
ATOM     12  C   UNL     1      -2.647  13.835  22.854  0.00  0.00    +0.000 A 
ATOM     13  N   UNL     1      -2.077  12.628  22.765  0.00  0.00    +0.000 NA
ATOM     14  C   UNL     1      -3.816  14.199  23.726  0.00  0.00    +0.000 C 
ATOM     15  C   UNL     1      -3.300  14.430  25.155  0.00  0.00    +0.000 C 
ATOM     16  O   UNL     1      -4.244  15.486  23.222  0.00  0.00    +0.000 OA
ATOM     17  C   UNL     1      -3.144  16.081  22.515  0.00  0.00    +0.000 C 
ENDROOT
BRANCH   1  21
ATOM     18  C   UNL     1       0.962   8.770  21.316  0.00  0.00    +0.000 A 
ATOM     19  C   UNL     1       0.871   9.718  20.299  0.00  0.00    +0.000 A 
ATOM     20  C   UNL     1       0.221  10.947  20.500  0.00  0.00    +0.000 A 
ATOM     21  C   UNL     1      -0.360  11.283  21.730  0.00  0.00    +0.000 A 
ATOM     22  C   UNL     1      -0.271  10.312  22.751  0.00  0.00    +0.000 A 
ATOM     23  C   UNL     1       0.365   9.068  22.546  0.00  0.00    +0.000 A 
BRANCH  18  27
ATOM     24  N   UNL     1       2.716   5.802  20.079  0.00  0.00    +0.000 N 
ATOM     25  C   UNL     1       2.219   7.090  19.989  0.00  0.00    +0.000 C 
ATOM     26  O   UNL     1       2.356   7.755  18.961  0.00  0.00    +0.000 OA
ATOM     27  N   UNL     1       1.619   7.518  21.153  0.00  0.00    +0.000 N 
ATOM     28  H   UNL     1       2.149   5.168  20.622  0.00  0.00    +0.000 HD
ATOM     29  H   UNL     1       1.888   7.021  21.989  0.00  0.00    +0.000 HD
BRANCH  24  31
ATOM     30  C   UNL     1       2.439   4.427  18.029  0.00  0.00    +0.000 C 
ATOM     31  C   UNL     1       3.361   5.266  18.889  0.00  0.00    +0.000 C 
ENDBRANCH  24  31
ENDBRANCH  18  27
ENDBRANCH   1  21
BRANCH  14  32
ATOM     32  C   UNL     1      -5.015  13.244  23.680  0.00  0.00    +0.000 C 
BRANCH  32  33
ATOM     33  C   UNL     1      -6.438  13.829  23.464  0.00  0.00    +0.000 C 
ATOM     34  C   UNL     1      -6.687  14.435  22.079  0.00  0.00    +0.000 C 
ATOM     35  C   UNL     1      -7.565  12.850  23.798  0.00  0.00    +0.000 C 
BRANCH  33  36
ATOM     36  O   UNL     1      -6.570  14.907  24.413  0.00  0.00    +0.000 OA
ATOM     37  H   UNL     1      -7.310  14.688  25.005  0.00  0.00    +0.000 HD
ENDBRANCH  33  36
ENDBRANCH  32  33
ENDBRANCH  14  32
TORSDOF 6
ENDMDL
MODEL 8
REMARK VINA RESULT:      -7.1      1.366      1.516
REMARK  Name = 
REMARK  11 active torsions:
REMARK  status: ('A' for Active; 'I' for Inactive)
REMARK    1  A    between atoms: C_1  and  C_2
REMARK    2  A    between atoms: C_2  and  N_3
REMARK    3  A    between atoms: N_6  and  C_7
REMARK    4  A    between atoms: C_10  and  C_11
REMARK    5  A    between atoms: C_19  and  C_20
REMARK    6  A    between atoms: C_24  and  C_25
REMARK    7  A    between atoms: C_24  and  C_26
REMARK    8  A    between atoms: C_26  and  C_27
REMARK    9  A    between atoms: C_27  and  C_28
REMARK   10  A    between atoms: C_27  and  C_29
REMARK   11  A    between atoms: C_27  and  O_30
REMARK                            x       y       z     vdW  Elec       q    Type
REMARK                         _______ _______ _______ _____ _____    ______ ____
ROOT
ATOM      1  C   UNL     1      -0.027  11.524  20.691  0.00  0.00    +0.000 A 
ATOM      2  N   UNL     1       0.684  12.654  20.414  0.00  0.00    +0.000 NA
ATOM      3  C   UNL     1       0.104  13.868  20.521  0.00  0.00    +0.000 A 
ATOM      4  N   UNL     1       0.781  15.007  20.132  0.00  0.00    +0.000 N 
ATOM      5  C   UNL     1       0.650  16.280  20.865  0.00  0.00    +0.000 C 
ATOM      6  C   UNL     1       0.451  17.408  19.845  0.00  0.00    +0.000 C 
ATOM      7  O   UNL     1       1.598  17.504  18.999  0.00  0.00    +0.000 OA
ATOM      8  C   UNL     1       1.801  16.269  18.286  0.00  0.00    +0.000 C 
ATOM      9  C   UNL     1       1.961  15.032  19.226  0.00  0.00    +0.000 C 
ATOM     10  C   UNL     1       2.163  13.808  18.338  0.00  0.00    +0.000 C 
ATOM     11  C   UNL     1      -1.200  13.913  20.941  0.00  0.00    +0.000 A 
ATOM     12  C   UNL     1      -1.842  12.731  21.221  0.00  0.00    +0.000 A 
ATOM     13  N   UNL     1      -1.303  11.512  21.111  0.00  0.00    +0.000 NA
ATOM     14  C   UNL     1      -3.234  13.043  21.693  0.00  0.00    +0.000 C 
ATOM     15  C   UNL     1      -3.247  12.991  23.229  0.00  0.00    +0.000 C 
ATOM     16  O   UNL     1      -3.431  14.428  21.320  0.00  0.00    +0.000 OA
ATOM     17  C   UNL     1      -2.140  15.036  21.153  0.00  0.00    +0.000 C 
ENDROOT
BRANCH   1  21
ATOM     18  C   UNL     1       1.956   7.701  20.080  0.00  0.00    +0.000 A 
ATOM     19  C   UNL     1       1.729   8.583  19.026  0.00  0.00    +0.000 A 
ATOM     20  C   UNL     1       1.082   9.814  19.227  0.00  0.00    +0.000 A 
ATOM     21  C   UNL     1       0.639  10.216  20.494  0.00  0.00    +0.000 A 
ATOM     22  C   UNL     1       0.866   9.311  21.554  0.00  0.00    +0.000 A 
ATOM     23  C   UNL     1       1.499   8.066  21.350  0.00  0.00    +0.000 A 
BRANCH  18  27
ATOM     24  N   UNL     1       2.946   4.174  20.041  0.00  0.00    +0.000 N 
ATOM     25  C   UNL     1       2.063   5.225  20.220  0.00  0.00    +0.000 C 
ATOM     26  O   UNL     1       0.902   5.026  20.582  0.00  0.00    +0.000 OA
ATOM     27  N   UNL     1       2.616   6.450  19.917  0.00  0.00    +0.000 N 
ATOM     28  H   UNL     1       3.901   4.379  20.295  0.00  0.00    +0.000 HD
ATOM     29  H   UNL     1       3.425   6.425  19.317  0.00  0.00    +0.000 HD
BRANCH  24  31
ATOM     30  C   UNL     1       2.055   2.049  19.116  0.00  0.00    +0.000 C 
ATOM     31  C   UNL     1       2.446   2.842  20.345  0.00  0.00    +0.000 C 
ENDBRANCH  24  31
ENDBRANCH  18  27
ENDBRANCH   1  21
BRANCH  14  32
ATOM     32  C   UNL     1      -4.361  12.214  21.066  0.00  0.00    +0.000 C 
BRANCH  32  33
ATOM     33  C   UNL     1      -4.671  12.384  19.553  0.00  0.00    +0.000 C 
ATOM     34  C   UNL     1      -3.517  12.028  18.610  0.00  0.00    +0.000 C 
ATOM     35  C   UNL     1      -5.939  11.658  19.098  0.00  0.00    +0.000 C 
BRANCH  33  36
ATOM     36  O   UNL     1      -4.940  13.787  19.361  0.00  0.00    +0.000 OA
ATOM     37  H   UNL     1      -4.296  14.285  19.891  0.00  0.00    +0.000 HD
ENDBRANCH  33  36
ENDBRANCH  32  33
ENDBRANCH  14  32
TORSDOF 6
ENDMDL
MODEL 9
REMARK VINA RESULT:      -7.1      2.501      3.303
REMARK  Name = 
REMARK  11 active torsions:
REMARK  status: ('A' for Active; 'I' for Inactive)
REMARK    1  A    between atoms: C_1  and  C_2
REMARK    2  A    between atoms: C_2  and  N_3
REMARK    3  A    between atoms: N_6  and  C_7
REMARK    4  A    between atoms: C_10  and  C_11
REMARK    5  A    between atoms: C_19  and  C_20
REMARK    6  A    between atoms: C_24  and  C_25
REMARK    7  A    between atoms: C_24  and  C_26
REMARK    8  A    between atoms: C_26  and  C_27
REMARK    9  A    between atoms: C_27  and  C_28
REMARK   10  A    between atoms: C_27  and  C_29
REMARK   11  A    between atoms: C_27  and  O_30
REMARK                            x       y       z     vdW  Elec       q    Type
REMARK                         _______ _______ _______ _____ _____    ______ ____
ROOT
ATOM      1  C   UNL     1      -1.507  12.536  21.480  0.00  0.00    +0.000 A 
ATOM      2  N   UNL     1      -0.965  13.669  20.948  0.00  0.00    +0.000 NA
ATOM      3  C   UNL     1      -1.665  14.822  20.941  0.00  0.00    +0.000 A 
ATOM      4  N   UNL     1      -1.170  15.941  20.301  0.00  0.00    +0.000 N 
ATOM      5  C   UNL     1      -1.366  17.299  20.844  0.00  0.00    +0.000 C 
ATOM      6  C   UNL     1      -1.804  18.220  19.697  0.00  0.00    +0.000 C 
ATOM      7  O   UNL     1      -0.774  18.285  18.709  0.00  0.00    +0.000 OA
ATOM      8  C   UNL     1      -0.510  16.975  18.172  0.00  0.00    +0.000 C 
ATOM      9  C   UNL     1      -0.107  15.930  19.261  0.00  0.00    +0.000 C 
ATOM     10  C   UNL     1       0.137  14.602  18.551  0.00  0.00    +0.000 C 
ATOM     11  C   UNL     1      -2.913  14.810  21.510  0.00  0.00    +0.000 A 
ATOM     12  C   UNL     1      -3.380  13.634  22.045  0.00  0.00    +0.000 A 
ATOM     13  N   UNL     1      -2.719  12.470  22.054  0.00  0.00    +0.000 NA
ATOM     14  C   UNL     1      -4.739  13.883  22.635  0.00  0.00    +0.000 C 
ATOM     15  C   UNL     1      -4.579  14.084  24.150  0.00  0.00    +0.000 C 
ATOM     16  O   UNL     1      -5.133  15.163  22.083  0.00  0.00    +0.000 OA
ATOM     17  C   UNL     1      -3.947  15.857  21.665  0.00  0.00    +0.000 C 
ENDROOT
BRANCH   1  21
ATOM     18  C   UNL     1       0.833   8.878  21.220  0.00  0.00    +0.000 A 
ATOM     19  C   UNL     1       0.640   9.703  20.114  0.00  0.00    +0.000 A 
ATOM     20  C   UNL     1      -0.122  10.880  20.201  0.00  0.00    +0.000 A 
ATOM     21  C   UNL     1      -0.720  11.284  21.402  0.00  0.00    +0.000 A 
ATOM     22  C   UNL     1      -0.527  10.437  22.515  0.00  0.00    +0.000 A 
ATOM     23  C   UNL     1       0.223   9.244  22.425  0.00  0.00    +0.000 A 
BRANCH  18  27
ATOM     24  N   UNL     1       2.840   5.970  20.255  0.00  0.00    +0.000 N 
ATOM     25  C   UNL     1       2.217   7.188  20.042  0.00  0.00    +0.000 C 
ATOM     26  O   UNL     1       2.267   7.744  18.945  0.00  0.00    +0.000 OA
ATOM     27  N   UNL     1       1.605   7.683  21.173  0.00  0.00    +0.000 N 
ATOM     28  H   UNL     1       2.349   5.349  20.881  0.00  0.00    +0.000 HD
ATOM     29  H   UNL     1       1.939   7.310  22.048  0.00  0.00    +0.000 HD
BRANCH  24  31
ATOM     30  C   UNL     1       5.016   5.336  19.241  0.00  0.00    +0.000 C 
ATOM     31  C   UNL     1       3.508   5.369  19.110  0.00  0.00    +0.000 C 
ENDBRANCH  24  31
ENDBRANCH  18  27
ENDBRANCH   1  21
BRANCH  14  32
ATOM     32  C   UNL     1      -5.824  12.858  22.288  0.00  0.00    +0.000 C 
BRANCH  32  33
ATOM     33  C   UNL     1      -6.400  12.826  20.844  0.00  0.00    +0.000 C 
ATOM     34  C   UNL     1      -5.351  12.790  19.729  0.00  0.00    +0.000 C 
ATOM     35  C   UNL     1      -7.424  11.714  20.613  0.00  0.00    +0.000 C 
BRANCH  33  36
ATOM     36  O   UNL     1      -7.127  14.061  20.683  0.00  0.00    +0.000 OA
ATOM     37  H   UNL     1      -7.935  13.999  21.221  0.00  0.00    +0.000 HD
ENDBRANCH  33  36
ENDBRANCH  32  33
ENDBRANCH  14  32
TORSDOF 6
ENDMDL
