MODEL 1
REMARK VINA RESULT:      -7.7      0.000      0.000
REMARK  Name = 
REMARK  5 active torsions:
REMARK  status: ('A' for Active; 'I' for Inactive)
REMARK    1  A    between atoms: N_2  and  C_4
REMARK    2  A    between atoms: C_9  and  N_10
REMARK    3  A    between atoms: N_11  and  C_12
REMARK    4  A    between atoms: C_15  and  O_16
REMARK    5  A    between atoms: C_18  and  O_19
REMARK                            x       y       z     vdW  Elec       q    Type
REMARK                         _______ _______ _______ _____ _____    ______ ____
ROOT
ATOM      1  N   UNL     1       4.843   4.053  17.816  0.00  0.00    +0.000 NA
ATOM      2  N   UNL     1       3.885   3.261  17.674  0.00  0.00    +0.000 NA
ENDROOT
BRANCH   1   8
ATOM      3  C   UNL     1       6.805   4.862  16.564  0.00  0.00    +0.000 A 
ATOM      4  C   UNL     1       7.497   5.103  15.364  0.00  0.00    +0.000 A 
ATOM      5  C   UNL     1       6.890   4.782  14.154  0.00  0.00    +0.000 A 
ATOM      6  C   UNL     1       5.608   4.236  14.149  0.00  0.00    +0.000 A 
ATOM      7  C   UNL     1       4.937   3.998  15.353  0.00  0.00    +0.000 A 
ATOM      8  C   UNL     1       5.526   4.288  16.597  0.00  0.00    +0.000 A 
BRANCH   3  10
ATOM      9  O   UNL     1       8.129   4.385  18.371  0.00  0.00    +0.000 OA
ATOM     10  N   UNL     1       7.457   5.251  17.794  0.00  0.00    +0.000 N 
ATOM     11  O   UNL     1       7.360   6.435  18.144  0.00  0.00    +0.000 OA
ENDBRANCH   3  10
ENDBRANCH   1   8
BRANCH   2  12
ATOM     12  C   UNL     1       3.102   3.106  18.843  0.00  0.00    +0.000 A 
ATOM     13  C   UNL     1       1.742   3.451  18.902  0.00  0.00    +0.000 A 
ATOM     14  C   UNL     1       1.002   3.289  20.077  0.00  0.00    +0.000 A 
ATOM     15  C   UNL     1       1.622   2.784  21.211  0.00  0.00    +0.000 A 
ATOM     16  C   UNL     1       2.970   2.448  21.200  0.00  0.00    +0.000 A 
ATOM     17  C   UNL     1       3.700   2.612  20.022  0.00  0.00    +0.000 A 
BRANCH  15  18
ATOM     18  O   UNL     1       0.931   2.599  22.373  0.00  0.00    +0.000 OA
ATOM     19  H   UNL     1       1.062   1.682  22.669  0.00  0.00    +0.000 HD
ENDBRANCH  15  18
BRANCH  17  20
ATOM     20  O   UNL     1       5.038   2.280  20.011  0.00  0.00    +0.000 OA
ATOM     21  H   UNL     1       5.240   1.824  19.176  0.00  0.00    +0.000 HD
ENDBRANCH  17  20
ENDBRANCH   2  12
TORSDOF 5
ENDMDL
MODEL 2
REMARK VINA RESULT:      -7.2      1.059      1.527
REMARK  Name = 
REMARK  5 active torsions:
REMARK  status: ('A' for Active; 'I' for Inactive)
REMARK    1  A    between atoms: N_2  and  C_4
REMARK    2  A    between atoms: C_9  and  N_10
REMARK    3  A    between atoms: N_11  and  C_12
REMARK    4  A    between atoms: C_15  and  O_16
REMARK    5  A    between atoms: C_18  and  O_19
REMARK                            x       y       z     vdW  Elec       q    Type
REMARK                         _______ _______ _______ _____ _____    ______ ____
ROOT
ATOM      1  N   UNL     1       4.849   4.117  17.830  0.00  0.00    +0.000 NA
ATOM      2  N   UNL     1       4.065   3.143  17.781  0.00  0.00    +0.000 NA
ENDROOT
BRANCH   1   8
ATOM      3  C   UNL     1       6.811   4.872  16.544  0.00  0.00    +0.000 A 
ATOM      4  C   UNL     1       7.493   5.085  15.334  0.00  0.00    +0.000 A 
ATOM      5  C   UNL     1       6.865   4.762  14.135  0.00  0.00    +0.000 A 
ATOM      6  C   UNL     1       5.573   4.241  14.152  0.00  0.00    +0.000 A 
ATOM      7  C   UNL     1       4.912   4.030  15.367  0.00  0.00    +0.000 A 
ATOM      8  C   UNL     1       5.521   4.324  16.600  0.00  0.00    +0.000 A 
BRANCH   3  10
ATOM      9  O   UNL     1       8.116   4.382  18.363  0.00  0.00    +0.000 OA
ATOM     10  N   UNL     1       7.485   5.264  17.762  0.00  0.00    +0.000 N 
ATOM     11  O   UNL     1       7.449   6.461  18.078  0.00  0.00    +0.000 OA
ENDBRANCH   3  10
ENDBRANCH   1   8
BRANCH   2  12
ATOM     12  C   UNL     1       3.282   2.988  18.949  0.00  0.00    +0.000 A 
ATOM     13  C   UNL     1       3.828   2.625  20.191  0.00  0.00    +0.000 A 
ATOM     14  C   UNL     1       3.022   2.476  21.323  0.00  0.00    +0.000 A 
ATOM     15  C   UNL     1       1.654   2.683  21.220  0.00  0.00    +0.000 A 
ATOM     16  C   UNL     1       1.072   3.024  20.006  0.00  0.00    +0.000 A 
ATOM     17  C   UNL     1       1.885   3.172  18.881  0.00  0.00    +0.000 A 
BRANCH  15  18
ATOM     18  O   UNL     1       0.835   2.560  22.304  0.00  0.00    +0.000 OA
ATOM     19  H   UNL     1       1.298   2.044  22.986  0.00  0.00    +0.000 HD
ENDBRANCH  15  18
BRANCH  17  20
ATOM     20  O   UNL     1       1.307   3.510  17.676  0.00  0.00    +0.000 OA
ATOM     21  H   UNL     1       0.595   2.876  17.483  0.00  0.00    +0.000 HD
ENDBRANCH  17  20
ENDBRANCH   2  12
TORSDOF 5
ENDMDL
MODEL 3
REMARK VINA RESULT:      -7.1      0.942      1.200
REMARK  Name = 
REMARK  5 active torsions:
REMARK  status: ('A' for Active; 'I' for Inactive)
REMARK    1  A    between atoms: N_2  and  C_4
REMARK    2  A    between atoms: C_9  and  N_10
REMARK    3  A    between atoms: N_11  and  C_12
REMARK    4  A    between atoms: C_15  and  O_16
REMARK    5  A    between atoms: C_18  and  O_19
REMARK                            x       y       z     vdW  Elec       q    Type
REMARK                         _______ _______ _______ _____ _____    ______ ____
ROOT
ATOM      1  N   UNL     1       4.807   4.272  16.892  0.00  0.00    +0.000 NA
ATOM      2  N   UNL     1       4.252   3.156  16.994  0.00  0.00    +0.000 NA
ENDROOT
BRANCH   1   8
ATOM      3  C   UNL     1       6.735   5.173  15.650  0.00  0.00    +0.000 A 
ATOM      4  C   UNL     1       7.516   5.291  14.487  0.00  0.00    +0.000 A 
ATOM      5  C   UNL     1       7.127   4.610  13.337  0.00  0.00    +0.000 A 
ATOM      6  C   UNL     1       5.970   3.834  13.353  0.00  0.00    +0.000 A 
ATOM      7  C   UNL     1       5.209   3.724  14.523  0.00  0.00    +0.000 A 
ATOM      8  C   UNL     1       5.582   4.378  15.711  0.00  0.00    +0.000 A 
BRANCH   3  10
ATOM      9  O   UNL     1       6.786   7.114  16.867  0.00  0.00    +0.000 OA
ATOM     10  N   UNL     1       7.154   5.932  16.808  0.00  0.00    +0.000 N 
ATOM     11  O   UNL     1       7.784   5.332  17.689  0.00  0.00    +0.000 OA
ENDBRANCH   3  10
ENDBRANCH   1   8
BRANCH   2  12
ATOM     12  C   UNL     1       3.368   3.062  18.095  0.00  0.00    +0.000 A 
ATOM     13  C   UNL     1       1.971   3.135  17.960  0.00  0.00    +0.000 A 
ATOM     14  C   UNL     1       1.129   3.044  19.071  0.00  0.00    +0.000 A 
ATOM     15  C   UNL     1       1.680   2.887  20.336  0.00  0.00    +0.000 A 
ATOM     16  C   UNL     1       3.056   2.830  20.514  0.00  0.00    +0.000 A 
ATOM     17  C   UNL     1       3.889   2.920  19.398  0.00  0.00    +0.000 A 
BRANCH  15  18
ATOM     18  O   UNL     1       0.891   2.782  21.443  0.00  0.00    +0.000 OA
ATOM     19  H   UNL     1       0.636   3.676  21.730  0.00  0.00    +0.000 HD
ENDBRANCH  15  18
BRANCH  17  20
ATOM     20  O   UNL     1       5.255   2.864  19.576  0.00  0.00    +0.000 OA
ATOM     21  H   UNL     1       5.535   3.642  20.087  0.00  0.00    +0.000 HD
ENDBRANCH  17  20
ENDBRANCH   2  12
TORSDOF 5
ENDMDL
MODEL 4
REMARK VINA RESULT:      -7.1      1.528      1.847
REMARK  Name = 
REMARK  5 active torsions:
REMARK  status: ('A' for Active; 'I' for Inactive)
REMARK    1  A    between atoms: N_2  and  C_4
REMARK    2  A    between atoms: C_9  and  N_10
REMARK    3  A    between atoms: N_11  and  C_12
REMARK    4  A    between atoms: C_15  and  O_16
REMARK    5  A    between atoms: C_18  and  O_19
REMARK                            x       y       z     vdW  Elec       q    Type
REMARK                         _______ _______ _______ _____ _____    ______ ____
ROOT
ATOM      1  N   UNL     1       5.314   3.418  15.812  0.00  0.00    +0.000 NA
ATOM      2  N   UNL     1       4.448   4.237  16.193  0.00  0.00    +0.000 NA
ENDROOT
BRANCH   1   8
ATOM      3  C   UNL     1       7.122   4.792  14.855  0.00  0.00    +0.000 A 
ATOM      4  C   UNL     1       7.865   5.279  13.766  0.00  0.00    +0.000 A 
ATOM      5  C   UNL     1       7.520   4.882  12.477  0.00  0.00    +0.000 A 
ATOM      6  C   UNL     1       6.444   4.018  12.286  0.00  0.00    +0.000 A 
ATOM      7  C   UNL     1       5.720   3.538  13.383  0.00  0.00    +0.000 A 
ATOM      8  C   UNL     1       6.052   3.899  14.702  0.00  0.00    +0.000 A 
BRANCH   3  10
ATOM      9  O   UNL     1       8.007   4.442  16.939  0.00  0.00    +0.000 OA
ATOM     10  N   UNL     1       7.489   5.265  16.171  0.00  0.00    +0.000 N 
ATOM     11  O   UNL     1       7.330   6.470  16.412  0.00  0.00    +0.000 OA
ENDBRANCH   3  10
ENDBRANCH   1   8
BRANCH   2  12
ATOM     12  C   UNL     1       3.782   3.845  17.378  0.00  0.00    +0.000 A 
ATOM     13  C   UNL     1       2.388   3.688  17.454  0.00  0.00    +0.000 A 
ATOM     14  C   UNL     1       1.765   3.304  18.644  0.00  0.00    +0.000 A 
ATOM     15  C   UNL     1       2.534   3.081  19.778  0.00  0.00    +0.000 A 
ATOM     16  C   UNL     1       3.913   3.245  19.750  0.00  0.00    +0.000 A 
ATOM     17  C   UNL     1       4.527   3.626  18.556  0.00  0.00    +0.000 A 
BRANCH  15  18
ATOM     18  O   UNL     1       1.964   2.694  20.955  0.00  0.00    +0.000 OA
ATOM     19  H   UNL     1       1.822   1.732  20.930  0.00  0.00    +0.000 HD
ENDBRANCH  15  18
BRANCH  17  20
ATOM     20  O   UNL     1       5.896   3.790  18.530  0.00  0.00    +0.000 OA
ATOM     21  H   UNL     1       6.193   3.776  17.604  0.00  0.00    +0.000 HD
ENDBRANCH  17  20
ENDBRANCH   2  12
TORSDOF 5
ENDMDL
MODEL 5
REMARK VINA RESULT:      -7.0      1.068      1.085
REMARK  Name = 
REMARK  5 active torsions:
REMARK  status: ('A' for Active; 'I' for Inactive)
REMARK    1  A    between atoms: N_2  and  C_4
REMARK    2  A    between atoms: C_9  and  N_10
REMARK    3  A    between atoms: N_11  and  C_12
REMARK    4  A    between atoms: C_15  and  O_16
REMARK    5  A    between atoms: C_18  and  O_19
REMARK                            x       y       z     vdW  Elec       q    Type
REMARK                         _______ _______ _______ _____ _____    ______ ____
ROOT
ATOM      1  N   UNL     1       4.835   3.499  17.090  0.00  0.00    +0.000 NA
ATOM      2  N   UNL     1       3.686   3.994  17.079  0.00  0.00    +0.000 NA
ENDROOT
BRANCH   1   8
ATOM      3  C   UNL     1       6.775   4.727  16.194  0.00  0.00    +0.000 A 
ATOM      4  C   UNL     1       7.567   5.186  15.128  0.00  0.00    +0.000 A 
ATOM      5  C   UNL     1       7.189   4.884  13.823  0.00  0.00    +0.000 A 
ATOM      6  C   UNL     1       6.033   4.141  13.594  0.00  0.00    +0.000 A 
ATOM      7  C   UNL     1       5.261   3.687  14.669  0.00  0.00    +0.000 A 
ATOM      8  C   UNL     1       5.621   3.953  16.002  0.00  0.00    +0.000 A 
BRANCH   3  10
ATOM      9  O   UNL     1       8.033   4.387  18.078  0.00  0.00    +0.000 OA
ATOM     10  N   UNL     1       7.182   5.102  17.531  0.00  0.00    +0.000 N 
ATOM     11  O   UNL     1       6.710   6.145  18.001  0.00  0.00    +0.000 OA
ENDBRANCH   3  10
ENDBRANCH   1   8
BRANCH   2  12
ATOM     12  C   UNL     1       2.918   3.664  18.221  0.00  0.00    +0.000 A 
ATOM     13  C   UNL     1       1.781   2.841  18.165  0.00  0.00    +0.000 A 
ATOM     14  C   UNL     1       1.045   2.541  19.314  0.00  0.00    +0.000 A 
ATOM     15  C   UNL     1       1.436   3.072  20.535  0.00  0.00    +0.000 A 
ATOM     16  C   UNL     1       2.543   3.906  20.631  0.00  0.00    +0.000 A 
ATOM     17  C   UNL     1       3.273   4.198  19.478  0.00  0.00    +0.000 A 
BRANCH  15  18
ATOM     18  O   UNL     1       0.751   2.793  21.681  0.00  0.00    +0.000 OA
ATOM     19  H   UNL     1       1.385   2.514  22.363  0.00  0.00    +0.000 HD
ENDBRANCH  15  18
BRANCH  17  20
ATOM     20  O   UNL     1       4.371   5.027  19.573  0.00  0.00    +0.000 OA
ATOM     21  H   UNL     1       4.532   5.432  18.704  0.00  0.00    +0.000 HD
ENDBRANCH  17  20
ENDBRANCH   2  12
TORSDOF 5
ENDMDL
MODEL 6
REMARK VINA RESULT:      -7.0      1.715      6.295
REMARK  Name = 
REMARK  5 active torsions:
REMARK  status: ('A' for Active; 'I' for Inactive)
REMARK    1  A    between atoms: N_2  and  C_4
REMARK    2  A    between atoms: C_9  and  N_10
REMARK    3  A    between atoms: N_11  and  C_12
REMARK    4  A    between atoms: C_15  and  O_16
REMARK    5  A    between atoms: C_18  and  O_19
REMARK                            x       y       z     vdW  Elec       q    Type
REMARK                         _______ _______ _______ _____ _____    ______ ____
ROOT
ATOM      1  N   UNL     1       3.896   4.581  18.386  0.00  0.00    +0.000 NA
ATOM      2  N   UNL     1       3.986   3.868  17.362  0.00  0.00    +0.000 NA
ENDROOT
BRANCH   1   8
ATOM      3  C   UNL     1       3.046   2.813  19.877  0.00  0.00    +0.000 A 
ATOM      4  C   UNL     1       2.100   2.304  20.784  0.00  0.00    +0.000 A 
ATOM      5  C   UNL     1       0.990   3.077  21.112  0.00  0.00    +0.000 A 
ATOM      6  C   UNL     1       0.831   4.334  20.534  0.00  0.00    +0.000 A 
ATOM      7  C   UNL     1       1.786   4.827  19.638  0.00  0.00    +0.000 A 
ATOM      8  C   UNL     1       2.932   4.085  19.299  0.00  0.00    +0.000 A 
BRANCH   3  10
ATOM      9  O   UNL     1       5.210   2.118  20.172  0.00  0.00    +0.000 OA
ATOM     10  N   UNL     1       4.160   1.957  19.533  0.00  0.00    +0.000 N 
ATOM     11  O   UNL     1       3.966   1.078  18.682  0.00  0.00    +0.000 OA
ENDBRANCH   3  10
ENDBRANCH   1   8
BRANCH   2  12
ATOM     12  C   UNL     1       5.030   4.261  16.490  0.00  0.00    +0.000 A 
ATOM     13  C   UNL     1       4.824   4.533  15.128  0.00  0.00    +0.000 A 
ATOM     14  C   UNL     1       5.880   4.914  14.296  0.00  0.00    +0.000 A 
ATOM     15  C   UNL     1       7.161   5.018  14.821  0.00  0.00    +0.000 A 
ATOM     16  C   UNL     1       7.410   4.739  16.159  0.00  0.00    +0.000 A 
ATOM     17  C   UNL     1       6.348   4.361  16.982  0.00  0.00    +0.000 A 
BRANCH  15  18
ATOM     18  O   UNL     1       8.216   5.399  14.045  0.00  0.00    +0.000 OA
ATOM     19  H   UNL     1       8.152   6.355  13.881  0.00  0.00    +0.000 HD
ENDBRANCH  15  18
BRANCH  17  20
ATOM     20  O   UNL     1       6.596   4.083  18.310  0.00  0.00    +0.000 OA
ATOM     21  H   UNL     1       7.547   4.196  18.480  0.00  0.00    +0.000 HD
ENDBRANCH  17  20
ENDBRANCH   2  12
TORSDOF 5
ENDMDL
MODEL 7
REMARK VINA RESULT:      -7.0      2.165      6.543
REMARK  Name = 
REMARK  5 active torsions:
REMARK  status: ('A' for Active; 'I' for Inactive)
REMARK    1  A    between atoms: N_2  and  C_4
REMARK    2  A    between atoms: C_9  and  N_10
REMARK    3  A    between atoms: N_11  and  C_12
REMARK    4  A    between atoms: C_15  and  O_16
REMARK    5  A    between atoms: C_18  and  O_19
REMARK                            x       y       z     vdW  Elec       q    Type
REMARK                         _______ _______ _______ _____ _____    ______ ____
ROOT
ATOM      1  N   UNL     1       4.093   3.355  18.259  0.00  0.00    +0.000 NA
ATOM      2  N   UNL     1       4.636   4.482  18.244  0.00  0.00    +0.000 NA
ENDROOT
BRANCH   1   8
ATOM      3  C   UNL     1       1.919   3.782  19.338  0.00  0.00    +0.000 A 
ATOM      4  C   UNL     1       1.018   3.647  20.409  0.00  0.00    +0.000 A 
ATOM      5  C   UNL     1       1.409   2.935  21.538  0.00  0.00    +0.000 A 
ATOM      6  C   UNL     1       2.684   2.375  21.594  0.00  0.00    +0.000 A 
ATOM      7  C   UNL     1       3.564   2.514  20.515  0.00  0.00    +0.000 A 
ATOM      8  C   UNL     1       3.198   3.208  19.347  0.00  0.00    +0.000 A 
BRANCH   3  10
ATOM      9  O   UNL     1       1.741   5.779  18.229  0.00  0.00    +0.000 OA
ATOM     10  N   UNL     1       1.486   4.567  18.203  0.00  0.00    +0.000 N 
ATOM     11  O   UNL     1       0.959   3.965  17.257  0.00  0.00    +0.000 OA
ENDBRANCH   3  10
ENDBRANCH   1   8
BRANCH   2  12
ATOM     12  C   UNL     1       5.436   4.709  17.099  0.00  0.00    +0.000 A 
ATOM     13  C   UNL     1       4.897   5.049  15.847  0.00  0.00    +0.000 A 
ATOM     14  C   UNL     1       5.718   5.261  14.736  0.00  0.00    +0.000 A 
ATOM     15  C   UNL     1       7.093   5.125  14.866  0.00  0.00    +0.000 A 
ATOM     16  C   UNL     1       7.664   4.771  16.082  0.00  0.00    +0.000 A 
ATOM     17  C   UNL     1       6.836   4.563  17.186  0.00  0.00    +0.000 A 
BRANCH  15  18
ATOM     18  O   UNL     1       7.929   5.335  13.809  0.00  0.00    +0.000 OA
ATOM     19  H   UNL     1       7.683   6.172  13.380  0.00  0.00    +0.000 HD
ENDBRANCH  15  18
BRANCH  17  20
ATOM     20  O   UNL     1       7.404   4.210  18.392  0.00  0.00    +0.000 OA
ATOM     21  H   UNL     1       6.856   3.522  18.806  0.00  0.00    +0.000 HD
ENDBRANCH  17  20
ENDBRANCH   2  12
TORSDOF 5
ENDMDL
MODEL 8
REMARK VINA RESULT:      -7.0      1.105      1.209
REMARK  Name = 
REMARK  5 active torsions:
REMARK  status: ('A' for Active; 'I' for Inactive)
REMARK    1  A    between atoms: N_2  and  C_4
REMARK    2  A    between atoms: C_9  and  N_10
REMARK    3  A    between atoms: N_11  and  C_12
REMARK    4  A    between atoms: C_15  and  O_16
REMARK    5  A    between atoms: C_18  and  O_19
REMARK                            x       y       z     vdW  Elec       q    Type
REMARK                         _______ _______ _______ _____ _____    ______ ____
ROOT
ATOM      1  N   UNL     1       4.873   3.582  17.477  0.00  0.00    +0.000 NA
ATOM      2  N   UNL     1       3.739   4.107  17.543  0.00  0.00    +0.000 NA
ENDROOT
BRANCH   1   8
ATOM      3  C   UNL     1       6.767   4.777  16.450  0.00  0.00    +0.000 A 
ATOM      4  C   UNL     1       7.497   5.214  15.331  0.00  0.00    +0.000 A 
ATOM      5  C   UNL     1       7.037   4.901  14.055  0.00  0.00    +0.000 A 
ATOM      6  C   UNL     1       5.861   4.168  13.907  0.00  0.00    +0.000 A 
ATOM      7  C   UNL     1       5.151   3.736  15.033  0.00  0.00    +0.000 A 
ATOM      8  C   UNL     1       5.596   4.014  16.338  0.00  0.00    +0.000 A 
BRANCH   3  10
ATOM      9  O   UNL     1       8.056   4.390  18.304  0.00  0.00    +0.000 OA
ATOM     10  N   UNL     1       7.259   5.163  17.753  0.00  0.00    +0.000 N 
ATOM     11  O   UNL     1       6.911   6.267  18.193  0.00  0.00    +0.000 OA
ENDBRANCH   3  10
ENDBRANCH   1   8
BRANCH   2  12
ATOM     12  C   UNL     1       3.041   3.798  18.735  0.00  0.00    +0.000 A 
ATOM     13  C   UNL     1       2.966   4.681  19.825  0.00  0.00    +0.000 A 
ATOM     14  C   UNL     1       2.272   4.339  20.989  0.00  0.00    +0.000 A 
ATOM     15  C   UNL     1       1.650   3.101  21.076  0.00  0.00    +0.000 A 
ATOM     16  C   UNL     1       1.717   2.193  20.028  0.00  0.00    +0.000 A 
ATOM     17  C   UNL     1       2.411   2.543  18.869  0.00  0.00    +0.000 A 
BRANCH  15  18
ATOM     18  O   UNL     1       0.953   2.736  22.190  0.00  0.00    +0.000 OA
ATOM     19  H   UNL     1       1.099   1.789  22.352  0.00  0.00    +0.000 HD
ENDBRANCH  15  18
BRANCH  17  20
ATOM     20  O   UNL     1       2.478   1.640  17.829  0.00  0.00    +0.000 OA
ATOM     21  H   UNL     1       3.319   1.768  17.358  0.00  0.00    +0.000 HD
ENDBRANCH  17  20
ENDBRANCH   2  12
TORSDOF 5
ENDMDL
MODEL 9
REMARK VINA RESULT:      -7.0      2.132      6.329
REMARK  Name = 
REMARK  5 active torsions:
REMARK  status: ('A' for Active; 'I' for Inactive)
REMARK    1  A    between atoms: N_2  and  C_4
REMARK    2  A    between atoms: C_9  and  N_10
REMARK    3  A    between atoms: N_11  and  C_12
REMARK    4  A    between atoms: C_15  and  O_16
REMARK    5  A    between atoms: C_18  and  O_19
REMARK                            x       y       z     vdW  Elec       q    Type
REMARK                         _______ _______ _______ _____ _____    ______ ____
ROOT
ATOM      1  N   UNL     1       3.331   4.394  17.184  0.00  0.00    +0.000 NA
ATOM      2  N   UNL     1       4.308   3.623  17.055  0.00  0.00    +0.000 NA
ENDROOT
BRANCH   1   8
ATOM      3  C   UNL     1       2.300   4.673  19.405  0.00  0.00    +0.000 A 
ATOM      4  C   UNL     1       1.426   4.263  20.426  0.00  0.00    +0.000 A 
ATOM      5  C   UNL     1       0.684   3.098  20.258  0.00  0.00    +0.000 A 
ATOM      6  C   UNL     1       0.823   2.355  19.088  0.00  0.00    +0.000 A 
ATOM      7  C   UNL     1       1.694   2.782  18.079  0.00  0.00    +0.000 A 
ATOM      8  C   UNL     1       2.444   3.966  18.202  0.00  0.00    +0.000 A 
BRANCH   3  10
ATOM      9  O   UNL     1       2.460   6.930  19.767  0.00  0.00    +0.000 OA
ATOM     10  N   UNL     1       3.083   5.866  19.642  0.00  0.00    +0.000 N 
ATOM     11  O   UNL     1       4.306   5.731  19.778  0.00  0.00    +0.000 OA
ENDBRANCH   3  10
ENDBRANCH   1   8
BRANCH   2  12
ATOM     12  C   UNL     1       5.279   4.090  16.137  0.00  0.00    +0.000 A 
ATOM     13  C   UNL     1       5.275   3.738  14.778  0.00  0.00    +0.000 A 
ATOM     14  C   UNL     1       6.254   4.215  13.902  0.00  0.00    +0.000 A 
ATOM     15  C   UNL     1       7.256   5.047  14.382  0.00  0.00    +0.000 A 
ATOM     16  C   UNL     1       7.306   5.403  15.724  0.00  0.00    +0.000 A 
ATOM     17  C   UNL     1       6.323   4.924  16.591  0.00  0.00    +0.000 A 
BRANCH  15  18
ATOM     18  O   UNL     1       8.221   5.543  13.556  0.00  0.00    +0.000 OA
ATOM     19  H   UNL     1       8.697   6.250  14.024  0.00  0.00    +0.000 HD
ENDBRANCH  15  18
BRANCH  17  20
ATOM     20  O   UNL     1       6.375   5.277  17.923  0.00  0.00    +0.000 OA
ATOM     21  H   UNL     1       6.180   6.227  18.001  0.00  0.00    +0.000 HD
ENDBRANCH  17  20
ENDBRANCH   2  12
TORSDOF 5
ENDMDL
