MODEL 1
REMARK VINA RESULT:      -8.9      0.000      0.000
REMARK  Name = 
REMARK  9 active torsions:
REMARK  status: ('A' for Active; 'I' for Inactive)
REMARK    1  A    between atoms: C_2  and  O_3
REMARK    2  A    between atoms: C_2  and  C_4
REMARK    3  A    between atoms: C_7  and  C_8
REMARK    4  A    between atoms: C_8  and  C_10
REMARK    5  A    between atoms: C_10  and  S_22
REMARK    6  A    between atoms: C_11  and  C_12
REMARK    7  A    between atoms: C_17  and  N_18
REMARK    8  A    between atoms: S_22  and  C_23
REMARK    9  A    between atoms: C_23  and  C_24
REMARK                            x       y       z     vdW  Elec       q    Type
REMARK                         _______ _______ _______ _____ _____    ______ ____
ROOT
ATOM      1  C   UNL     1       5.589   5.219  17.356  0.00  0.00    +0.000 C 
ATOM      2  C   UNL     1       6.262   4.409  16.504  0.00  0.00    +0.000 C 
ENDROOT
BRANCH   2   3
ATOM      3  C   UNL     1       6.495   4.432  15.050  0.00  0.00    +0.000 A 
ATOM      4  C   UNL     1       7.561   5.190  14.539  0.00  0.00    +0.000 A 
ATOM      5  C   UNL     1       7.839   5.201  13.167  0.00  0.00    +0.000 A 
ATOM      6  C   UNL     1       7.059   4.449  12.293  0.00  0.00    +0.000 A 
ATOM      7  F   UNL     1       7.373   4.484  10.992  0.00  0.00    +0.000 F 
ATOM      8  C   UNL     1       6.018   3.672  12.788  0.00  0.00    +0.000 A 
ATOM      9  C   UNL     1       5.749   3.648  14.167  0.00  0.00    +0.000 A 
BRANCH   8  10
ATOM     10  N   UNL     1       5.198   2.843  11.915  0.00  0.00    +0.000 N 
ATOM     11  O   UNL     1       5.642   1.734  11.563  0.00  0.00    +0.000 OA
ATOM     12  O   UNL     1       4.081   3.270  11.602  0.00  0.00    +0.000 OA
ENDBRANCH   8  10
ENDBRANCH   2   3
BRANCH   1  13
ATOM     13  C   UNL     1       4.784   6.489  17.040  0.00  0.00    +0.000 C 
ATOM     14  O   UNL     1       5.122   7.246  16.124  0.00  0.00    +0.000 OA
BRANCH  13  18
ATOM     15  C   UNL     1       1.763   8.100  19.612  0.00  0.00    +0.000 A 
ATOM     16  C   UNL     1       2.343   6.864  19.922  0.00  0.00    +0.000 A 
ATOM     17  C   UNL     1       3.233   6.257  19.027  0.00  0.00    +0.000 A 
ATOM     18  C   UNL     1       3.612   6.916  17.861  0.00  0.00    +0.000 A 
ATOM     19  C   UNL     1       2.941   8.105  17.502  0.00  0.00    +0.000 A 
ATOM     20  C   UNL     1       2.031   8.705  18.381  0.00  0.00    +0.000 A 
BRANCH  15  22
ATOM     21  O   UNL     1       1.235   8.647  21.853  0.00  0.00    +0.000 OA
ATOM     22  C   UNL     1       0.983   8.793  20.672  0.00  0.00    +0.000 C 
BRANCH  22  23
ATOM     23  O   UNL     1      -0.014   9.565  20.206  0.00  0.00    +0.000 OA
ATOM     24  H   UNL     1      -0.669   9.110  19.643  0.00  0.00    +0.000 HD
ENDBRANCH  22  23
ENDBRANCH  15  22
ENDBRANCH  13  18
ENDBRANCH   1  13
BRANCH   1  25
ATOM     25  S   UNL     1       5.419   4.723  19.054  0.00  0.00    +0.000 S 
BRANCH  25  26
ATOM     26  C   UNL     1       4.738   3.037  18.993  0.00  0.00    +0.000 C 
BRANCH  26  27
ATOM     27  C   UNL     1       3.319   2.964  19.515  0.00  0.00    +0.000 A 
ATOM     28  C   UNL     1       3.109   2.783  20.897  0.00  0.00    +0.000 A 
ATOM     29  C   UNL     1       1.820   2.719  21.430  0.00  0.00    +0.000 A 
ATOM     30  C   UNL     1       0.714   2.829  20.592  0.00  0.00    +0.000 A 
ATOM     31  C   UNL     1       0.902   3.005  19.222  0.00  0.00    +0.000 A 
ATOM     32  C   UNL     1       2.193   3.070  18.684  0.00  0.00    +0.000 A 
ATOM     33 CL   UNL     1       2.336   3.305  16.979  0.00  0.00    +0.000 Cl
ENDBRANCH  26  27
ENDBRANCH  25  26
ENDBRANCH   1  25
TORSDOF 9
ENDMDL
MODEL 2
REMARK VINA RESULT:      -8.8      3.222      7.437
REMARK  Name = 
REMARK  9 active torsions:
REMARK  status: ('A' for Active; 'I' for Inactive)
REMARK    1  A    between atoms: C_2  and  O_3
REMARK    2  A    between atoms: C_2  and  C_4
REMARK    3  A    between atoms: C_7  and  C_8
REMARK    4  A    between atoms: C_8  and  C_10
REMARK    5  A    between atoms: C_10  and  S_22
REMARK    6  A    between atoms: C_11  and  C_12
REMARK    7  A    between atoms: C_17  and  N_18
REMARK    8  A    between atoms: S_22  and  C_23
REMARK    9  A    between atoms: C_23  and  C_24
REMARK                            x       y       z     vdW  Elec       q    Type
REMARK                         _______ _______ _______ _____ _____    ______ ____
ROOT
ATOM      1  C   UNL     1       4.689   5.580  18.685  0.00  0.00    +0.000 C 
ATOM      2  C   UNL     1       3.634   6.068  19.381  0.00  0.00    +0.000 C 
ENDROOT
BRANCH   2   3
ATOM      3  C   UNL     1       2.749   7.232  19.202  0.00  0.00    +0.000 A 
ATOM      4  C   UNL     1       2.523   7.728  17.907  0.00  0.00    +0.000 A 
ATOM      5  C   UNL     1       1.654   8.804  17.694  0.00  0.00    +0.000 A 
ATOM      6  C   UNL     1       0.996   9.392  18.771  0.00  0.00    +0.000 A 
ATOM      7  F   UNL     1       0.167  10.411  18.513  0.00  0.00    +0.000 F 
ATOM      8  C   UNL     1       1.190   8.894  20.055  0.00  0.00    +0.000 A 
ATOM      9  C   UNL     1       2.049   7.803  20.267  0.00  0.00    +0.000 A 
BRANCH   8  10
ATOM     10  N   UNL     1       0.497   9.455  21.207  0.00  0.00    +0.000 N 
ATOM     11  O   UNL     1       0.961  10.483  21.734  0.00  0.00    +0.000 OA
ATOM     12  O   UNL     1      -0.544   8.900  21.575  0.00  0.00    +0.000 OA
ENDBRANCH   8  10
ENDBRANCH   2   3
BRANCH   1  13
ATOM     13  C   UNL     1       5.348   6.145  17.417  0.00  0.00    +0.000 C 
ATOM     14  O   UNL     1       5.536   7.359  17.284  0.00  0.00    +0.000 OA
BRANCH  13  18
ATOM     15  C   UNL     1       6.347   4.124  13.776  0.00  0.00    +0.000 A 
ATOM     16  C   UNL     1       5.098   3.897  14.369  0.00  0.00    +0.000 A 
ATOM     17  C   UNL     1       4.803   4.442  15.625  0.00  0.00    +0.000 A 
ATOM     18  C   UNL     1       5.718   5.281  16.257  0.00  0.00    +0.000 A 
ATOM     19  C   UNL     1       7.012   5.413  15.710  0.00  0.00    +0.000 A 
ATOM     20  C   UNL     1       7.322   4.851  14.465  0.00  0.00    +0.000 A 
BRANCH  15  22
ATOM     21  O   UNL     1       5.959   2.729  11.905  0.00  0.00    +0.000 OA
ATOM     22  C   UNL     1       6.541   3.692  12.366  0.00  0.00    +0.000 C 
BRANCH  22  23
ATOM     23  O   UNL     1       7.414   4.445  11.676  0.00  0.00    +0.000 OA
ATOM     24  H   UNL     1       8.326   4.101  11.636  0.00  0.00    +0.000 HD
ENDBRANCH  22  23
ENDBRANCH  15  22
ENDBRANCH  13  18
ENDBRANCH   1  13
BRANCH   1  25
ATOM     25  S   UNL     1       5.596   4.208  19.358  0.00  0.00    +0.000 S 
BRANCH  25  26
ATOM     26  C   UNL     1       4.578   2.743  19.003  0.00  0.00    +0.000 C 
BRANCH  26  27
ATOM     27  C   UNL     1       3.215   2.810  19.656  0.00  0.00    +0.000 A 
ATOM     28  C   UNL     1       3.115   2.610  21.048  0.00  0.00    +0.000 A 
ATOM     29  C   UNL     1       1.881   2.672  21.701  0.00  0.00    +0.000 A 
ATOM     30  C   UNL     1       0.722   2.931  20.975  0.00  0.00    +0.000 A 
ATOM     31  C   UNL     1       0.801   3.129  19.597  0.00  0.00    +0.000 A 
ATOM     32  C   UNL     1       2.036   3.067  18.940  0.00  0.00    +0.000 A 
ATOM     33 CL   UNL     1       2.045   3.340  17.234  0.00  0.00    +0.000 Cl
ENDBRANCH  26  27
ENDBRANCH  25  26
ENDBRANCH   1  25
TORSDOF 9
ENDMDL
MODEL 3
REMARK VINA RESULT:      -8.7      4.170      7.796
REMARK  Name = 
REMARK  9 active torsions:
REMARK  status: ('A' for Active; 'I' for Inactive)
REMARK    1  A    between atoms: C_2  and  O_3
REMARK    2  A    between atoms: C_2  and  C_4
REMARK    3  A    between atoms: C_7  and  C_8
REMARK    4  A    between atoms: C_8  and  C_10
REMARK    5  A    between atoms: C_10  and  S_22
REMARK    6  A    between atoms: C_11  and  C_12
REMARK    7  A    between atoms: C_17  and  N_18
REMARK    8  A    between atoms: S_22  and  C_23
REMARK    9  A    between atoms: C_23  and  C_24
REMARK                            x       y       z     vdW  Elec       q    Type
REMARK                         _______ _______ _______ _____ _____    ______ ____
ROOT
ATOM      1  C   UNL     1       1.934   7.636  20.021  0.00  0.00    +0.000 C 
ATOM      2  C   UNL     1       1.798   6.525  20.783  0.00  0.00    +0.000 C 
ENDROOT
BRANCH   2   3
ATOM      3  C   UNL     1       1.876   5.082  20.499  0.00  0.00    +0.000 A 
ATOM      4  C   UNL     1       0.739   4.417  20.009  0.00  0.00    +0.000 A 
ATOM      5  C   UNL     1       0.789   3.056  19.687  0.00  0.00    +0.000 A 
ATOM      6  C   UNL     1       1.976   2.346  19.845  0.00  0.00    +0.000 A 
ATOM      7  F   UNL     1       1.975   1.049  19.512  0.00  0.00    +0.000 F 
ATOM      8  C   UNL     1       3.116   2.997  20.303  0.00  0.00    +0.000 A 
ATOM      9  C   UNL     1       3.071   4.367  20.611  0.00  0.00    +0.000 A 
BRANCH   8  10
ATOM     10  N   UNL     1       4.388   2.303  20.451  0.00  0.00    +0.000 N 
ATOM     11  O   UNL     1       5.263   2.479  19.583  0.00  0.00    +0.000 OA
ATOM     12  O   UNL     1       4.546   1.605  21.459  0.00  0.00    +0.000 OA
ENDBRANCH   8  10
ENDBRANCH   2   3
BRANCH   1  13
ATOM     13  C   UNL     1       2.208   7.738  18.512  0.00  0.00    +0.000 C 
ATOM     14  O   UNL     1       1.441   8.356  17.766  0.00  0.00    +0.000 OA
BRANCH  13  18
ATOM     15  C   UNL     1       5.595   5.504  17.142  0.00  0.00    +0.000 A 
ATOM     16  C   UNL     1       5.715   6.885  17.338  0.00  0.00    +0.000 A 
ATOM     17  C   UNL     1       4.589   7.655  17.656  0.00  0.00    +0.000 A 
ATOM     18  C   UNL     1       3.356   7.040  17.860  0.00  0.00    +0.000 A 
ATOM     19  C   UNL     1       3.218   5.670  17.552  0.00  0.00    +0.000 A 
ATOM     20  C   UNL     1       4.336   4.899  17.209  0.00  0.00    +0.000 A 
BRANCH  15  22
ATOM     21  O   UNL     1       7.438   4.629  15.943  0.00  0.00    +0.000 OA
ATOM     22  C   UNL     1       6.841   4.705  17.001  0.00  0.00    +0.000 C 
BRANCH  22  23
ATOM     23  O   UNL     1       7.224   4.079  18.127  0.00  0.00    +0.000 OA
ATOM     24  H   UNL     1       6.646   3.349  18.418  0.00  0.00    +0.000 HD
ENDBRANCH  22  23
ENDBRANCH  15  22
ENDBRANCH  13  18
ENDBRANCH   1  13
BRANCH   1  25
ATOM     25  S   UNL     1       1.592   9.221  20.749  0.00  0.00    +0.000 S 
BRANCH  25  26
ATOM     26  C   UNL     1      -0.133   9.588  20.304  0.00  0.00    +0.000 C 
BRANCH  26  27
ATOM     27  C   UNL     1      -0.287  10.942  19.644  0.00  0.00    +0.000 A 
ATOM     28  C   UNL     1       0.457  12.031  20.140  0.00  0.00    +0.000 A 
ATOM     29  C   UNL     1       0.358  13.298  19.560  0.00  0.00    +0.000 A 
ATOM     30  C   UNL     1      -0.490  13.503  18.476  0.00  0.00    +0.000 A 
ATOM     31  C   UNL     1      -1.236  12.438  17.973  0.00  0.00    +0.000 A 
ATOM     32  C   UNL     1      -1.140  11.166  18.552  0.00  0.00    +0.000 A 
ATOM     33 CL   UNL     1      -2.087   9.900  17.858  0.00  0.00    +0.000 Cl
ENDBRANCH  26  27
ENDBRANCH  25  26
ENDBRANCH   1  25
TORSDOF 9
ENDMDL
MODEL 4
REMARK VINA RESULT:      -8.7      3.597      6.276
REMARK  Name = 
REMARK  9 active torsions:
REMARK  status: ('A' for Active; 'I' for Inactive)
REMARK    1  A    between atoms: C_2  and  O_3
REMARK    2  A    between atoms: C_2  and  C_4
REMARK    3  A    between atoms: C_7  and  C_8
REMARK    4  A    between atoms: C_8  and  C_10
REMARK    5  A    between atoms: C_10  and  S_22
REMARK    6  A    between atoms: C_11  and  C_12
REMARK    7  A    between atoms: C_17  and  N_18
REMARK    8  A    between atoms: S_22  and  C_23
REMARK    9  A    between atoms: C_23  and  C_24
REMARK                            x       y       z     vdW  Elec       q    Type
REMARK                         _______ _______ _______ _____ _____    ______ ____
ROOT
ATOM      1  C   UNL     1       2.685   8.257  18.081  0.00  0.00    +0.000 C 
ATOM      2  C   UNL     1       3.743   8.090  17.252  0.00  0.00    +0.000 C 
ENDROOT
BRANCH   2   3
ATOM      3  C   UNL     1       4.786   7.057  17.130  0.00  0.00    +0.000 A 
ATOM      4  C   UNL     1       5.414   6.577  18.292  0.00  0.00    +0.000 A 
ATOM      5  C   UNL     1       6.378   5.566  18.218  0.00  0.00    +0.000 A 
ATOM      6  C   UNL     1       6.719   5.017  16.985  0.00  0.00    +0.000 A 
ATOM      7  F   UNL     1       7.639   4.044  16.970  0.00  0.00    +0.000 F 
ATOM      8  C   UNL     1       6.085   5.462  15.830  0.00  0.00    +0.000 A 
ATOM      9  C   UNL     1       5.106   6.467  15.905  0.00  0.00    +0.000 A 
BRANCH   8  10
ATOM     10  N   UNL     1       6.385   4.894  14.523  0.00  0.00    +0.000 N 
ATOM     11  O   UNL     1       7.406   5.285  13.927  0.00  0.00    +0.000 OA
ATOM     12  O   UNL     1       5.628   4.018  14.092  0.00  0.00    +0.000 OA
ENDBRANCH   8  10
ENDBRANCH   2   3
BRANCH   1  13
ATOM     13  C   UNL     1       2.229   7.367  19.248  0.00  0.00    +0.000 C 
ATOM     14  O   UNL     1       1.832   7.862  20.309  0.00  0.00    +0.000 OA
BRANCH  13  18
ATOM     15  C   UNL     1       3.029   3.164  19.054  0.00  0.00    +0.000 A 
ATOM     16  C   UNL     1       2.463   3.810  17.947  0.00  0.00    +0.000 A 
ATOM     17  C   UNL     1       2.071   5.151  18.035  0.00  0.00    +0.000 A 
ATOM     18  C   UNL     1       2.316   5.877  19.198  0.00  0.00    +0.000 A 
ATOM     19  C   UNL     1       2.780   5.194  20.342  0.00  0.00    +0.000 A 
ATOM     20  C   UNL     1       3.152   3.846  20.268  0.00  0.00    +0.000 A 
BRANCH  15  22
ATOM     21  O   UNL     1       4.436   1.347  19.615  0.00  0.00    +0.000 OA
ATOM     22  C   UNL     1       3.606   1.808  18.854  0.00  0.00    +0.000 C 
BRANCH  22  23
ATOM     23  O   UNL     1       3.141   1.167  17.769  0.00  0.00    +0.000 OA
ATOM     24  H   UNL     1       3.578   1.396  16.927  0.00  0.00    +0.000 HD
ENDBRANCH  22  23
ENDBRANCH  15  22
ENDBRANCH  13  18
ENDBRANCH   1  13
BRANCH   1  25
ATOM     25  S   UNL     1       1.753   9.767  17.986  0.00  0.00    +0.000 S 
BRANCH  25  26
ATOM     26  C   UNL     1       0.030   9.248  17.716  0.00  0.00    +0.000 C 
BRANCH  26  27
ATOM     27  C   UNL     1      -0.969  10.242  18.266  0.00  0.00    +0.000 A 
ATOM     28  C   UNL     1      -0.670  10.916  19.467  0.00  0.00    +0.000 A 
ATOM     29  C   UNL     1      -1.554  11.850  20.012  0.00  0.00    +0.000 A 
ATOM     30  C   UNL     1      -2.758  12.126  19.369  0.00  0.00    +0.000 A 
ATOM     31  C   UNL     1      -3.073  11.468  18.182  0.00  0.00    +0.000 A 
ATOM     32  C   UNL     1      -2.188  10.530  17.633  0.00  0.00    +0.000 A 
ATOM     33 CL   UNL     1      -2.649   9.772  16.151  0.00  0.00    +0.000 Cl
ENDBRANCH  26  27
ENDBRANCH  25  26
ENDBRANCH   1  25
TORSDOF 9
ENDMDL
MODEL 5
REMARK VINA RESULT:      -8.5      3.902      6.813
REMARK  Name = 
REMARK  9 active torsions:
REMARK  status: ('A' for Active; 'I' for Inactive)
REMARK    1  A    between atoms: C_2  and  O_3
REMARK    2  A    between atoms: C_2  and  C_4
REMARK    3  A    between atoms: C_7  and  C_8
REMARK    4  A    between atoms: C_8  and  C_10
REMARK    5  A    between atoms: C_10  and  S_22
REMARK    6  A    between atoms: C_11  and  C_12
REMARK    7  A    between atoms: C_17  and  N_18
REMARK    8  A    between atoms: S_22  and  C_23
REMARK    9  A    between atoms: C_23  and  C_24
REMARK                            x       y       z     vdW  Elec       q    Type
REMARK                         _______ _______ _______ _____ _____    ______ ____
ROOT
ATOM      1  C   UNL     1       2.486   7.908  17.986  0.00  0.00    +0.000 C 
ATOM      2  C   UNL     1       3.586   7.841  17.199  0.00  0.00    +0.000 C 
ENDROOT
BRANCH   2   3
ATOM      3  C   UNL     1       4.766   6.960  17.174  0.00  0.00    +0.000 A 
ATOM      4  C   UNL     1       5.409   6.640  18.381  0.00  0.00    +0.000 A 
ATOM      5  C   UNL     1       6.506   5.772  18.400  0.00  0.00    +0.000 A 
ATOM      6  C   UNL     1       6.968   5.207  17.214  0.00  0.00    +0.000 A 
ATOM      7  F   UNL     1       8.013   4.373  17.288  0.00  0.00    +0.000 F 
ATOM      8  C   UNL     1       6.324   5.492  16.015  0.00  0.00    +0.000 A 
ATOM      9  C   UNL     1       5.212   6.352  15.998  0.00  0.00    +0.000 A 
BRANCH   8  10
ATOM     10  N   UNL     1       6.750   4.898  14.756  0.00  0.00    +0.000 N 
ATOM     11  O   UNL     1       6.123   3.913  14.324  0.00  0.00    +0.000 OA
ATOM     12  O   UNL     1       7.692   5.432  14.160  0.00  0.00    +0.000 OA
ENDBRANCH   8  10
ENDBRANCH   2   3
BRANCH   1  13
ATOM     13  C   UNL     1       2.116   7.035  19.196  0.00  0.00    +0.000 C 
ATOM     14  O   UNL     1       1.669   7.540  20.232  0.00  0.00    +0.000 OA
BRANCH  13  18
ATOM     15  C   UNL     1       3.328   2.928  19.249  0.00  0.00    +0.000 A 
ATOM     16  C   UNL     1       2.793   3.473  18.075  0.00  0.00    +0.000 A 
ATOM     17  C   UNL     1       2.268   4.772  18.073  0.00  0.00    +0.000 A 
ATOM     18  C   UNL     1       2.349   5.560  19.218  0.00  0.00    +0.000 A 
ATOM     19  C   UNL     1       2.783   4.969  20.424  0.00  0.00    +0.000 A 
ATOM     20  C   UNL     1       3.287   3.663  20.438  0.00  0.00    +0.000 A 
BRANCH  15  22
ATOM     21  O   UNL     1       3.683   0.750  18.396  0.00  0.00    +0.000 OA
ATOM     22  C   UNL     1       4.046   1.629  19.154  0.00  0.00    +0.000 C 
BRANCH  22  23
ATOM     23  O   UNL     1       5.100   1.522  19.981  0.00  0.00    +0.000 OA
ATOM     24  H   UNL     1       5.976   1.588  19.555  0.00  0.00    +0.000 HD
ENDBRANCH  22  23
ENDBRANCH  15  22
ENDBRANCH  13  18
ENDBRANCH   1  13
BRANCH   1  25
ATOM     25  S   UNL     1       1.357   9.263  17.767  0.00  0.00    +0.000 S 
BRANCH  25  26
ATOM     26  C   UNL     1       2.273  10.739  18.307  0.00  0.00    +0.000 C 
BRANCH  26  27
ATOM     27  C   UNL     1       1.363  11.913  18.598  0.00  0.00    +0.000 A 
ATOM     28  C   UNL     1       0.011  11.667  18.909  0.00  0.00    +0.000 A 
ATOM     29  C   UNL     1      -0.868  12.715  19.195  0.00  0.00    +0.000 A 
ATOM     30  C   UNL     1      -0.413  14.030  19.171  0.00  0.00    +0.000 A 
ATOM     31  C   UNL     1       0.921  14.293  18.864  0.00  0.00    +0.000 A 
ATOM     32  C   UNL     1       1.805  13.245  18.576  0.00  0.00    +0.000 A 
ATOM     33 CL   UNL     1       3.443  13.658  18.221  0.00  0.00    +0.000 Cl
ENDBRANCH  26  27
ENDBRANCH  25  26
ENDBRANCH   1  25
TORSDOF 9
ENDMDL
MODEL 6
REMARK VINA RESULT:      -8.5      3.686      6.391
REMARK  Name = 
REMARK  9 active torsions:
REMARK  status: ('A' for Active; 'I' for Inactive)
REMARK    1  A    between atoms: C_2  and  O_3
REMARK    2  A    between atoms: C_2  and  C_4
REMARK    3  A    between atoms: C_7  and  C_8
REMARK    4  A    between atoms: C_8  and  C_10
REMARK    5  A    between atoms: C_10  and  S_22
REMARK    6  A    between atoms: C_11  and  C_12
REMARK    7  A    between atoms: C_17  and  N_18
REMARK    8  A    between atoms: S_22  and  C_23
REMARK    9  A    between atoms: C_23  and  C_24
REMARK                            x       y       z     vdW  Elec       q    Type
REMARK                         _______ _______ _______ _____ _____    ______ ____
ROOT
ATOM      1  C   UNL     1       2.702   8.073  18.072  0.00  0.00    +0.000 C 
ATOM      2  C   UNL     1       3.789   7.955  17.272  0.00  0.00    +0.000 C 
ENDROOT
BRANCH   2   3
ATOM      3  C   UNL     1       4.889   6.979  17.189  0.00  0.00    +0.000 A 
ATOM      4  C   UNL     1       5.519   6.554  18.371  0.00  0.00    +0.000 A 
ATOM      5  C   UNL     1       6.538   5.596  18.334  0.00  0.00    +0.000 A 
ATOM      6  C   UNL     1       6.935   5.047  17.118  0.00  0.00    +0.000 A 
ATOM      7  F   UNL     1       7.906   4.126  17.139  0.00  0.00    +0.000 F 
ATOM      8  C   UNL     1       6.301   5.438  15.943  0.00  0.00    +0.000 A 
ATOM      9  C   UNL     1       5.267   6.388  15.982  0.00  0.00    +0.000 A 
BRANCH   8  10
ATOM     10  N   UNL     1       6.660   4.865  14.653  0.00  0.00    +0.000 N 
ATOM     11  O   UNL     1       7.635   5.342  14.044  0.00  0.00    +0.000 OA
ATOM     12  O   UNL     1       5.997   3.904  14.249  0.00  0.00    +0.000 OA
ENDBRANCH   8  10
ENDBRANCH   2   3
BRANCH   1  13
ATOM     13  C   UNL     1       2.266   7.172  19.238  0.00  0.00    +0.000 C 
ATOM     14  O   UNL     1       1.805   7.656  20.278  0.00  0.00    +0.000 OA
BRANCH  13  18
ATOM     15  C   UNL     1       3.329   3.026  19.118  0.00  0.00    +0.000 A 
ATOM     16  C   UNL     1       2.730   3.615  17.998  0.00  0.00    +0.000 A 
ATOM     17  C   UNL     1       2.253   4.931  18.061  0.00  0.00    +0.000 A 
ATOM     18  C   UNL     1       2.446   5.690  19.213  0.00  0.00    +0.000 A 
ATOM     19  C   UNL     1       2.946   5.057  20.371  0.00  0.00    +0.000 A 
ATOM     20  C   UNL     1       3.402   3.734  20.321  0.00  0.00    +0.000 A 
BRANCH  15  22
ATOM     21  O   UNL     1       3.632   0.915  18.092  0.00  0.00    +0.000 OA
ATOM     22  C   UNL     1       3.991   1.705  18.944  0.00  0.00    +0.000 C 
BRANCH  22  23
ATOM     23  O   UNL     1       4.990   1.473  19.812  0.00  0.00    +0.000 OA
ATOM     24  H   UNL     1       5.749   0.974  19.454  0.00  0.00    +0.000 HD
ENDBRANCH  22  23
ENDBRANCH  15  22
ENDBRANCH  13  18
ENDBRANCH   1  13
BRANCH   1  25
ATOM     25  S   UNL     1       1.692   9.529  17.934  0.00  0.00    +0.000 S 
BRANCH  25  26
ATOM     26  C   UNL     1       0.004   8.913  17.655  0.00  0.00    +0.000 C 
BRANCH  26  27
ATOM     27  C   UNL     1      -1.050   9.968  17.914  0.00  0.00    +0.000 A 
ATOM     28  C   UNL     1      -1.978  10.268  16.896  0.00  0.00    +0.000 A 
ATOM     29  C   UNL     1      -2.976  11.227  17.088  0.00  0.00    +0.000 A 
ATOM     30  C   UNL     1      -3.064  11.907  18.299  0.00  0.00    +0.000 A 
ATOM     31  C   UNL     1      -2.153  11.626  19.316  0.00  0.00    +0.000 A 
ATOM     32  C   UNL     1      -1.151  10.666  19.127  0.00  0.00    +0.000 A 
ATOM     33 CL   UNL     1      -0.074  10.368  20.444  0.00  0.00    +0.000 Cl
ENDBRANCH  26  27
ENDBRANCH  25  26
ENDBRANCH   1  25
TORSDOF 9
ENDMDL
MODEL 7
REMARK VINA RESULT:      -8.4      2.345      3.965
REMARK  Name = 
REMARK  9 active torsions:
REMARK  status: ('A' for Active; 'I' for Inactive)
REMARK    1  A    between atoms: C_2  and  O_3
REMARK    2  A    between atoms: C_2  and  C_4
REMARK    3  A    between atoms: C_7  and  C_8
REMARK    4  A    between atoms: C_8  and  C_10
REMARK    5  A    between atoms: C_10  and  S_22
REMARK    6  A    between atoms: C_11  and  C_12
REMARK    7  A    between atoms: C_17  and  N_18
REMARK    8  A    between atoms: S_22  and  C_23
REMARK    9  A    between atoms: C_23  and  C_24
REMARK                            x       y       z     vdW  Elec       q    Type
REMARK                         _______ _______ _______ _____ _____    ______ ____
ROOT
ATOM      1  C   UNL     1       5.336   5.782  16.477  0.00  0.00    +0.000 C 
ATOM      2  C   UNL     1       5.555   6.016  15.162  0.00  0.00    +0.000 C 
ENDROOT
BRANCH   2   3
ATOM      3  C   UNL     1       6.092   5.200  14.059  0.00  0.00    +0.000 A 
ATOM      4  C   UNL     1       7.463   5.270  13.759  0.00  0.00    +0.000 A 
ATOM      5  C   UNL     1       8.015   4.476  12.747  0.00  0.00    +0.000 A 
ATOM      6  C   UNL     1       7.206   3.600  12.029  0.00  0.00    +0.000 A 
ATOM      7  F   UNL     1       7.786   2.855  11.080  0.00  0.00    +0.000 F 
ATOM      8  C   UNL     1       5.853   3.500  12.334  0.00  0.00    +0.000 A 
ATOM      9  C   UNL     1       5.301   4.285  13.361  0.00  0.00    +0.000 A 
BRANCH   8  10
ATOM     10  N   UNL     1       4.976   2.573  11.633  0.00  0.00    +0.000 N 
ATOM     11  O   UNL     1       5.382   1.413  11.430  0.00  0.00    +0.000 OA
ATOM     12  O   UNL     1       3.853   2.977  11.312  0.00  0.00    +0.000 OA
ENDBRANCH   8  10
ENDBRANCH   2   3
BRANCH   1  13
ATOM     13  C   UNL     1       5.624   4.507  17.287  0.00  0.00    +0.000 C 
ATOM     14  O   UNL     1       6.749   3.996  17.291  0.00  0.00    +0.000 OA
BRANCH  13  18
ATOM     15  C   UNL     1       2.320   2.923  19.503  0.00  0.00    +0.000 A 
ATOM     16  C   UNL     1       3.571   3.036  20.120  0.00  0.00    +0.000 A 
ATOM     17  C   UNL     1       4.694   3.425  19.378  0.00  0.00    +0.000 A 
ATOM     18  C   UNL     1       4.557   3.781  18.038  0.00  0.00    +0.000 A 
ATOM     19  C   UNL     1       3.320   3.557  17.396  0.00  0.00    +0.000 A 
ATOM     20  C   UNL     1       2.200   3.145  18.128  0.00  0.00    +0.000 A 
BRANCH  15  22
ATOM     21  O   UNL     1       1.226   2.589  21.575  0.00  0.00    +0.000 OA
ATOM     22  C   UNL     1       1.130   2.699  20.367  0.00  0.00    +0.000 C 
BRANCH  22  23
ATOM     23  O   UNL     1      -0.031   2.619  19.695  0.00  0.00    +0.000 OA
ATOM     24  H   UNL     1      -0.797   2.314  20.216  0.00  0.00    +0.000 HD
ENDBRANCH  22  23
ENDBRANCH  15  22
ENDBRANCH  13  18
ENDBRANCH   1  13
BRANCH   1  25
ATOM     25  S   UNL     1       4.813   7.129  17.512  0.00  0.00    +0.000 S 
BRANCH  25  26
ATOM     26  C   UNL     1       2.999   7.153  17.382  0.00  0.00    +0.000 C 
BRANCH  26  27
ATOM     27  C   UNL     1       2.327   7.499  18.693  0.00  0.00    +0.000 A 
ATOM     28  C   UNL     1       2.255   6.518  19.703  0.00  0.00    +0.000 A 
ATOM     29  C   UNL     1       1.654   6.791  20.934  0.00  0.00    +0.000 A 
ATOM     30  C   UNL     1       1.109   8.047  21.180  0.00  0.00    +0.000 A 
ATOM     31  C   UNL     1       1.168   9.030  20.193  0.00  0.00    +0.000 A 
ATOM     32  C   UNL     1       1.770   8.761  18.957  0.00  0.00    +0.000 A 
ATOM     33 CL   UNL     1       1.814  10.038  17.796  0.00  0.00    +0.000 Cl
ENDBRANCH  26  27
ENDBRANCH  25  26
ENDBRANCH   1  25
TORSDOF 9
ENDMDL
MODEL 8
REMARK VINA RESULT:      -8.4      5.894      9.126
REMARK  Name = 
REMARK  9 active torsions:
REMARK  status: ('A' for Active; 'I' for Inactive)
REMARK    1  A    between atoms: C_2  and  O_3
REMARK    2  A    between atoms: C_2  and  C_4
REMARK    3  A    between atoms: C_7  and  C_8
REMARK    4  A    between atoms: C_8  and  C_10
REMARK    5  A    between atoms: C_10  and  S_22
REMARK    6  A    between atoms: C_11  and  C_12
REMARK    7  A    between atoms: C_17  and  N_18
REMARK    8  A    between atoms: S_22  and  C_23
REMARK    9  A    between atoms: C_23  and  C_24
REMARK                            x       y       z     vdW  Elec       q    Type
REMARK                         _______ _______ _______ _____ _____    ______ ____
ROOT
ATOM      1  C   UNL     1       1.452   8.802  19.294  0.00  0.00    +0.000 C 
ATOM      2  C   UNL     1       1.122   8.904  20.603  0.00  0.00    +0.000 C 
ENDROOT
BRANCH   2   3
ATOM      3  C   UNL     1       0.362   9.893  21.386  0.00  0.00    +0.000 A 
ATOM      4  C   UNL     1      -0.449   9.452  22.446  0.00  0.00    +0.000 A 
ATOM      5  C   UNL     1      -1.151  10.367  23.238  0.00  0.00    +0.000 A 
ATOM      6  C   UNL     1      -1.046  11.732  22.986  0.00  0.00    +0.000 A 
ATOM      7  F   UNL     1      -1.729  12.566  23.780  0.00  0.00    +0.000 F 
ATOM      8  C   UNL     1      -0.226  12.184  21.958  0.00  0.00    +0.000 A 
ATOM      9  C   UNL     1       0.492  11.267  21.173  0.00  0.00    +0.000 A 
BRANCH   8  10
ATOM     10  N   UNL     1      -0.058  13.604  21.680  0.00  0.00    +0.000 N 
ATOM     11  O   UNL     1       0.798  14.237  22.326  0.00  0.00    +0.000 OA
ATOM     12  O   UNL     1      -0.751  14.098  20.783  0.00  0.00    +0.000 OA
ENDBRANCH   8  10
ENDBRANCH   2   3
BRANCH   1  13
ATOM     13  C   UNL     1       1.130   9.770  18.144  0.00  0.00    +0.000 C 
ATOM     14  O   UNL     1       2.030  10.249  17.445  0.00  0.00    +0.000 OA
BRANCH  13  18
ATOM     15  C   UNL     1      -2.950  11.042  17.880  0.00  0.00    +0.000 A 
ATOM     16  C   UNL     1      -2.584   9.791  17.367  0.00  0.00    +0.000 A 
ATOM     17  C   UNL     1      -1.237   9.412  17.322  0.00  0.00    +0.000 A 
ATOM     18  C   UNL     1      -0.258  10.242  17.862  0.00  0.00    +0.000 A 
ATOM     19  C   UNL     1      -0.619  11.544  18.273  0.00  0.00    +0.000 A 
ATOM     20  C   UNL     1      -1.962  11.938  18.298  0.00  0.00    +0.000 A 
BRANCH  15  22
ATOM     21  O   UNL     1      -5.228  10.429  18.076  0.00  0.00    +0.000 OA
ATOM     22  C   UNL     1      -4.397  11.318  18.087  0.00  0.00    +0.000 C 
BRANCH  22  23
ATOM     23  O   UNL     1      -4.688  12.618  18.268  0.00  0.00    +0.000 OA
ATOM     24  H   UNL     1      -4.283  13.033  19.052  0.00  0.00    +0.000 HD
ENDBRANCH  22  23
ENDBRANCH  15  22
ENDBRANCH  13  18
ENDBRANCH   1  13
BRANCH   1  25
ATOM     25  S   UNL     1       2.547   7.498  18.785  0.00  0.00    +0.000 S 
BRANCH  25  26
ATOM     26  C   UNL     1       2.186   6.109  19.903  0.00  0.00    +0.000 C 
BRANCH  26  27
ATOM     27  C   UNL     1       2.282   4.767  19.211  0.00  0.00    +0.000 A 
ATOM     28  C   UNL     1       2.543   4.730  17.826  0.00  0.00    +0.000 A 
ATOM     29  C   UNL     1       2.651   3.517  17.142  0.00  0.00    +0.000 A 
ATOM     30  C   UNL     1       2.494   2.316  17.827  0.00  0.00    +0.000 A 
ATOM     31  C   UNL     1       2.232   2.331  19.196  0.00  0.00    +0.000 A 
ATOM     32  C   UNL     1       2.124   3.546  19.885  0.00  0.00    +0.000 A 
ATOM     33 CL   UNL     1       1.813   3.475  21.583  0.00  0.00    +0.000 Cl
ENDBRANCH  26  27
ENDBRANCH  25  26
ENDBRANCH   1  25
TORSDOF 9
ENDMDL
MODEL 9
REMARK VINA RESULT:      -8.4      3.760      6.711
REMARK  Name = 
REMARK  9 active torsions:
REMARK  status: ('A' for Active; 'I' for Inactive)
REMARK    1  A    between atoms: C_2  and  O_3
REMARK    2  A    between atoms: C_2  and  C_4
REMARK    3  A    between atoms: C_7  and  C_8
REMARK    4  A    between atoms: C_8  and  C_10
REMARK    5  A    between atoms: C_10  and  S_22
REMARK    6  A    between atoms: C_11  and  C_12
REMARK    7  A    between atoms: C_17  and  N_18
REMARK    8  A    between atoms: S_22  and  C_23
REMARK    9  A    between atoms: C_23  and  C_24
REMARK                            x       y       z     vdW  Elec       q    Type
REMARK                         _______ _______ _______ _____ _____    ______ ____
ROOT
ATOM      1  C   UNL     1       2.550   7.706  18.039  0.00  0.00    +0.000 C 
ATOM      2  C   UNL     1       3.665   7.660  17.270  0.00  0.00    +0.000 C 
ENDROOT
BRANCH   2   3
ATOM      3  C   UNL     1       4.856   6.794  17.259  0.00  0.00    +0.000 A 
ATOM      4  C   UNL     1       5.470   6.457  18.477  0.00  0.00    +0.000 A 
ATOM      5  C   UNL     1       6.578   5.602  18.507  0.00  0.00    +0.000 A 
ATOM      6  C   UNL     1       7.079   5.068  17.323  0.00  0.00    +0.000 A 
ATOM      7  F   UNL     1       8.132   4.247  17.408  0.00  0.00    +0.000 F 
ATOM      8  C   UNL     1       6.464   5.371  16.113  0.00  0.00    +0.000 A 
ATOM      9  C   UNL     1       5.343   6.217  16.084  0.00  0.00    +0.000 A 
BRANCH   8  10
ATOM     10  N   UNL     1       6.933   4.809  14.854  0.00  0.00    +0.000 N 
ATOM     11  O   UNL     1       7.858   5.388  14.255  0.00  0.00    +0.000 OA
ATOM     12  O   UNL     1       6.411   3.758  14.466  0.00  0.00    +0.000 OA
ENDBRANCH   8  10
ENDBRANCH   2   3
BRANCH   1  13
ATOM     13  C   UNL     1       2.171   6.820  19.236  0.00  0.00    +0.000 C 
ATOM     14  O   UNL     1       1.678   7.308  20.258  0.00  0.00    +0.000 OA
BRANCH  13  18
ATOM     15  C   UNL     1       3.501   2.751  19.375  0.00  0.00    +0.000 A 
ATOM     16  C   UNL     1       3.108   3.306  18.151  0.00  0.00    +0.000 A 
ATOM     17  C   UNL     1       2.546   4.587  18.103  0.00  0.00    +0.000 A 
ATOM     18  C   UNL     1       2.448   5.352  19.262  0.00  0.00    +0.000 A 
ATOM     19  C   UNL     1       2.738   4.748  20.504  0.00  0.00    +0.000 A 
ATOM     20  C   UNL     1       3.279   3.458  20.561  0.00  0.00    +0.000 A 
BRANCH  15  22
ATOM     21  O   UNL     1       5.125   1.231  20.181  0.00  0.00    +0.000 OA
ATOM     22  C   UNL     1       4.268   1.477  19.354  0.00  0.00    +0.000 C 
BRANCH  22  23
ATOM     23  O   UNL     1       3.938   0.653  18.345  0.00  0.00    +0.000 OA
ATOM     24  H   UNL     1       3.386   1.049  17.644  0.00  0.00    +0.000 HD
ENDBRANCH  22  23
ENDBRANCH  15  22
ENDBRANCH  13  18
ENDBRANCH   1  13
BRANCH   1  25
ATOM     25  S   UNL     1       1.408   9.048  17.810  0.00  0.00    +0.000 S 
BRANCH  25  26
ATOM     26  C   UNL     1       1.678  10.152  19.230  0.00  0.00    +0.000 C 
BRANCH  26  27
ATOM     27  C   UNL     1       1.152  11.550  18.988  0.00  0.00    +0.000 A 
ATOM     28  C   UNL     1       2.072  12.603  18.809  0.00  0.00    +0.000 A 
ATOM     29  C   UNL     1       1.638  13.910  18.573  0.00  0.00    +0.000 A 
ATOM     30  C   UNL     1       0.276  14.191  18.515  0.00  0.00    +0.000 A 
ATOM     31  C   UNL     1      -0.649  13.163  18.692  0.00  0.00    +0.000 A 
ATOM     32  C   UNL     1      -0.217  11.852  18.929  0.00  0.00    +0.000 A 
ATOM     33 CL   UNL     1      -1.429  10.636  19.122  0.00  0.00    +0.000 Cl
ENDBRANCH  26  27
ENDBRANCH  25  26
ENDBRANCH   1  25
TORSDOF 9
ENDMDL
