MODEL 1
REMARK VINA RESULT:      -8.8      0.000      0.000
REMARK  Name = 
REMARK  6 active torsions:
REMARK  status: ('A' for Active; 'I' for Inactive)
REMARK    1  A    between atoms: C_2  and  C_3
REMARK    2  A    between atoms: C_4  and  C_5
REMARK    3  A    between atoms: N_11  and  C_12
REMARK    4  A    between atoms: C_15  and  S_16
REMARK    5  A    between atoms: S_16  and  C_19
REMARK    6  A    between atoms: C_22  and  C_23
REMARK                            x       y       z     vdW  Elec       q    Type
REMARK                         _______ _______ _______ _____ _____    ______ ____
ROOT
ATOM      1  C   UNL     1       2.382   7.922  18.404  0.00  0.00    +0.000 A 
ATOM      2  C   UNL     1       2.477   6.884  19.336  0.00  0.00    +0.000 A 
ATOM      3  C   UNL     1       3.547   5.984  19.298  0.00  0.00    +0.000 A 
ATOM      4  C   UNL     1       4.542   6.133  18.333  0.00  0.00    +0.000 A 
ATOM      5  C   UNL     1       4.468   7.166  17.396  0.00  0.00    +0.000 A 
ATOM      6  C   UNL     1       3.385   8.055  17.433  0.00  0.00    +0.000 A 
ENDROOT
BRANCH   1   9
ATOM      7  O   UNL     1       1.320   9.709  20.511  0.00  0.00    +0.000 OA
ATOM      8  C   UNL     1       0.802   9.565  19.411  0.00  0.00    +0.000 C 
ATOM      9  N   UNL     1       1.288   8.815  18.356  0.00  0.00    +0.000 N 
ATOM     10  H   UNL     1       0.829   8.905  17.460  0.00  0.00    +0.000 HD
BRANCH   8  11
ATOM     11  C   UNL     1      -0.482  10.244  19.079  0.00  0.00    +0.000 C 
ATOM     12  C   UNL     1      -1.140   9.917  17.953  0.00  0.00    +0.000 C 
BRANCH  12  13
ATOM     13  C   UNL     1      -2.395  10.546  17.524  0.00  0.00    +0.000 A 
ATOM     14  C   UNL     1      -2.899  10.432  16.225  0.00  0.00    +0.000 A 
ATOM     15  C   UNL     1      -4.099  11.050  15.883  0.00  0.00    +0.000 A 
ATOM     16  C   UNL     1      -4.777  11.756  16.862  0.00  0.00    +0.000 A 
ATOM     17  N   UNL     1      -4.346  11.868  18.136  0.00  0.00    +0.000 NA
ATOM     18  C   UNL     1      -3.174  11.256  18.437  0.00  0.00    +0.000 A 
ENDBRANCH  12  13
ENDBRANCH   8  11
ENDBRANCH   1   9
BRANCH   4  19
ATOM     19  S   UNL     1       5.834   4.915  18.229  0.00  0.00    +0.000 S 
ATOM     20  O   UNL     1       7.063   5.552  18.670  0.00  0.00    +0.000 OA
ATOM     21  O   UNL     1       5.355   3.720  18.902  0.00  0.00    +0.000 OA
BRANCH  19  22
ATOM     22  C   UNL     1       6.036   4.508  16.510  0.00  0.00    +0.000 A 
ATOM     23  C   UNL     1       5.026   3.816  15.838  0.00  0.00    +0.000 A 
ATOM     24  C   UNL     1       5.163   3.548  14.474  0.00  0.00    +0.000 A 
ATOM     25  C   UNL     1       6.300   3.979  13.771  0.00  0.00    +0.000 A 
ATOM     26  C   UNL     1       7.299   4.688  14.460  0.00  0.00    +0.000 A 
ATOM     27  C   UNL     1       7.168   4.957  15.825  0.00  0.00    +0.000 A 
BRANCH  25  28
ATOM     28  C   UNL     1       6.457   3.705  12.294  0.00  0.00    +0.000 C 
ATOM     29  F   UNL     1       7.311   4.562  11.668  0.00  0.00    +0.000 F 
ATOM     30  F   UNL     1       6.932   2.454  12.043  0.00  0.00    +0.000 F 
ATOM     31  F   UNL     1       5.276   3.798  11.621  0.00  0.00    +0.000 F 
ENDBRANCH  25  28
ENDBRANCH  19  22
ENDBRANCH   4  19
TORSDOF 6
ENDMDL
MODEL 2
REMARK VINA RESULT:      -8.8      0.517      1.114
REMARK  Name = 
REMARK  6 active torsions:
REMARK  status: ('A' for Active; 'I' for Inactive)
REMARK    1  A    between atoms: C_2  and  C_3
REMARK    2  A    between atoms: C_4  and  C_5
REMARK    3  A    between atoms: N_11  and  C_12
REMARK    4  A    between atoms: C_15  and  S_16
REMARK    5  A    between atoms: S_16  and  C_19
REMARK    6  A    between atoms: C_22  and  C_23
REMARK                            x       y       z     vdW  Elec       q    Type
REMARK                         _______ _______ _______ _____ _____    ______ ____
ROOT
ATOM      1  C   UNL     1       2.324   7.843  18.459  0.00  0.00    +0.000 A 
ATOM      2  C   UNL     1       2.453   6.795  19.377  0.00  0.00    +0.000 A 
ATOM      3  C   UNL     1       3.553   5.933  19.328  0.00  0.00    +0.000 A 
ATOM      4  C   UNL     1       4.542   6.128  18.365  0.00  0.00    +0.000 A 
ATOM      5  C   UNL     1       4.434   7.172  17.443  0.00  0.00    +0.000 A 
ATOM      6  C   UNL     1       3.322   8.024  17.492  0.00  0.00    +0.000 A 
ENDROOT
BRANCH   1   9
ATOM      7  O   UNL     1       1.393   9.808  20.468  0.00  0.00    +0.000 OA
ATOM      8  C   UNL     1       0.786   9.541  19.439  0.00  0.00    +0.000 C 
ATOM      9  N   UNL     1       1.201   8.700  18.423  0.00  0.00    +0.000 N 
ATOM     10  H   UNL     1       0.662   8.687  17.569  0.00  0.00    +0.000 HD
BRANCH   8  11
ATOM     11  C   UNL     1      -0.545  10.151  19.160  0.00  0.00    +0.000 C 
ATOM     12  C   UNL     1      -1.103  10.012  17.945  0.00  0.00    +0.000 C 
BRANCH  12  13
ATOM     13  C   UNL     1      -2.394  10.598  17.563  0.00  0.00    +0.000 A 
ATOM     14  C   UNL     1      -3.211  11.291  18.461  0.00  0.00    +0.000 A 
ATOM     15  C   UNL     1      -4.424  11.826  18.034  0.00  0.00    +0.000 A 
ATOM     16  C   UNL     1      -4.781  11.668  16.707  0.00  0.00    +0.000 A 
ATOM     17  N   UNL     1      -4.012  11.035  15.797  0.00  0.00    +0.000 NA
ATOM     18  C   UNL     1      -2.838  10.524  16.243  0.00  0.00    +0.000 A 
ENDBRANCH  12  13
ENDBRANCH   8  11
ENDBRANCH   1   9
BRANCH   4  19
ATOM     19  S   UNL     1       5.875   4.955  18.245  0.00  0.00    +0.000 S 
ATOM     20  O   UNL     1       7.090   5.641  18.647  0.00  0.00    +0.000 OA
ATOM     21  O   UNL     1       5.454   3.753  18.945  0.00  0.00    +0.000 OA
BRANCH  19  22
ATOM     22  C   UNL     1       6.049   4.532  16.527  0.00  0.00    +0.000 A 
ATOM     23  C   UNL     1       5.051   3.789  15.891  0.00  0.00    +0.000 A 
ATOM     24  C   UNL     1       5.164   3.507  14.527  0.00  0.00    +0.000 A 
ATOM     25  C   UNL     1       6.263   3.974  13.790  0.00  0.00    +0.000 A 
ATOM     26  C   UNL     1       7.249   4.734  14.442  0.00  0.00    +0.000 A 
ATOM     27  C   UNL     1       7.143   5.017  15.806  0.00  0.00    +0.000 A 
BRANCH  25  28
ATOM     28  C   UNL     1       6.394   3.686  12.312  0.00  0.00    +0.000 C 
ATOM     29  F   UNL     1       5.219   3.781  11.631  0.00  0.00    +0.000 F 
ATOM     30  F   UNL     1       7.257   4.536  11.690  0.00  0.00    +0.000 F 
ATOM     31  F   UNL     1       6.866   2.431  12.069  0.00  0.00    +0.000 F 
ENDBRANCH  25  28
ENDBRANCH  19  22
ENDBRANCH   4  19
TORSDOF 6
ENDMDL
MODEL 3
REMARK VINA RESULT:      -8.5      0.849      1.116
REMARK  Name = 
REMARK  6 active torsions:
REMARK  status: ('A' for Active; 'I' for Inactive)
REMARK    1  A    between atoms: C_2  and  C_3
REMARK    2  A    between atoms: C_4  and  C_5
REMARK    3  A    between atoms: N_11  and  C_12
REMARK    4  A    between atoms: C_15  and  S_16
REMARK    5  A    between atoms: S_16  and  C_19
REMARK    6  A    between atoms: C_22  and  C_23
REMARK                            x       y       z     vdW  Elec       q    Type
REMARK                         _______ _______ _______ _____ _____    ______ ____
ROOT
ATOM      1  C   UNL     1       2.427   7.578  18.638  0.00  0.00    +0.000 A 
ATOM      2  C   UNL     1       2.656   6.548  19.556  0.00  0.00    +0.000 A 
ATOM      3  C   UNL     1       3.783   5.728  19.445  0.00  0.00    +0.000 A 
ATOM      4  C   UNL     1       4.701   5.950  18.419  0.00  0.00    +0.000 A 
ATOM      5  C   UNL     1       4.493   6.977  17.496  0.00  0.00    +0.000 A 
ATOM      6  C   UNL     1       3.354   7.785  17.607  0.00  0.00    +0.000 A 
ENDROOT
BRANCH   1   9
ATOM      7  O   UNL     1       2.034  10.326  17.610  0.00  0.00    +0.000 OA
ATOM      8  C   UNL     1       1.185   9.700  18.230  0.00  0.00    +0.000 C 
ATOM      9  N   UNL     1       1.270   8.390  18.665  0.00  0.00    +0.000 N 
ATOM     10  H   UNL     1       0.436   7.958  19.037  0.00  0.00    +0.000 HD
BRANCH   8  11
ATOM     11  C   UNL     1      -0.118  10.330  18.587  0.00  0.00    +0.000 C 
ATOM     12  C   UNL     1      -1.177  10.183  17.772  0.00  0.00    +0.000 C 
BRANCH  12  13
ATOM     13  C   UNL     1      -2.493  10.786  18.021  0.00  0.00    +0.000 A 
ATOM     14  C   UNL     1      -3.632  10.461  17.278  0.00  0.00    +0.000 A 
ATOM     15  C   UNL     1      -4.852  11.067  17.567  0.00  0.00    +0.000 A 
ATOM     16  C   UNL     1      -4.904  11.974  18.611  0.00  0.00    +0.000 A 
ATOM     17  N   UNL     1      -3.840  12.297  19.374  0.00  0.00    +0.000 NA
ATOM     18  C   UNL     1      -2.666  11.691  19.067  0.00  0.00    +0.000 A 
ENDBRANCH  12  13
ENDBRANCH   8  11
ENDBRANCH   1   9
BRANCH   4  19
ATOM     19  S   UNL     1       6.069   4.829  18.227  0.00  0.00    +0.000 S 
ATOM     20  O   UNL     1       7.273   5.550  18.599  0.00  0.00    +0.000 OA
ATOM     21  O   UNL     1       5.717   3.599  18.916  0.00  0.00    +0.000 OA
BRANCH  19  22
ATOM     22  C   UNL     1       6.194   4.447  16.495  0.00  0.00    +0.000 A 
ATOM     23  C   UNL     1       5.183   3.710  15.872  0.00  0.00    +0.000 A 
ATOM     24  C   UNL     1       5.258   3.460  14.500  0.00  0.00    +0.000 A 
ATOM     25  C   UNL     1       6.331   3.954  13.740  0.00  0.00    +0.000 A 
ATOM     26  C   UNL     1       7.330   4.706  14.381  0.00  0.00    +0.000 A 
ATOM     27  C   UNL     1       7.263   4.957  15.753  0.00  0.00    +0.000 A 
BRANCH  25  28
ATOM     28  C   UNL     1       6.419   3.700  12.253  0.00  0.00    +0.000 C 
ATOM     29  F   UNL     1       6.994   2.507  11.936  0.00  0.00    +0.000 F 
ATOM     30  F   UNL     1       5.198   3.699  11.652  0.00  0.00    +0.000 F 
ATOM     31  F   UNL     1       7.152   4.651  11.609  0.00  0.00    +0.000 F 
ENDBRANCH  25  28
ENDBRANCH  19  22
ENDBRANCH   4  19
TORSDOF 6
ENDMDL
MODEL 4
REMARK VINA RESULT:      -8.3      1.964      2.866
REMARK  Name = 
REMARK  6 active torsions:
REMARK  status: ('A' for Active; 'I' for Inactive)
REMARK    1  A    between atoms: C_2  and  C_3
REMARK    2  A    between atoms: C_4  and  C_5
REMARK    3  A    between atoms: N_11  and  C_12
REMARK    4  A    between atoms: C_15  and  S_16
REMARK    5  A    between atoms: S_16  and  C_19
REMARK    6  A    between atoms: C_22  and  C_23
REMARK                            x       y       z     vdW  Elec       q    Type
REMARK                         _______ _______ _______ _____ _____    ______ ____
ROOT
ATOM      1  C   UNL     1       2.265   7.834  18.797  0.00  0.00    +0.000 A 
ATOM      2  C   UNL     1       3.097   7.946  17.679  0.00  0.00    +0.000 A 
ATOM      3  C   UNL     1       4.156   7.055  17.484  0.00  0.00    +0.000 A 
ATOM      4  C   UNL     1       4.376   6.029  18.404  0.00  0.00    +0.000 A 
ATOM      5  C   UNL     1       3.552   5.898  19.523  0.00  0.00    +0.000 A 
ATOM      6  C   UNL     1       2.501   6.804  19.718  0.00  0.00    +0.000 A 
ENDROOT
BRANCH   1   9
ATOM      7  O   UNL     1       2.033  10.696  18.075  0.00  0.00    +0.000 OA
ATOM      8  C   UNL     1       1.222  10.097  18.770  0.00  0.00    +0.000 C 
ATOM      9  N   UNL     1       1.224   8.749  19.077  0.00  0.00    +0.000 N 
ATOM     10  H   UNL     1       0.412   8.367  19.541  0.00  0.00    +0.000 HD
BRANCH   8  11
ATOM     11  C   UNL     1       0.068  10.815  19.382  0.00  0.00    +0.000 C 
ATOM     12  C   UNL     1      -0.077  10.831  20.719  0.00  0.00    +0.000 C 
BRANCH  12  13
ATOM     13  C   UNL     1      -1.192  11.484  21.415  0.00  0.00    +0.000 A 
ATOM     14  C   UNL     1      -1.428  11.333  22.785  0.00  0.00    +0.000 A 
ATOM     15  C   UNL     1      -2.502  11.985  23.387  0.00  0.00    +0.000 A 
ATOM     16  C   UNL     1      -3.305  12.791  22.600  0.00  0.00    +0.000 A 
ATOM     17  N   UNL     1      -3.099  12.992  21.282  0.00  0.00    +0.000 NA
ATOM     18  C   UNL     1      -2.047  12.343  20.725  0.00  0.00    +0.000 A 
ENDBRANCH  12  13
ENDBRANCH   8  11
ENDBRANCH   1   9
BRANCH   4  19
ATOM     19  S   UNL     1       5.794   4.975  18.199  0.00  0.00    +0.000 S 
ATOM     20  O   UNL     1       6.960   5.738  18.609  0.00  0.00    +0.000 OA
ATOM     21  O   UNL     1       5.488   3.711  18.846  0.00  0.00    +0.000 OA
BRANCH  19  22
ATOM     22  C   UNL     1       5.960   4.651  16.458  0.00  0.00    +0.000 A 
ATOM     23  C   UNL     1       7.114   5.058  15.784  0.00  0.00    +0.000 A 
ATOM     24  C   UNL     1       7.266   4.752  14.429  0.00  0.00    +0.000 A 
ATOM     25  C   UNL     1       6.276   4.029  13.745  0.00  0.00    +0.000 A 
ATOM     26  C   UNL     1       5.129   3.614  14.443  0.00  0.00    +0.000 A 
ATOM     27  C   UNL     1       4.971   3.919  15.797  0.00  0.00    +0.000 A 
BRANCH  25  28
ATOM     28  C   UNL     1       6.431   3.682  12.282  0.00  0.00    +0.000 C 
ATOM     29  F   UNL     1       7.228   4.548  11.597  0.00  0.00    +0.000 F 
ATOM     30  F   UNL     1       6.972   2.446  12.095  0.00  0.00    +0.000 F 
ATOM     31  F   UNL     1       5.238   3.671  11.624  0.00  0.00    +0.000 F 
ENDBRANCH  25  28
ENDBRANCH  19  22
ENDBRANCH   4  19
TORSDOF 6
ENDMDL
MODEL 5
REMARK VINA RESULT:      -8.3      0.371      1.159
REMARK  Name = 
REMARK  6 active torsions:
REMARK  status: ('A' for Active; 'I' for Inactive)
REMARK    1  A    between atoms: C_2  and  C_3
REMARK    2  A    between atoms: C_4  and  C_5
REMARK    3  A    between atoms: N_11  and  C_12
REMARK    4  A    between atoms: C_15  and  S_16
REMARK    5  A    between atoms: S_16  and  C_19
REMARK    6  A    between atoms: C_22  and  C_23
REMARK                            x       y       z     vdW  Elec       q    Type
REMARK                         _______ _______ _______ _____ _____    ______ ____
ROOT
ATOM      1  C   UNL     1       2.204   8.112  18.423  0.00  0.00    +0.000 A 
ATOM      2  C   UNL     1       2.265   7.089  19.375  0.00  0.00    +0.000 A 
ATOM      3  C   UNL     1       3.276   6.125  19.326  0.00  0.00    +0.000 A 
ATOM      4  C   UNL     1       4.248   6.193  18.328  0.00  0.00    +0.000 A 
ATOM      5  C   UNL     1       4.208   7.209  17.371  0.00  0.00    +0.000 A 
ATOM      6  C   UNL     1       3.183   8.164  17.420  0.00  0.00    +0.000 A 
ENDROOT
BRANCH   1   9
ATOM      7  O   UNL     1       1.147   9.821  20.596  0.00  0.00    +0.000 OA
ATOM      8  C   UNL     1       0.674   9.778  19.468  0.00  0.00    +0.000 C 
ATOM      9  N   UNL     1       1.165   9.069  18.387  0.00  0.00    +0.000 N 
ATOM     10  H   UNL     1       0.755   9.244  17.480  0.00  0.00    +0.000 HD
BRANCH   8  11
ATOM     11  C   UNL     1      -0.553  10.552  19.127  0.00  0.00    +0.000 C 
ATOM     12  C   UNL     1      -1.500   9.996  18.351  0.00  0.00    +0.000 C 
BRANCH  12  13
ATOM     13  C   UNL     1      -2.729  10.683  17.937  0.00  0.00    +0.000 A 
ATOM     14  C   UNL     1      -3.258  10.586  16.646  0.00  0.00    +0.000 A 
ATOM     15  C   UNL     1      -4.431  11.261  16.318  0.00  0.00    +0.000 A 
ATOM     16  C   UNL     1      -5.058  12.005  17.302  0.00  0.00    +0.000 A 
ATOM     17  N   UNL     1      -4.603  12.104  18.568  0.00  0.00    +0.000 NA
ATOM     18  C   UNL     1      -3.458  11.437  18.856  0.00  0.00    +0.000 A 
ENDBRANCH  12  13
ENDBRANCH   8  11
ENDBRANCH   1   9
BRANCH   4  19
ATOM     19  S   UNL     1       5.460   4.896  18.214  0.00  0.00    +0.000 S 
ATOM     20  O   UNL     1       6.688   5.400  18.803  0.00  0.00    +0.000 OA
ATOM     21  O   UNL     1       4.847   3.686  18.736  0.00  0.00    +0.000 OA
BRANCH  19  22
ATOM     22  C   UNL     1       5.776   4.623  16.485  0.00  0.00    +0.000 A 
ATOM     23  C   UNL     1       6.963   5.091  15.915  0.00  0.00    +0.000 A 
ATOM     24  C   UNL     1       7.234   4.826  14.570  0.00  0.00    +0.000 A 
ATOM     25  C   UNL     1       6.330   4.084  13.792  0.00  0.00    +0.000 A 
ATOM     26  C   UNL     1       5.149   3.608  14.386  0.00  0.00    +0.000 A 
ATOM     27  C   UNL     1       4.872   3.872  15.730  0.00  0.00    +0.000 A 
BRANCH  25  28
ATOM     28  C   UNL     1       6.614   3.781  12.339  0.00  0.00    +0.000 C 
ATOM     29  F   UNL     1       7.302   2.622  12.148  0.00  0.00    +0.000 F 
ATOM     30  F   UNL     1       5.477   3.668  11.599  0.00  0.00    +0.000 F 
ATOM     31  F   UNL     1       7.353   4.758  11.742  0.00  0.00    +0.000 F 
ENDBRANCH  25  28
ENDBRANCH  19  22
ENDBRANCH   4  19
TORSDOF 6
ENDMDL
MODEL 6
REMARK VINA RESULT:      -8.2      2.098      2.729
REMARK  Name = 
REMARK  6 active torsions:
REMARK  status: ('A' for Active; 'I' for Inactive)
REMARK    1  A    between atoms: C_2  and  C_3
REMARK    2  A    between atoms: C_4  and  C_5
REMARK    3  A    between atoms: N_11  and  C_12
REMARK    4  A    between atoms: C_15  and  S_16
REMARK    5  A    between atoms: S_16  and  C_19
REMARK    6  A    between atoms: C_22  and  C_23
REMARK                            x       y       z     vdW  Elec       q    Type
REMARK                         _______ _______ _______ _____ _____    ______ ____
ROOT
ATOM      1  C   UNL     1       2.350   7.735  18.765  0.00  0.00    +0.000 A 
ATOM      2  C   UNL     1       3.229   7.899  17.691  0.00  0.00    +0.000 A 
ATOM      3  C   UNL     1       4.313   7.033  17.515  0.00  0.00    +0.000 A 
ATOM      4  C   UNL     1       4.510   5.981  18.410  0.00  0.00    +0.000 A 
ATOM      5  C   UNL     1       3.639   5.799  19.486  0.00  0.00    +0.000 A 
ATOM      6  C   UNL     1       2.563   6.679  19.662  0.00  0.00    +0.000 A 
ENDROOT
BRANCH   1   9
ATOM      7  O   UNL     1       2.066  10.597  18.061  0.00  0.00    +0.000 OA
ATOM      8  C   UNL     1       1.253   9.973  18.731  0.00  0.00    +0.000 C 
ATOM      9  N   UNL     1       1.281   8.623  19.026  0.00  0.00    +0.000 N 
ATOM     10  H   UNL     1       0.467   8.217  19.467  0.00  0.00    +0.000 HD
BRANCH   8  11
ATOM     11  C   UNL     1       0.067  10.657  19.320  0.00  0.00    +0.000 C 
ATOM     12  C   UNL     1       0.015  10.882  20.645  0.00  0.00    +0.000 C 
BRANCH  12  13
ATOM     13  C   UNL     1      -1.119  11.522  21.323  0.00  0.00    +0.000 A 
ATOM     14  C   UNL     1      -2.025  12.360  20.667  0.00  0.00    +0.000 A 
ATOM     15  C   UNL     1      -3.083  12.933  21.368  0.00  0.00    +0.000 A 
ATOM     16  C   UNL     1      -3.217  12.636  22.713  0.00  0.00    +0.000 A 
ATOM     17  N   UNL     1      -2.387  11.810  23.382  0.00  0.00    +0.000 NA
ATOM     18  C   UNL     1      -1.366  11.269  22.672  0.00  0.00    +0.000 A 
ENDBRANCH  12  13
ENDBRANCH   8  11
ENDBRANCH   1   9
BRANCH   4  19
ATOM     19  S   UNL     1       5.955   4.959  18.236  0.00  0.00    +0.000 S 
ATOM     20  O   UNL     1       7.106   5.780  18.569  0.00  0.00    +0.000 OA
ATOM     21  O   UNL     1       5.704   3.730  18.969  0.00  0.00    +0.000 OA
BRANCH  19  22
ATOM     22  C   UNL     1       6.091   4.530  16.516  0.00  0.00    +0.000 A 
ATOM     23  C   UNL     1       5.135   3.695  15.932  0.00  0.00    +0.000 A 
ATOM     24  C   UNL     1       5.213   3.405  14.568  0.00  0.00    +0.000 A 
ATOM     25  C   UNL     1       6.234   3.956  13.777  0.00  0.00    +0.000 A 
ATOM     26  C   UNL     1       7.178   4.807  14.378  0.00  0.00    +0.000 A 
ATOM     27  C   UNL     1       7.106   5.099  15.743  0.00  0.00    +0.000 A 
BRANCH  25  28
ATOM     28  C   UNL     1       6.325   3.661  12.298  0.00  0.00    +0.000 C 
ATOM     29  F   UNL     1       5.122   3.690  11.661  0.00  0.00    +0.000 F 
ATOM     30  F   UNL     1       7.121   4.547  11.638  0.00  0.00    +0.000 F 
ATOM     31  F   UNL     1       6.851   2.429  12.048  0.00  0.00    +0.000 F 
ENDBRANCH  25  28
ENDBRANCH  19  22
ENDBRANCH   4  19
TORSDOF 6
ENDMDL
MODEL 7
REMARK VINA RESULT:      -8.2      0.652      1.334
REMARK  Name = 
REMARK  6 active torsions:
REMARK  status: ('A' for Active; 'I' for Inactive)
REMARK    1  A    between atoms: C_2  and  C_3
REMARK    2  A    between atoms: C_4  and  C_5
REMARK    3  A    between atoms: N_11  and  C_12
REMARK    4  A    between atoms: C_15  and  S_16
REMARK    5  A    between atoms: S_16  and  C_19
REMARK    6  A    between atoms: C_22  and  C_23
REMARK                            x       y       z     vdW  Elec       q    Type
REMARK                         _______ _______ _______ _____ _____    ______ ____
ROOT
ATOM      1  C   UNL     1       2.185   7.860  18.554  0.00  0.00    +0.000 A 
ATOM      2  C   UNL     1       3.102   8.040  17.513  0.00  0.00    +0.000 A 
ATOM      3  C   UNL     1       4.216   7.204  17.389  0.00  0.00    +0.000 A 
ATOM      4  C   UNL     1       4.406   6.166  18.301  0.00  0.00    +0.000 A 
ATOM      5  C   UNL     1       3.499   5.967  19.343  0.00  0.00    +0.000 A 
ATOM      6  C   UNL     1       2.392   6.818  19.468  0.00  0.00    +0.000 A 
ENDROOT
BRANCH   1   9
ATOM      7  O   UNL     1       1.551   9.572  20.884  0.00  0.00    +0.000 OA
ATOM      8  C   UNL     1       0.814   9.432  19.917  0.00  0.00    +0.000 C 
ATOM      9  N   UNL     1       1.082   8.718  18.764  0.00  0.00    +0.000 N 
ATOM     10  H   UNL     1       0.439   8.811  17.989  0.00  0.00    +0.000 HD
BRANCH   8  11
ATOM     11  C   UNL     1      -0.530  10.076  19.885  0.00  0.00    +0.000 C 
ATOM     12  C   UNL     1      -1.160  10.251  18.710  0.00  0.00    +0.000 C 
BRANCH  12  13
ATOM     13  C   UNL     1      -2.470  10.898  18.570  0.00  0.00    +0.000 A 
ATOM     14  C   UNL     1      -3.407  10.518  17.604  0.00  0.00    +0.000 A 
ATOM     15  C   UNL     1      -4.636  11.170  17.527  0.00  0.00    +0.000 A 
ATOM     16  C   UNL     1      -4.903  12.178  18.436  0.00  0.00    +0.000 A 
ATOM     17  N   UNL     1      -4.043  12.558  19.404  0.00  0.00    +0.000 NA
ATOM     18  C   UNL     1      -2.856  11.906  19.452  0.00  0.00    +0.000 A 
ENDBRANCH  12  13
ENDBRANCH   8  11
ENDBRANCH   1   9
BRANCH   4  19
ATOM     19  S   UNL     1       5.886   5.184  18.194  0.00  0.00    +0.000 S 
ATOM     20  O   UNL     1       7.004   6.053  18.516  0.00  0.00    +0.000 OA
ATOM     21  O   UNL     1       5.659   3.976  18.970  0.00  0.00    +0.000 OA
BRANCH  19  22
ATOM     22  C   UNL     1       6.069   4.693  16.494  0.00  0.00    +0.000 A 
ATOM     23  C   UNL     1       5.087   3.903  15.891  0.00  0.00    +0.000 A 
ATOM     24  C   UNL     1       5.206   3.567  14.541  0.00  0.00    +0.000 A 
ATOM     25  C   UNL     1       6.295   4.027  13.783  0.00  0.00    +0.000 A 
ATOM     26  C   UNL     1       7.265   4.834  14.402  0.00  0.00    +0.000 A 
ATOM     27  C   UNL     1       7.153   5.172  15.753  0.00  0.00    +0.000 A 
BRANCH  25  28
ATOM     28  C   UNL     1       6.432   3.680  12.318  0.00  0.00    +0.000 C 
ATOM     29  F   UNL     1       5.256   3.730  11.634  0.00  0.00    +0.000 F 
ATOM     30  F   UNL     1       7.283   4.516  11.662  0.00  0.00    +0.000 F 
ATOM     31  F   UNL     1       6.922   2.423  12.128  0.00  0.00    +0.000 F 
ENDBRANCH  25  28
ENDBRANCH  19  22
ENDBRANCH   4  19
TORSDOF 6
ENDMDL
MODEL 8
REMARK VINA RESULT:      -8.2      0.795      1.592
REMARK  Name = 
REMARK  6 active torsions:
REMARK  status: ('A' for Active; 'I' for Inactive)
REMARK    1  A    between atoms: C_2  and  C_3
REMARK    2  A    between atoms: C_4  and  C_5
REMARK    3  A    between atoms: N_11  and  C_12
REMARK    4  A    between atoms: C_15  and  S_16
REMARK    5  A    between atoms: S_16  and  C_19
REMARK    6  A    between atoms: C_22  and  C_23
REMARK                            x       y       z     vdW  Elec       q    Type
REMARK                         _______ _______ _______ _____ _____    ______ ____
ROOT
ATOM      1  C   UNL     1       2.104   8.039  18.484  0.00  0.00    +0.000 A 
ATOM      2  C   UNL     1       2.265   7.072  19.482  0.00  0.00    +0.000 A 
ATOM      3  C   UNL     1       3.325   6.160  19.428  0.00  0.00    +0.000 A 
ATOM      4  C   UNL     1       4.242   6.226  18.380  0.00  0.00    +0.000 A 
ATOM      5  C   UNL     1       4.100   7.188  17.378  0.00  0.00    +0.000 A 
ATOM      6  C   UNL     1       3.028   8.089  17.432  0.00  0.00    +0.000 A 
ENDROOT
BRANCH   1   9
ATOM      7  O   UNL     1       2.105  10.998  18.555  0.00  0.00    +0.000 OA
ATOM      8  C   UNL     1       1.090  10.314  18.569  0.00  0.00    +0.000 C 
ATOM      9  N   UNL     1       1.013   8.938  18.455  0.00  0.00    +0.000 N 
ATOM     10  H   UNL     1       0.100   8.523  18.336  0.00  0.00    +0.000 HD
BRANCH   8  11
ATOM     11  C   UNL     1      -0.253  10.946  18.705  0.00  0.00    +0.000 C 
ATOM     12  C   UNL     1      -1.303  10.436  18.037  0.00  0.00    +0.000 C 
BRANCH  12  13
ATOM     13  C   UNL     1      -2.657  11.002  18.083  0.00  0.00    +0.000 A 
ATOM     14  C   UNL     1      -3.135  11.745  19.166  0.00  0.00    +0.000 A 
ATOM     15  C   UNL     1      -4.430  12.257  19.146  0.00  0.00    +0.000 A 
ATOM     16  C   UNL     1      -5.210  12.027  18.026  0.00  0.00    +0.000 A 
ATOM     17  N   UNL     1      -4.782  11.343  16.945  0.00  0.00    +0.000 NA
ATOM     18  C   UNL     1      -3.518  10.855  16.996  0.00  0.00    +0.000 A 
ENDBRANCH  12  13
ENDBRANCH   8  11
ENDBRANCH   1   9
BRANCH   4  19
ATOM     19  S   UNL     1       5.516   4.989  18.268  0.00  0.00    +0.000 S 
ATOM     20  O   UNL     1       6.732   5.575  18.802  0.00  0.00    +0.000 OA
ATOM     21  O   UNL     1       4.982   3.768  18.847  0.00  0.00    +0.000 OA
BRANCH  19  22
ATOM     22  C   UNL     1       5.793   4.676  16.539  0.00  0.00    +0.000 A 
ATOM     23  C   UNL     1       6.968   5.129  15.933  0.00  0.00    +0.000 A 
ATOM     24  C   UNL     1       7.208   4.833  14.589  0.00  0.00    +0.000 A 
ATOM     25  C   UNL     1       6.287   4.075  13.848  0.00  0.00    +0.000 A 
ATOM     26  C   UNL     1       5.119   3.614  14.479  0.00  0.00    +0.000 A 
ATOM     27  C   UNL     1       4.872   3.909  15.822  0.00  0.00    +0.000 A 
BRANCH  25  28
ATOM     28  C   UNL     1       6.539   3.738  12.397  0.00  0.00    +0.000 C 
ATOM     29  F   UNL     1       7.127   2.524  12.212  0.00  0.00    +0.000 F 
ATOM     30  F   UNL     1       5.393   3.715  11.662  0.00  0.00    +0.000 F 
ATOM     31  F   UNL     1       7.355   4.644  11.789  0.00  0.00    +0.000 F 
ENDBRANCH  25  28
ENDBRANCH  19  22
ENDBRANCH   4  19
TORSDOF 6
ENDMDL
MODEL 9
REMARK VINA RESULT:      -8.1      0.758      1.674
REMARK  Name = 
REMARK  6 active torsions:
REMARK  status: ('A' for Active; 'I' for Inactive)
REMARK    1  A    between atoms: C_2  and  C_3
REMARK    2  A    between atoms: C_4  and  C_5
REMARK    3  A    between atoms: N_11  and  C_12
REMARK    4  A    between atoms: C_15  and  S_16
REMARK    5  A    between atoms: S_16  and  C_19
REMARK    6  A    between atoms: C_22  and  C_23
REMARK                            x       y       z     vdW  Elec       q    Type
REMARK                         _______ _______ _______ _____ _____    ______ ____
ROOT
ATOM      1  C   UNL     1       2.221   7.900  18.672  0.00  0.00    +0.000 A 
ATOM      2  C   UNL     1       3.116   8.082  17.613  0.00  0.00    +0.000 A 
ATOM      3  C   UNL     1       4.199   7.215  17.434  0.00  0.00    +0.000 A 
ATOM      4  C   UNL     1       4.380   6.146  18.311  0.00  0.00    +0.000 A 
ATOM      5  C   UNL     1       3.495   5.944  19.371  0.00  0.00    +0.000 A 
ATOM      6  C   UNL     1       2.420   6.825  19.551  0.00  0.00    +0.000 A 
ENDROOT
BRANCH   1   9
ATOM      7  O   UNL     1       1.528   9.317  21.177  0.00  0.00    +0.000 OA
ATOM      8  C   UNL     1       0.848   9.352  20.160  0.00  0.00    +0.000 C 
ATOM      9  N   UNL     1       1.152   8.785  18.936  0.00  0.00    +0.000 N 
ATOM     10  H   UNL     1       0.565   9.019  18.147  0.00  0.00    +0.000 HD
BRANCH   8  11
ATOM     11  C   UNL     1      -0.457  10.072  20.142  0.00  0.00    +0.000 C 
ATOM     12  C   UNL     1      -1.102  10.257  18.977  0.00  0.00    +0.000 C 
BRANCH  12  13
ATOM     13  C   UNL     1      -2.376  10.976  18.850  0.00  0.00    +0.000 A 
ATOM     14  C   UNL     1      -3.328  10.672  17.872  0.00  0.00    +0.000 A 
ATOM     15  C   UNL     1      -4.520  11.389  17.809  0.00  0.00    +0.000 A 
ATOM     16  C   UNL     1      -4.737  12.387  18.743  0.00  0.00    +0.000 A 
ATOM     17  N   UNL     1      -3.863  12.696  19.723  0.00  0.00    +0.000 NA
ATOM     18  C   UNL     1      -2.712  11.980  19.758  0.00  0.00    +0.000 A 
ENDBRANCH  12  13
ENDBRANCH   8  11
ENDBRANCH   1   9
BRANCH   4  19
ATOM     19  S   UNL     1       5.825   5.122  18.136  0.00  0.00    +0.000 S 
ATOM     20  O   UNL     1       6.972   5.927  18.517  0.00  0.00    +0.000 OA
ATOM     21  O   UNL     1       5.553   3.872  18.826  0.00  0.00    +0.000 OA
BRANCH  19  22
ATOM     22  C   UNL     1       5.995   4.745  16.406  0.00  0.00    +0.000 A 
ATOM     23  C   UNL     1       7.149   5.133  15.722  0.00  0.00    +0.000 A 
ATOM     24  C   UNL     1       7.304   4.786  14.378  0.00  0.00    +0.000 A 
ATOM     25  C   UNL     1       6.316   4.040  13.714  0.00  0.00    +0.000 A 
ATOM     26  C   UNL     1       5.169   3.645  14.423  0.00  0.00    +0.000 A 
ATOM     27  C   UNL     1       5.008   3.990  15.766  0.00  0.00    +0.000 A 
BRANCH  25  28
ATOM     28  C   UNL     1       6.475   3.649  12.263  0.00  0.00    +0.000 C 
ATOM     29  F   UNL     1       7.008   2.408  12.088  0.00  0.00    +0.000 F 
ATOM     30  F   UNL     1       5.289   3.645  11.592  0.00  0.00    +0.000 F 
ATOM     31  F   UNL     1       7.287   4.504  11.581  0.00  0.00    +0.000 F 
ENDBRANCH  25  28
ENDBRANCH  19  22
ENDBRANCH   4  19
TORSDOF 6
ENDMDL
