MODEL 1
REMARK VINA RESULT:      -7.6      0.000      0.000
REMARK  Name = 
REMARK  4 active torsions:
REMARK  status: ('A' for Active; 'I' for Inactive)
REMARK    1  A    between atoms: C_1  and  C_2
REMARK    2  A    between atoms: C_6  and  S_7
REMARK    3  A    between atoms: S_7  and  C_8
REMARK    4  A    between atoms: N_12  and  C_13
REMARK                            x       y       z     vdW  Elec       q    Type
REMARK                         _______ _______ _______ _____ _____    ______ ____
ROOT
ATOM      1  C   UNL     1       4.984   5.283  16.343  0.00  0.00    +0.000 C 
ATOM      2  C   UNL     1       4.494   6.592  16.914  0.00  0.00    +0.000 C 
ATOM      3  C   UNL     1       3.620   6.186  18.063  0.00  0.00    +0.000 C 
ATOM      4  O   UNL     1       3.078   7.029  18.768  0.00  0.00    +0.000 OA
ATOM      5  N   UNL     1       3.586   4.810  18.172  0.00  0.00    +0.000 N 
ATOM      6  C   UNL     1       4.359   4.209  17.195  0.00  0.00    +0.000 C 
ATOM      7  O   UNL     1       4.487   3.015  16.952  0.00  0.00    +0.000 OA
ENDROOT
BRANCH   5   8
ATOM      8  C   UNL     1       2.900   4.101  19.209  0.00  0.00    +0.000 A 
ATOM      9  C   UNL     1       1.496   4.072  19.273  0.00  0.00    +0.000 A 
ATOM     10  C   UNL     1       0.822   3.440  20.326  0.00  0.00    +0.000 A 
ATOM     11  C   UNL     1       1.543   2.821  21.338  0.00  0.00    +0.000 A 
ATOM     12 CL   UNL     1       0.719   2.080  22.651  0.00  0.00    +0.000 Cl
ATOM     13  C   UNL     1       2.930   2.808  21.290  0.00  0.00    +0.000 A 
ATOM     14  C   UNL     1       3.600   3.437  20.231  0.00  0.00    +0.000 A 
ENDBRANCH   5   8
BRANCH   1  15
ATOM     15  S   UNL     1       6.793   5.110  16.199  0.00  0.00    +0.000 S 
BRANCH  15  21
ATOM     16  C   UNL     1       5.427   2.707  11.954  0.00  0.00    +0.000 C 
ATOM     17  C   UNL     1       6.343   3.722  12.566  0.00  0.00    +0.000 A 
ATOM     18  C   UNL     1       7.254   4.419  11.800  0.00  0.00    +0.000 A 
ATOM     19  C   UNL     1       8.036   5.326  12.474  0.00  0.00    +0.000 A 
ATOM     20  N   UNL     1       7.945   5.546  13.798  0.00  0.00    +0.000 NA
ATOM     21  C   UNL     1       7.033   4.823  14.462  0.00  0.00    +0.000 A 
ATOM     22  N   UNL     1       6.222   3.918  13.896  0.00  0.00    +0.000 NA
ENDBRANCH  15  21
ENDBRANCH   1  15
TORSDOF 3
ENDMDL
MODEL 2
REMARK VINA RESULT:      -7.5      0.127      1.031
REMARK  Name = 
REMARK  4 active torsions:
REMARK  status: ('A' for Active; 'I' for Inactive)
REMARK    1  A    between atoms: C_1  and  C_2
REMARK    2  A    between atoms: C_6  and  S_7
REMARK    3  A    between atoms: S_7  and  C_8
REMARK    4  A    between atoms: N_12  and  C_13
REMARK                            x       y       z     vdW  Elec       q    Type
REMARK                         _______ _______ _______ _____ _____    ______ ____
ROOT
ATOM      1  C   UNL     1       4.974   5.110  16.344  0.00  0.00    +0.000 C 
ATOM      2  C   UNL     1       4.501   6.465  16.812  0.00  0.00    +0.000 C 
ATOM      3  C   UNL     1       3.633   6.160  17.997  0.00  0.00    +0.000 C 
ATOM      4  O   UNL     1       3.105   7.062  18.637  0.00  0.00    +0.000 OA
ATOM      5  N   UNL     1       3.587   4.797  18.214  0.00  0.00    +0.000 N 
ATOM      6  C   UNL     1       4.345   4.114  17.283  0.00  0.00    +0.000 C 
ATOM      7  O   UNL     1       4.460   2.902  17.133  0.00  0.00    +0.000 OA
ENDROOT
BRANCH   5   8
ATOM      8  C   UNL     1       2.902   4.180  19.309  0.00  0.00    +0.000 A 
ATOM      9  C   UNL     1       3.600   3.505  20.325  0.00  0.00    +0.000 A 
ATOM     10  C   UNL     1       2.929   2.840  21.360  0.00  0.00    +0.000 A 
ATOM     11  C   UNL     1       1.542   2.840  21.399  0.00  0.00    +0.000 A 
ATOM     12 CL   UNL     1       0.717   1.990  22.644  0.00  0.00    +0.000 Cl
ATOM     13  C   UNL     1       0.823   3.521  20.426  0.00  0.00    +0.000 A 
ATOM     14  C   UNL     1       1.498   4.189  19.396  0.00  0.00    +0.000 A 
ENDBRANCH   5   8
BRANCH   1  15
ATOM     15  S   UNL     1       6.780   4.907  16.200  0.00  0.00    +0.000 S 
BRANCH  15  21
ATOM     16  C   UNL     1       5.518   2.633  11.853  0.00  0.00    +0.000 C 
ATOM     17  C   UNL     1       6.383   3.665  12.509  0.00  0.00    +0.000 A 
ATOM     18  C   UNL     1       7.254   4.442  11.773  0.00  0.00    +0.000 A 
ATOM     19  C   UNL     1       7.992   5.357  12.485  0.00  0.00    +0.000 A 
ATOM     20  N   UNL     1       7.896   5.511  13.818  0.00  0.00    +0.000 NA
ATOM     21  C   UNL     1       7.026   4.712  14.452  0.00  0.00    +0.000 A 
ATOM     22  N   UNL     1       6.260   3.793  13.847  0.00  0.00    +0.000 NA
ENDBRANCH  15  21
ENDBRANCH   1  15
TORSDOF 3
ENDMDL
MODEL 3
REMARK VINA RESULT:      -7.1      2.354      3.608
REMARK  Name = 
REMARK  4 active torsions:
REMARK  status: ('A' for Active; 'I' for Inactive)
REMARK    1  A    between atoms: C_1  and  C_2
REMARK    2  A    between atoms: C_6  and  S_7
REMARK    3  A    between atoms: S_7  and  C_8
REMARK    4  A    between atoms: N_12  and  C_13
REMARK                            x       y       z     vdW  Elec       q    Type
REMARK                         _______ _______ _______ _____ _____    ______ ____
ROOT
ATOM      1  C   UNL     1       4.852   4.917  15.945  0.00  0.00    +0.000 C 
ATOM      2  C   UNL     1       4.444   6.272  16.470  0.00  0.00    +0.000 C 
ATOM      3  C   UNL     1       3.620   5.961  17.684  0.00  0.00    +0.000 C 
ATOM      4  O   UNL     1       3.149   6.860  18.370  0.00  0.00    +0.000 OA
ATOM      5  N   UNL     1       3.540   4.595  17.866  0.00  0.00    +0.000 N 
ATOM      6  C   UNL     1       4.235   3.914  16.884  0.00  0.00    +0.000 C 
ATOM      7  O   UNL     1       4.304   2.705  16.698  0.00  0.00    +0.000 OA
ENDROOT
BRANCH   5   8
ATOM      8  C   UNL     1       2.885   3.969  18.975  0.00  0.00    +0.000 A 
ATOM      9  C   UNL     1       1.485   3.970  19.096  0.00  0.00    +0.000 A 
ATOM     10  C   UNL     1       0.844   3.421  20.214  0.00  0.00    +0.000 A 
ATOM     11  C   UNL     1       1.595   2.855  21.235  0.00  0.00    +0.000 A 
ATOM     12 CL   UNL     1       0.813   2.218  22.626  0.00  0.00    +0.000 Cl
ATOM     13  C   UNL     1       2.979   2.814  21.133  0.00  0.00    +0.000 A 
ATOM     14  C   UNL     1       3.615   3.359  20.010  0.00  0.00    +0.000 A 
ENDBRANCH   5   8
BRANCH   1  15
ATOM     15  S   UNL     1       6.644   4.664  15.715  0.00  0.00    +0.000 S 
BRANCH  15  21
ATOM     16  C   UNL     1       8.152   9.009  17.836  0.00  0.00    +0.000 C 
ATOM     17  C   UNL     1       7.988   7.531  18.015  0.00  0.00    +0.000 A 
ATOM     18  C   UNL     1       8.311   6.915  19.206  0.00  0.00    +0.000 A 
ATOM     19  C   UNL     1       8.114   5.555  19.252  0.00  0.00    +0.000 A 
ATOM     20  N   UNL     1       7.637   4.839  18.217  0.00  0.00    +0.000 NA
ATOM     21  C   UNL     1       7.352   5.521  17.099  0.00  0.00    +0.000 A 
ATOM     22  N   UNL     1       7.506   6.845  16.957  0.00  0.00    +0.000 NA
ENDBRANCH  15  21
ENDBRANCH   1  15
TORSDOF 3
ENDMDL
MODEL 4
REMARK VINA RESULT:      -7.1      2.371      3.768
REMARK  Name = 
REMARK  4 active torsions:
REMARK  status: ('A' for Active; 'I' for Inactive)
REMARK    1  A    between atoms: C_1  and  C_2
REMARK    2  A    between atoms: C_6  and  S_7
REMARK    3  A    between atoms: S_7  and  C_8
REMARK    4  A    between atoms: N_12  and  C_13
REMARK                            x       y       z     vdW  Elec       q    Type
REMARK                         _______ _______ _______ _____ _____    ______ ____
ROOT
ATOM      1  C   UNL     1       4.847   4.978  15.967  0.00  0.00    +0.000 C 
ATOM      2  C   UNL     1       4.453   6.360  16.431  0.00  0.00    +0.000 C 
ATOM      3  C   UNL     1       3.642   6.113  17.668  0.00  0.00    +0.000 C 
ATOM      4  O   UNL     1       3.185   7.048  18.316  0.00  0.00    +0.000 OA
ATOM      5  N   UNL     1       3.557   4.758  17.918  0.00  0.00    +0.000 N 
ATOM      6  C   UNL     1       4.235   4.026  16.962  0.00  0.00    +0.000 C 
ATOM      7  O   UNL     1       4.296   2.809  16.834  0.00  0.00    +0.000 OA
ENDROOT
BRANCH   5   8
ATOM      8  C   UNL     1       2.911   4.190  19.063  0.00  0.00    +0.000 A 
ATOM      9  C   UNL     1       3.640   3.510  20.054  0.00  0.00    +0.000 A 
ATOM     10  C   UNL     1       3.004   2.893  21.139  0.00  0.00    +0.000 A 
ATOM     11  C   UNL     1       1.622   2.947  21.255  0.00  0.00    +0.000 A 
ATOM     12 CL   UNL     1       0.836   2.155  22.563  0.00  0.00    +0.000 Cl
ATOM     13  C   UNL     1       0.875   3.634  20.307  0.00  0.00    +0.000 A 
ATOM     14  C   UNL     1       1.516   4.255  19.227  0.00  0.00    +0.000 A 
ENDBRANCH   5   8
BRANCH   1  15
ATOM     15  S   UNL     1       6.634   4.703  15.729  0.00  0.00    +0.000 S 
BRANCH  15  21
ATOM     16  C   UNL     1       8.231   8.981  17.922  0.00  0.00    +0.000 C 
ATOM     17  C   UNL     1       8.035   7.504  18.077  0.00  0.00    +0.000 A 
ATOM     18  C   UNL     1       8.342   6.862  19.258  0.00  0.00    +0.000 A 
ATOM     19  C   UNL     1       8.116   5.506  19.282  0.00  0.00    +0.000 A 
ATOM     20  N   UNL     1       7.626   4.817  18.235  0.00  0.00    +0.000 NA
ATOM     21  C   UNL     1       7.358   5.523  17.128  0.00  0.00    +0.000 A 
ATOM     22  N   UNL     1       7.540   6.845  17.007  0.00  0.00    +0.000 NA
ENDBRANCH  15  21
ENDBRANCH   1  15
TORSDOF 3
ENDMDL
MODEL 5
REMARK VINA RESULT:      -7.1      3.552      6.889
REMARK  Name = 
REMARK  4 active torsions:
REMARK  status: ('A' for Active; 'I' for Inactive)
REMARK    1  A    between atoms: C_1  and  C_2
REMARK    2  A    between atoms: C_6  and  S_7
REMARK    3  A    between atoms: S_7  and  C_8
REMARK    4  A    between atoms: N_12  and  C_13
REMARK                            x       y       z     vdW  Elec       q    Type
REMARK                         _______ _______ _______ _____ _____    ______ ____
ROOT
ATOM      1  C   UNL     1       6.802   6.062  17.880  0.00  0.00    +0.000 C 
ATOM      2  C   UNL     1       5.804   7.029  17.290  0.00  0.00    +0.000 C 
ATOM      3  C   UNL     1       5.633   6.562  15.876  0.00  0.00    +0.000 C 
ATOM      4  O   UNL     1       4.855   7.127  15.117  0.00  0.00    +0.000 OA
ATOM      5  N   UNL     1       6.427   5.457  15.641  0.00  0.00    +0.000 N 
ATOM      6  C   UNL     1       7.146   5.105  16.768  0.00  0.00    +0.000 C 
ATOM      7  O   UNL     1       7.998   4.233  16.888  0.00  0.00    +0.000 OA
ENDROOT
BRANCH   5   8
ATOM      8  C   UNL     1       6.444   4.725  14.411  0.00  0.00    +0.000 A 
ATOM      9  C   UNL     1       5.481   3.742  14.127  0.00  0.00    +0.000 A 
ATOM     10  C   UNL     1       5.536   2.975  12.956  0.00  0.00    +0.000 A 
ATOM     11  C   UNL     1       6.559   3.181  12.041  0.00  0.00    +0.000 A 
ATOM     12 CL   UNL     1       6.652   2.214  10.624  0.00  0.00    +0.000 Cl
ATOM     13  C   UNL     1       7.512   4.163  12.278  0.00  0.00    +0.000 A 
ATOM     14  C   UNL     1       7.449   4.931  13.448  0.00  0.00    +0.000 A 
ENDBRANCH   5   8
BRANCH   1  15
ATOM     15  S   UNL     1       6.277   5.216  19.407  0.00  0.00    +0.000 S 
BRANCH  15  21
ATOM     16  C   UNL     1       2.596   2.242  17.600  0.00  0.00    +0.000 C 
ATOM     17  C   UNL     1       2.924   3.514  18.320  0.00  0.00    +0.000 A 
ATOM     18  C   UNL     1       1.930   4.350  18.784  0.00  0.00    +0.000 A 
ATOM     19  C   UNL     1       2.354   5.486  19.431  0.00  0.00    +0.000 A 
ATOM     20  N   UNL     1       3.650   5.794  19.618  0.00  0.00    +0.000 NA
ATOM     21  C   UNL     1       4.547   4.924  19.132  0.00  0.00    +0.000 A 
ATOM     22  N   UNL     1       4.234   3.790  18.491  0.00  0.00    +0.000 NA
ENDBRANCH  15  21
ENDBRANCH   1  15
TORSDOF 3
ENDMDL
MODEL 6
REMARK VINA RESULT:      -6.9      3.523      7.047
REMARK  Name = 
REMARK  4 active torsions:
REMARK  status: ('A' for Active; 'I' for Inactive)
REMARK    1  A    between atoms: C_1  and  C_2
REMARK    2  A    between atoms: C_6  and  S_7
REMARK    3  A    between atoms: S_7  and  C_8
REMARK    4  A    between atoms: N_12  and  C_13
REMARK                            x       y       z     vdW  Elec       q    Type
REMARK                         _______ _______ _______ _____ _____    ______ ____
ROOT
ATOM      1  C   UNL     1       6.631   6.046  17.988  0.00  0.00    +0.000 C 
ATOM      2  C   UNL     1       5.594   6.964  17.387  0.00  0.00    +0.000 C 
ATOM      3  C   UNL     1       5.526   6.546  15.948  0.00  0.00    +0.000 C 
ATOM      4  O   UNL     1       4.746   7.087  15.173  0.00  0.00    +0.000 OA
ATOM      5  N   UNL     1       6.409   5.511  15.712  0.00  0.00    +0.000 N 
ATOM      6  C   UNL     1       7.096   5.164  16.859  0.00  0.00    +0.000 C 
ATOM      7  O   UNL     1       8.003   4.350  16.988  0.00  0.00    +0.000 OA
ENDROOT
BRANCH   5   8
ATOM      8  C   UNL     1       6.538   4.835  14.456  0.00  0.00    +0.000 A 
ATOM      9  C   UNL     1       5.669   3.794  14.090  0.00  0.00    +0.000 A 
ATOM     10  C   UNL     1       5.837   3.083  12.894  0.00  0.00    +0.000 A 
ATOM     11  C   UNL     1       6.880   3.405  12.037  0.00  0.00    +0.000 A 
ATOM     12 CL   UNL     1       7.112   2.508  10.590  0.00  0.00    +0.000 Cl
ATOM     13  C   UNL     1       7.740   4.447  12.357  0.00  0.00    +0.000 A 
ATOM     14  C   UNL     1       7.565   5.158  13.551  0.00  0.00    +0.000 A 
ENDBRANCH   5   8
BRANCH   1  15
ATOM     15  S   UNL     1       6.096   5.101  19.453  0.00  0.00    +0.000 S 
BRANCH  15  21
ATOM     16  C   UNL     1       1.117   4.758  20.320  0.00  0.00    +0.000 C 
ATOM     17  C   UNL     1       2.247   4.392  19.407  0.00  0.00    +0.000 A 
ATOM     18  C   UNL     1       2.027   3.680  18.246  0.00  0.00    +0.000 A 
ATOM     19  C   UNL     1       3.141   3.407  17.488  0.00  0.00    +0.000 A 
ATOM     20  N   UNL     1       4.383   3.796  17.828  0.00  0.00    +0.000 NA
ATOM     21  C   UNL     1       4.502   4.482  18.973  0.00  0.00    +0.000 A 
ATOM     22  N   UNL     1       3.479   4.800  19.778  0.00  0.00    +0.000 NA
ENDBRANCH  15  21
ENDBRANCH   1  15
TORSDOF 3
ENDMDL
MODEL 7
REMARK VINA RESULT:      -6.8      4.073      5.176
REMARK  Name = 
REMARK  4 active torsions:
REMARK  status: ('A' for Active; 'I' for Inactive)
REMARK    1  A    between atoms: C_1  and  C_2
REMARK    2  A    between atoms: C_6  and  S_7
REMARK    3  A    between atoms: S_7  and  C_8
REMARK    4  A    between atoms: N_12  and  C_13
REMARK                            x       y       z     vdW  Elec       q    Type
REMARK                         _______ _______ _______ _____ _____    ______ ____
ROOT
ATOM      1  C   UNL     1       2.754   5.298  18.867  0.00  0.00    +0.000 C 
ATOM      2  C   UNL     1       3.263   6.363  17.926  0.00  0.00    +0.000 C 
ATOM      3  C   UNL     1       2.684   7.637  18.468  0.00  0.00    +0.000 C 
ATOM      4  O   UNL     1       2.931   8.713  17.938  0.00  0.00    +0.000 OA
ATOM      5  N   UNL     1       1.924   7.374  19.590  0.00  0.00    +0.000 N 
ATOM      6  C   UNL     1       1.913   6.024  19.885  0.00  0.00    +0.000 C 
ATOM      7  O   UNL     1       1.280   5.439  20.756  0.00  0.00    +0.000 OA
ENDROOT
BRANCH   5   8
ATOM      8  C   UNL     1       1.291   8.381  20.386  0.00  0.00    +0.000 A 
ATOM      9  C   UNL     1       1.458   8.426  21.781  0.00  0.00    +0.000 A 
ATOM     10  C   UNL     1       0.784   9.367  22.571  0.00  0.00    +0.000 A 
ATOM     11  C   UNL     1      -0.071  10.285  21.978  0.00  0.00    +0.000 A 
ATOM     12 CL   UNL     1      -0.930  11.412  22.950  0.00  0.00    +0.000 Cl
ATOM     13  C   UNL     1      -0.237  10.284  20.600  0.00  0.00    +0.000 A 
ATOM     14  C   UNL     1       0.443   9.345  19.813  0.00  0.00    +0.000 A 
ENDBRANCH   5   8
BRANCH   1  15
ATOM     15  S   UNL     1       4.029   4.238  19.626  0.00  0.00    +0.000 S 
BRANCH  15  21
ATOM     16  C   UNL     1       5.962   3.791  14.965  0.00  0.00    +0.000 C 
ATOM     17  C   UNL     1       6.215   4.218  16.379  0.00  0.00    +0.000 A 
ATOM     18  C   UNL     1       7.422   4.768  16.755  0.00  0.00    +0.000 A 
ATOM     19  C   UNL     1       7.534   5.124  18.078  0.00  0.00    +0.000 A 
ATOM     20  N   UNL     1       6.546   4.959  18.977  0.00  0.00    +0.000 NA
ATOM     21  C   UNL     1       5.409   4.415  18.522  0.00  0.00    +0.000 A 
ATOM     22  N   UNL     1       5.201   4.039  17.253  0.00  0.00    +0.000 NA
ENDBRANCH  15  21
ENDBRANCH   1  15
TORSDOF 3
ENDMDL
MODEL 8
REMARK VINA RESULT:      -6.8      3.803      7.242
REMARK  Name = 
REMARK  4 active torsions:
REMARK  status: ('A' for Active; 'I' for Inactive)
REMARK    1  A    between atoms: C_1  and  C_2
REMARK    2  A    between atoms: C_6  and  S_7
REMARK    3  A    between atoms: S_7  and  C_8
REMARK    4  A    between atoms: N_12  and  C_13
REMARK                            x       y       z     vdW  Elec       q    Type
REMARK                         _______ _______ _______ _____ _____    ______ ____
ROOT
ATOM      1  C   UNL     1       4.629   4.027  16.612  0.00  0.00    +0.000 C 
ATOM      2  C   UNL     1       5.536   4.002  15.405  0.00  0.00    +0.000 C 
ATOM      3  C   UNL     1       6.529   5.094  15.672  0.00  0.00    +0.000 C 
ATOM      4  O   UNL     1       7.437   5.323  14.881  0.00  0.00    +0.000 OA
ATOM      5  N   UNL     1       6.255   5.701  16.881  0.00  0.00    +0.000 N 
ATOM      6  C   UNL     1       5.153   5.132  17.491  0.00  0.00    +0.000 C 
ATOM      7  O   UNL     1       4.591   5.476  18.525  0.00  0.00    +0.000 OA
ENDROOT
BRANCH   5   8
ATOM      8  C   UNL     1       7.058   6.734  17.462  0.00  0.00    +0.000 A 
ATOM      9  C   UNL     1       7.880   6.487  18.575  0.00  0.00    +0.000 A 
ATOM     10  C   UNL     1       8.612   7.511  19.190  0.00  0.00    +0.000 A 
ATOM     11  C   UNL     1       8.536   8.807  18.699  0.00  0.00    +0.000 A 
ATOM     12 CL   UNL     1       9.401  10.073  19.476  0.00  0.00    +0.000 Cl
ATOM     13  C   UNL     1       7.755   9.080  17.584  0.00  0.00    +0.000 A 
ATOM     14  C   UNL     1       7.029   8.051  16.970  0.00  0.00    +0.000 A 
ENDBRANCH   5   8
BRANCH   1  15
ATOM     15  S   UNL     1       4.445   2.444  17.497  0.00  0.00    +0.000 S 
BRANCH  15  21
ATOM     16  C   UNL     1       2.057   2.713  21.957  0.00  0.00    +0.000 C 
ATOM     17  C   UNL     1       1.922   2.808  20.468  0.00  0.00    +0.000 A 
ATOM     18  C   UNL     1       0.713   3.114  19.877  0.00  0.00    +0.000 A 
ATOM     19  C   UNL     1       0.714   3.176  18.504  0.00  0.00    +0.000 A 
ATOM     20  N   UNL     1       1.808   2.958  17.752  0.00  0.00    +0.000 NA
ATOM     21  C   UNL     1       2.938   2.666  18.411  0.00  0.00    +0.000 A 
ATOM     22  N   UNL     1       3.040   2.585  19.745  0.00  0.00    +0.000 NA
ENDBRANCH  15  21
ENDBRANCH   1  15
TORSDOF 3
ENDMDL
MODEL 9
REMARK VINA RESULT:      -6.8      3.803      7.171
REMARK  Name = 
REMARK  4 active torsions:
REMARK  status: ('A' for Active; 'I' for Inactive)
REMARK    1  A    between atoms: C_1  and  C_2
REMARK    2  A    between atoms: C_6  and  S_7
REMARK    3  A    between atoms: S_7  and  C_8
REMARK    4  A    between atoms: N_12  and  C_13
REMARK                            x       y       z     vdW  Elec       q    Type
REMARK                         _______ _______ _______ _____ _____    ______ ____
ROOT
ATOM      1  C   UNL     1       4.661   3.930  16.544  0.00  0.00    +0.000 C 
ATOM      2  C   UNL     1       5.653   3.898  15.406  0.00  0.00    +0.000 C 
ATOM      3  C   UNL     1       6.599   5.021  15.714  0.00  0.00    +0.000 C 
ATOM      4  O   UNL     1       7.556   5.253  14.985  0.00  0.00    +0.000 OA
ATOM      5  N   UNL     1       6.225   5.649  16.885  0.00  0.00    +0.000 N 
ATOM      6  C   UNL     1       5.095   5.069  17.429  0.00  0.00    +0.000 C 
ATOM      7  O   UNL     1       4.453   5.424  18.411  0.00  0.00    +0.000 OA
ENDROOT
BRANCH   5   8
ATOM      8  C   UNL     1       6.960   6.716  17.495  0.00  0.00    +0.000 A 
ATOM      9  C   UNL     1       6.884   8.032  17.008  0.00  0.00    +0.000 A 
ATOM     10  C   UNL     1       7.656   9.064  17.558  0.00  0.00    +0.000 A 
ATOM     11  C   UNL     1       8.520   8.798  18.611  0.00  0.00    +0.000 A 
ATOM     12 CL   UNL     1       9.497  10.054  19.260  0.00  0.00    +0.000 Cl
ATOM     13  C   UNL     1       8.598   7.515  19.134  0.00  0.00    +0.000 A 
ATOM     14  C   UNL     1       7.820   6.487  18.584  0.00  0.00    +0.000 A 
ENDBRANCH   5   8
BRANCH   1  15
ATOM     15  S   UNL     1       4.451   2.364  17.454  0.00  0.00    +0.000 S 
BRANCH  15  21
ATOM     16  C   UNL     1       2.133   2.762  21.941  0.00  0.00    +0.000 C 
ATOM     17  C   UNL     1       1.979   2.836  20.453  0.00  0.00    +0.000 A 
ATOM     18  C   UNL     1       0.770   3.161  19.874  0.00  0.00    +0.000 A 
ATOM     19  C   UNL     1       0.753   3.200  18.500  0.00  0.00    +0.000 A 
ATOM     20  N   UNL     1       1.831   2.945  17.737  0.00  0.00    +0.000 NA
ATOM     21  C   UNL     1       2.963   2.637  18.385  0.00  0.00    +0.000 A 
ATOM     22  N   UNL     1       3.082   2.575  19.719  0.00  0.00    +0.000 NA
ENDBRANCH  15  21
ENDBRANCH   1  15
TORSDOF 3
ENDMDL
