MODEL 1
REMARK VINA RESULT:      -7.9      0.000      0.000
REMARK  Name = 
REMARK  7 active torsions:
REMARK  status: ('A' for Active; 'I' for Inactive)
REMARK    1  A    between atoms: C_2  and  C_3
REMARK    2  A    between atoms: C_3  and  S_4
REMARK    3  A    between atoms: S_4  and  C_5
REMARK    4  A    between atoms: C_7  and  O_8
REMARK    5  A    between atoms: C_9  and  C_10
REMARK    6  A    between atoms: C_16  and  O_17
REMARK    7  A    between atoms: N_19  and  C_20
REMARK                            x       y       z     vdW  Elec       q    Type
REMARK                         _______ _______ _______ _____ _____    ______ ____
ROOT
ATOM      1  C   UNL     1       6.038   5.229  18.935  0.00  0.00    +0.000 A 
ATOM      2  N   UNL     1       5.835   4.055  18.349  0.00  0.00    +0.000 NA
ATOM      3  C   UNL     1       4.566   3.627  18.334  0.00  0.00    +0.000 A 
ATOM      4  C   UNL     1       3.467   4.247  18.913  0.00  0.00    +0.000 A 
ATOM      5  C   UNL     1       3.815   5.503  19.378  0.00  0.00    +0.000 A 
ATOM      6  N   UNL     1       5.064   6.003  19.422  0.00  0.00    +0.000 NA
ENDROOT
BRANCH   4   7
ATOM      7  C   UNL     1       2.075   3.613  18.881  0.00  0.00    +0.000 C 
ATOM      8  C   UNL     1       2.044   2.092  19.204  0.00  0.00    +0.000 C 
ATOM      9  C   UNL     1       2.435   1.804  20.652  0.00  0.00    +0.000 C 
ATOM     10  C   UNL     1       1.510   2.511  21.638  0.00  0.00    +0.000 C 
ATOM     11  C   UNL     1       1.252   3.976  21.292  0.00  0.00    +0.000 C 
ATOM     12  C   UNL     1       0.975   4.205  19.801  0.00  0.00    +0.000 C 
ENDBRANCH   4   7
BRANCH   3  13
ATOM     13  O   UNL     1       4.455   2.500  17.591  0.00  0.00    +0.000 OA
ATOM     14  H   UNL     1       4.957   1.875  18.148  0.00  0.00    +0.000 HD
ENDBRANCH   3  13
BRANCH   5  15
ATOM     15  O   UNL     1       2.906   6.446  19.741  0.00  0.00    +0.000 OA
ATOM     16  H   UNL     1       2.410   6.685  18.946  0.00  0.00    +0.000 HD
ENDBRANCH   5  15
BRANCH   1  17
ATOM     17  S   UNL     1       7.718   5.772  19.070  0.00  0.00    +0.000 S 
BRANCH  17  18
ATOM     18  C   UNL     1       7.732   7.066  17.798  0.00  0.00    +0.000 C 
BRANCH  18  20
ATOM     19  O   UNL     1       5.905   7.215  16.264  0.00  0.00    +0.000 OA
ATOM     20  C   UNL     1       6.933   6.621  16.584  0.00  0.00    +0.000 C 
ATOM     21  N   UNL     1       7.469   5.517  15.943  0.00  0.00    +0.000 N 
ATOM     22  H   UNL     1       8.311   5.111  16.350  0.00  0.00    +0.000 HD
BRANCH  21  23
ATOM     23  C   UNL     1       6.978   4.896  14.779  0.00  0.00    +0.000 A 
ATOM     24  C   UNL     1       5.822   4.107  14.753  0.00  0.00    +0.000 A 
ATOM     25  C   UNL     1       5.415   3.483  13.571  0.00  0.00    +0.000 A 
ATOM     26  C   UNL     1       6.167   3.646  12.416  0.00  0.00    +0.000 A 
ATOM     27  F   UNL     1       5.795   3.022  11.291  0.00  0.00    +0.000 F 
ATOM     28  C   UNL     1       7.300   4.450  12.412  0.00  0.00    +0.000 A 
ATOM     29  C   UNL     1       7.697   5.089  13.591  0.00  0.00    +0.000 A 
ENDBRANCH  21  23
ENDBRANCH  18  20
ENDBRANCH  17  18
ENDBRANCH   1  17
TORSDOF 7
ENDMDL
MODEL 2
REMARK VINA RESULT:      -7.8      0.353      1.644
REMARK  Name = 
REMARK  7 active torsions:
REMARK  status: ('A' for Active; 'I' for Inactive)
REMARK    1  A    between atoms: C_2  and  C_3
REMARK    2  A    between atoms: C_3  and  S_4
REMARK    3  A    between atoms: S_4  and  C_5
REMARK    4  A    between atoms: C_7  and  O_8
REMARK    5  A    between atoms: C_9  and  C_10
REMARK    6  A    between atoms: C_16  and  O_17
REMARK    7  A    between atoms: N_19  and  C_20
REMARK                            x       y       z     vdW  Elec       q    Type
REMARK                         _______ _______ _______ _____ _____    ______ ____
ROOT
ATOM      1  C   UNL     1       6.129   5.180  18.948  0.00  0.00    +0.000 A 
ATOM      2  N   UNL     1       5.210   5.922  19.554  0.00  0.00    +0.000 NA
ATOM      3  C   UNL     1       3.945   5.502  19.419  0.00  0.00    +0.000 A 
ATOM      4  C   UNL     1       3.497   4.422  18.672  0.00  0.00    +0.000 A 
ATOM      5  C   UNL     1       4.571   3.687  18.201  0.00  0.00    +0.000 A 
ATOM      6  N   UNL     1       5.866   4.041  18.300  0.00  0.00    +0.000 NA
ENDROOT
BRANCH   4   7
ATOM      7  C   UNL     1       2.009   4.090  18.547  0.00  0.00    +0.000 C 
ATOM      8  C   UNL     1       1.690   2.574  18.404  0.00  0.00    +0.000 C 
ATOM      9  C   UNL     1       2.032   1.793  19.673  0.00  0.00    +0.000 C 
ATOM     10  C   UNL     1       1.270   2.321  20.884  0.00  0.00    +0.000 C 
ATOM     11  C   UNL     1       1.294   3.844  21.006  0.00  0.00    +0.000 C 
ATOM     12  C   UNL     1       1.052   4.561  19.673  0.00  0.00    +0.000 C 
ENDBRANCH   4   7
BRANCH   3  13
ATOM     13  O   UNL     1       3.116   6.244  20.191  0.00  0.00    +0.000 OA
ATOM     14  H   UNL     1       3.643   6.299  21.011  0.00  0.00    +0.000 HD
ENDBRANCH   3  13
BRANCH   5  15
ATOM     15  O   UNL     1       4.453   2.438  17.677  0.00  0.00    +0.000 OA
ATOM     16  H   UNL     1       3.546   2.146  17.841  0.00  0.00    +0.000 HD
ENDBRANCH   5  15
BRANCH   1  17
ATOM     17  S   UNL     1       7.798   5.768  19.013  0.00  0.00    +0.000 S 
BRANCH  17  18
ATOM     18  C   UNL     1       7.723   7.063  17.744  0.00  0.00    +0.000 C 
BRANCH  18  20
ATOM     19  O   UNL     1       5.823   7.130  16.295  0.00  0.00    +0.000 OA
ATOM     20  C   UNL     1       6.896   6.592  16.558  0.00  0.00    +0.000 C 
ATOM     21  N   UNL     1       7.466   5.531  15.874  0.00  0.00    +0.000 N 
ATOM     22  H   UNL     1       8.346   5.168  16.236  0.00  0.00    +0.000 HD
BRANCH  21  23
ATOM     23  C   UNL     1       6.959   4.901  14.722  0.00  0.00    +0.000 A 
ATOM     24  C   UNL     1       5.780   4.146  14.708  0.00  0.00    +0.000 A 
ATOM     25  C   UNL     1       5.358   3.510  13.538  0.00  0.00    +0.000 A 
ATOM     26  C   UNL     1       6.117   3.628  12.382  0.00  0.00    +0.000 A 
ATOM     27  F   UNL     1       5.730   2.991  11.269  0.00  0.00    +0.000 F 
ATOM     28  C   UNL     1       7.273   4.397  12.365  0.00  0.00    +0.000 A 
ATOM     29  C   UNL     1       7.686   5.048  13.532  0.00  0.00    +0.000 A 
ENDBRANCH  21  23
ENDBRANCH  18  20
ENDBRANCH  17  18
ENDBRANCH   1  17
TORSDOF 7
ENDMDL
MODEL 3
REMARK VINA RESULT:      -7.8      4.107      5.795
REMARK  Name = 
REMARK  7 active torsions:
REMARK  status: ('A' for Active; 'I' for Inactive)
REMARK    1  A    between atoms: C_2  and  C_3
REMARK    2  A    between atoms: C_3  and  S_4
REMARK    3  A    between atoms: S_4  and  C_5
REMARK    4  A    between atoms: C_7  and  O_8
REMARK    5  A    between atoms: C_9  and  C_10
REMARK    6  A    between atoms: C_16  and  O_17
REMARK    7  A    between atoms: N_19  and  C_20
REMARK                            x       y       z     vdW  Elec       q    Type
REMARK                         _______ _______ _______ _____ _____    ______ ____
ROOT
ATOM      1  C   UNL     1       5.559   5.337  17.271  0.00  0.00    +0.000 A 
ATOM      2  N   UNL     1       5.485   4.011  17.271  0.00  0.00    +0.000 NA
ATOM      3  C   UNL     1       4.319   3.496  17.684  0.00  0.00    +0.000 A 
ATOM      4  C   UNL     1       3.218   4.193  18.162  0.00  0.00    +0.000 A 
ATOM      5  C   UNL     1       3.403   5.554  17.992  0.00  0.00    +0.000 A 
ATOM      6  N   UNL     1       4.541   6.145  17.580  0.00  0.00    +0.000 NA
ENDROOT
BRANCH   4   7
ATOM      7  C   UNL     1       1.967   3.475  18.669  0.00  0.00    +0.000 C 
ATOM      8  C   UNL     1       2.244   2.180  19.485  0.00  0.00    +0.000 C 
ATOM      9  C   UNL     1       2.938   2.477  20.814  0.00  0.00    +0.000 C 
ATOM     10  C   UNL     1       2.108   3.413  21.687  0.00  0.00    +0.000 C 
ATOM     11  C   UNL     1       1.555   4.622  20.935  0.00  0.00    +0.000 C 
ATOM     12  C   UNL     1       0.974   4.265  19.561  0.00  0.00    +0.000 C 
ENDBRANCH   4   7
BRANCH   3  13
ATOM     13  O   UNL     1       4.306   2.154  17.507  0.00  0.00    +0.000 OA
ATOM     14  H   UNL     1       5.147   2.033  17.027  0.00  0.00    +0.000 HD
ENDBRANCH   3  13
BRANCH   5  15
ATOM     15  O   UNL     1       2.402   6.467  18.109  0.00  0.00    +0.000 OA
ATOM     16  H   UNL     1       2.034   6.600  17.224  0.00  0.00    +0.000 HD
ENDBRANCH   5  15
BRANCH   1  17
ATOM     17  S   UNL     1       7.121   6.047  16.836  0.00  0.00    +0.000 S 
BRANCH  17  18
ATOM     18  C   UNL     1       6.819   7.775  17.299  0.00  0.00    +0.000 C 
BRANCH  18  20
ATOM     19  O   UNL     1       8.659   7.595  18.814  0.00  0.00    +0.000 OA
ATOM     20  C   UNL     1       8.001   8.328  18.079  0.00  0.00    +0.000 C 
ATOM     21  N   UNL     1       8.208   9.683  17.882  0.00  0.00    +0.000 N 
ATOM     22  H   UNL     1       7.554  10.165  17.268  0.00  0.00    +0.000 HD
BRANCH  21  23
ATOM     23  C   UNL     1       9.236  10.469  18.438  0.00  0.00    +0.000 A 
ATOM     24  C   UNL     1      10.246  11.070  17.678  0.00  0.00    +0.000 A 
ATOM     25  C   UNL     1      11.262  11.801  18.300  0.00  0.00    +0.000 A 
ATOM     26  C   UNL     1      11.267  11.928  19.681  0.00  0.00    +0.000 A 
ATOM     27  F   UNL     1      12.259  12.600  20.280  0.00  0.00    +0.000 F 
ATOM     28  C   UNL     1      10.257  11.366  20.452  0.00  0.00    +0.000 A 
ATOM     29  C   UNL     1       9.231  10.649  19.828  0.00  0.00    +0.000 A 
ENDBRANCH  21  23
ENDBRANCH  18  20
ENDBRANCH  17  18
ENDBRANCH   1  17
TORSDOF 7
ENDMDL
MODEL 4
REMARK VINA RESULT:      -7.7      3.427      6.666
REMARK  Name = 
REMARK  7 active torsions:
REMARK  status: ('A' for Active; 'I' for Inactive)
REMARK    1  A    between atoms: C_2  and  C_3
REMARK    2  A    between atoms: C_3  and  S_4
REMARK    3  A    between atoms: S_4  and  C_5
REMARK    4  A    between atoms: C_7  and  O_8
REMARK    5  A    between atoms: C_9  and  C_10
REMARK    6  A    between atoms: C_16  and  O_17
REMARK    7  A    between atoms: N_19  and  C_20
REMARK                            x       y       z     vdW  Elec       q    Type
REMARK                         _______ _______ _______ _____ _____    ______ ____
ROOT
ATOM      1  C   UNL     1       3.228   2.771  19.412  0.00  0.00    +0.000 A 
ATOM      2  N   UNL     1       2.545   2.846  18.275  0.00  0.00    +0.000 NA
ATOM      3  C   UNL     1       3.187   3.422  17.251  0.00  0.00    +0.000 A 
ATOM      4  C   UNL     1       4.451   3.997  17.271  0.00  0.00    +0.000 A 
ATOM      5  C   UNL     1       5.074   3.738  18.480  0.00  0.00    +0.000 A 
ATOM      6  N   UNL     1       4.498   3.162  19.551  0.00  0.00    +0.000 NA
ENDROOT
BRANCH   4   7
ATOM      7  C   UNL     1       5.042   4.687  16.041  0.00  0.00    +0.000 C 
ATOM      8  C   UNL     1       4.979   6.241  16.072  0.00  0.00    +0.000 C 
ATOM      9  C   UNL     1       5.871   6.830  17.164  0.00  0.00    +0.000 C 
ATOM     10  C   UNL     1       7.330   6.425  16.982  0.00  0.00    +0.000 C 
ATOM     11  C   UNL     1       7.519   4.937  16.691  0.00  0.00    +0.000 C 
ATOM     12  C   UNL     1       6.518   4.389  15.668  0.00  0.00    +0.000 C 
ENDBRANCH   4   7
BRANCH   3  13
ATOM     13  O   UNL     1       2.458   3.314  16.115  0.00  0.00    +0.000 OA
ATOM     14  H   UNL     1       2.334   2.347  16.078  0.00  0.00    +0.000 HD
ENDBRANCH   3  13
BRANCH   5  15
ATOM     15  O   UNL     1       6.403   3.931  18.693  0.00  0.00    +0.000 OA
ATOM     16  H   UNL     1       6.498   4.780  19.147  0.00  0.00    +0.000 HD
ENDBRANCH   5  15
BRANCH   1  17
ATOM     17  S   UNL     1       2.370   2.115  20.815  0.00  0.00    +0.000 S 
BRANCH  17  18
ATOM     18  C   UNL     1       2.147   3.633  21.783  0.00  0.00    +0.000 C 
BRANCH  18  20
ATOM     19  O   UNL     1       0.454   4.608  20.405  0.00  0.00    +0.000 OA
ATOM     20  C   UNL     1       1.567   4.735  20.911  0.00  0.00    +0.000 C 
ATOM     21  N   UNL     1       2.416   5.818  20.753  0.00  0.00    +0.000 N 
ATOM     22  H   UNL     1       3.326   5.762  21.207  0.00  0.00    +0.000 HD
BRANCH  21  23
ATOM     23  C   UNL     1       2.151   6.999  20.034  0.00  0.00    +0.000 A 
ATOM     24  C   UNL     1       1.468   8.096  20.573  0.00  0.00    +0.000 A 
ATOM     25  C   UNL     1       1.200   9.221  19.788  0.00  0.00    +0.000 A 
ATOM     26  C   UNL     1       1.614   9.247  18.464  0.00  0.00    +0.000 A 
ATOM     27  F   UNL     1       1.328  10.310  17.702  0.00  0.00    +0.000 F 
ATOM     28  C   UNL     1       2.320   8.182  17.918  0.00  0.00    +0.000 A 
ATOM     29  C   UNL     1       2.603   7.064  18.709  0.00  0.00    +0.000 A 
ENDBRANCH  21  23
ENDBRANCH  18  20
ENDBRANCH  17  18
ENDBRANCH   1  17
TORSDOF 7
ENDMDL
MODEL 5
REMARK VINA RESULT:      -7.7      3.765      5.418
REMARK  Name = 
REMARK  7 active torsions:
REMARK  status: ('A' for Active; 'I' for Inactive)
REMARK    1  A    between atoms: C_2  and  C_3
REMARK    2  A    between atoms: C_3  and  S_4
REMARK    3  A    between atoms: S_4  and  C_5
REMARK    4  A    between atoms: C_7  and  O_8
REMARK    5  A    between atoms: C_9  and  C_10
REMARK    6  A    between atoms: C_16  and  O_17
REMARK    7  A    between atoms: N_19  and  C_20
REMARK                            x       y       z     vdW  Elec       q    Type
REMARK                         _______ _______ _______ _____ _____    ______ ____
ROOT
ATOM      1  C   UNL     1       5.375   5.130  17.501  0.00  0.00    +0.000 A 
ATOM      2  N   UNL     1       4.614   4.269  16.834  0.00  0.00    +0.000 NA
ATOM      3  C   UNL     1       3.388   4.071  17.336  0.00  0.00    +0.000 A 
ATOM      4  C   UNL     1       2.860   4.617  18.498  0.00  0.00    +0.000 A 
ATOM      5  C   UNL     1       3.721   5.573  19.011  0.00  0.00    +0.000 A 
ATOM      6  N   UNL     1       4.963   5.831  18.560  0.00  0.00    +0.000 NA
ENDROOT
BRANCH   4   7
ATOM      7  C   UNL     1       1.462   4.253  18.998  0.00  0.00    +0.000 C 
ATOM      8  C   UNL     1       1.090   2.749  18.853  0.00  0.00    +0.000 C 
ATOM      9  C   UNL     1       1.938   1.859  19.760  0.00  0.00    +0.000 C 
ATOM     10  C   UNL     1       1.786   2.239  21.229  0.00  0.00    +0.000 C 
ATOM     11  C   UNL     1       1.883   3.743  21.484  0.00  0.00    +0.000 C 
ATOM     12  C   UNL     1       1.096   4.580  20.469  0.00  0.00    +0.000 C 
ENDBRANCH   4   7
BRANCH   3  13
ATOM     13  O   UNL     1       2.656   3.293  16.504  0.00  0.00    +0.000 OA
ATOM     14  H   UNL     1       2.431   2.558  17.105  0.00  0.00    +0.000 HD
ENDBRANCH   3  13
BRANCH   5  15
ATOM     15  O   UNL     1       3.363   6.464  19.973  0.00  0.00    +0.000 OA
ATOM     16  H   UNL     1       3.429   6.007  20.823  0.00  0.00    +0.000 HD
ENDBRANCH   5  15
BRANCH   1  17
ATOM     17  S   UNL     1       7.038   5.331  16.928  0.00  0.00    +0.000 S 
BRANCH  17  18
ATOM     18  C   UNL     1       7.758   6.191  18.354  0.00  0.00    +0.000 C 
BRANCH  18  20
ATOM     19  O   UNL     1       7.394   8.164  17.054  0.00  0.00    +0.000 OA
ATOM     20  C   UNL     1       7.916   7.673  18.052  0.00  0.00    +0.000 C 
ATOM     21  N   UNL     1       8.696   8.345  18.979  0.00  0.00    +0.000 N 
ATOM     22  H   UNL     1       9.092   7.792  19.737  0.00  0.00    +0.000 HD
BRANCH  21  23
ATOM     23  C   UNL     1       8.997   9.721  18.988  0.00  0.00    +0.000 A 
ATOM     24  C   UNL     1       9.572  10.379  20.082  0.00  0.00    +0.000 A 
ATOM     25  C   UNL     1       9.803  11.757  20.040  0.00  0.00    +0.000 A 
ATOM     26  C   UNL     1       9.457  12.475  18.904  0.00  0.00    +0.000 A 
ATOM     27  F   UNL     1       9.648  13.800  18.876  0.00  0.00    +0.000 F 
ATOM     28  C   UNL     1       8.914  11.836  17.796  0.00  0.00    +0.000 A 
ATOM     29  C   UNL     1       8.699  10.455  17.832  0.00  0.00    +0.000 A 
ENDBRANCH  21  23
ENDBRANCH  18  20
ENDBRANCH  17  18
ENDBRANCH   1  17
TORSDOF 7
ENDMDL
MODEL 6
REMARK VINA RESULT:      -7.5      4.220      6.259
REMARK  Name = 
REMARK  7 active torsions:
REMARK  status: ('A' for Active; 'I' for Inactive)
REMARK    1  A    between atoms: C_2  and  C_3
REMARK    2  A    between atoms: C_3  and  S_4
REMARK    3  A    between atoms: S_4  and  C_5
REMARK    4  A    between atoms: C_7  and  O_8
REMARK    5  A    between atoms: C_9  and  C_10
REMARK    6  A    between atoms: C_16  and  O_17
REMARK    7  A    between atoms: N_19  and  C_20
REMARK                            x       y       z     vdW  Elec       q    Type
REMARK                         _______ _______ _______ _____ _____    ______ ____
ROOT
ATOM      1  C   UNL     1       5.780   5.561  18.278  0.00  0.00    +0.000 A 
ATOM      2  N   UNL     1       4.794   6.365  18.657  0.00  0.00    +0.000 NA
ATOM      3  C   UNL     1       3.827   5.791  19.386  0.00  0.00    +0.000 A 
ATOM      4  C   UNL     1       3.720   4.450  19.727  0.00  0.00    +0.000 A 
ATOM      5  C   UNL     1       4.870   3.770  19.363  0.00  0.00    +0.000 A 
ATOM      6  N   UNL     1       5.883   4.278  18.637  0.00  0.00    +0.000 NA
ENDROOT
BRANCH   4   7
ATOM      7  C   UNL     1       2.522   3.910  20.509  0.00  0.00    +0.000 C 
ATOM      8  C   UNL     1       1.135   4.363  19.971  0.00  0.00    +0.000 C 
ATOM      9  C   UNL     1       0.837   3.779  18.590  0.00  0.00    +0.000 C 
ATOM     10  C   UNL     1       0.858   2.255  18.605  0.00  0.00    +0.000 C 
ATOM     11  C   UNL     1       2.065   1.667  19.335  0.00  0.00    +0.000 C 
ATOM     12  C   UNL     1       2.372   2.374  20.661  0.00  0.00    +0.000 C 
ENDBRANCH   4   7
BRANCH   3  13
ATOM     13  O   UNL     1       2.957   6.726  19.836  0.00  0.00    +0.000 OA
ATOM     14  H   UNL     1       2.952   6.515  20.789  0.00  0.00    +0.000 HD
ENDBRANCH   3  13
BRANCH   5  15
ATOM     15  O   UNL     1       5.173   2.521  19.806  0.00  0.00    +0.000 OA
ATOM     16  H   UNL     1       5.088   2.532  20.769  0.00  0.00    +0.000 HD
ENDBRANCH   5  15
BRANCH   1  17
ATOM     17  S   UNL     1       7.017   6.261  17.222  0.00  0.00    +0.000 S 
BRANCH  17  18
ATOM     18  C   UNL     1       8.115   6.991  18.469  0.00  0.00    +0.000 C 
BRANCH  18  20
ATOM     19  O   UNL     1       7.410   9.073  17.531  0.00  0.00    +0.000 OA
ATOM     20  C   UNL     1       8.182   8.500  18.296  0.00  0.00    +0.000 C 
ATOM     21  N   UNL     1       9.178   9.099  19.049  0.00  0.00    +0.000 N 
ATOM     22  H   UNL     1       9.765   8.484  19.611  0.00  0.00    +0.000 HD
BRANCH  21  23
ATOM     23  C   UNL     1       9.466  10.475  19.126  0.00  0.00    +0.000 A 
ATOM     24  C   UNL     1       9.943  11.227  18.046  0.00  0.00    +0.000 A 
ATOM     25  C   UNL     1      10.250  12.581  18.205  0.00  0.00    +0.000 A 
ATOM     26  C   UNL     1      10.081  13.181  19.444  0.00  0.00    +0.000 A 
ATOM     27  F   UNL     1      10.406  14.470  19.605  0.00  0.00    +0.000 F 
ATOM     28  C   UNL     1       9.579  12.461  20.521  0.00  0.00    +0.000 A 
ATOM     29  C   UNL     1       9.255  11.110  20.357  0.00  0.00    +0.000 A 
ENDBRANCH  21  23
ENDBRANCH  18  20
ENDBRANCH  17  18
ENDBRANCH   1  17
TORSDOF 7
ENDMDL
MODEL 7
REMARK VINA RESULT:      -7.5      4.069      5.929
REMARK  Name = 
REMARK  7 active torsions:
REMARK  status: ('A' for Active; 'I' for Inactive)
REMARK    1  A    between atoms: C_2  and  C_3
REMARK    2  A    between atoms: C_3  and  S_4
REMARK    3  A    between atoms: S_4  and  C_5
REMARK    4  A    between atoms: C_7  and  O_8
REMARK    5  A    between atoms: C_9  and  C_10
REMARK    6  A    between atoms: C_16  and  O_17
REMARK    7  A    between atoms: N_19  and  C_20
REMARK                            x       y       z     vdW  Elec       q    Type
REMARK                         _______ _______ _______ _____ _____    ______ ____
ROOT
ATOM      1  C   UNL     1       5.589   5.269  17.534  0.00  0.00    +0.000 A 
ATOM      2  N   UNL     1       4.791   6.154  18.121  0.00  0.00    +0.000 NA
ATOM      3  C   UNL     1       3.578   5.702  18.464  0.00  0.00    +0.000 A 
ATOM      4  C   UNL     1       3.054   4.441  18.217  0.00  0.00    +0.000 A 
ATOM      5  C   UNL     1       4.035   3.606  17.710  0.00  0.00    +0.000 A 
ATOM      6  N   UNL     1       5.274   3.985  17.346  0.00  0.00    +0.000 NA
ENDROOT
BRANCH   4   7
ATOM      7  C   UNL     1       1.620   4.073  18.604  0.00  0.00    +0.000 C 
ATOM      8  C   UNL     1       1.338   2.546  18.685  0.00  0.00    +0.000 C 
ATOM      9  C   UNL     1       2.102   1.881  19.829  0.00  0.00    +0.000 C 
ATOM     10  C   UNL     1       1.745   2.495  21.179  0.00  0.00    +0.000 C 
ATOM     11  C   UNL     1       1.741   4.023  21.173  0.00  0.00    +0.000 C 
ATOM     12  C   UNL     1       1.054   4.622  19.940  0.00  0.00    +0.000 C 
ENDBRANCH   4   7
BRANCH   3  13
ATOM     13  O   UNL     1       2.909   6.638  19.179  0.00  0.00    +0.000 OA
ATOM     14  H   UNL     1       1.988   6.381  18.985  0.00  0.00    +0.000 HD
ENDBRANCH   3  13
BRANCH   5  15
ATOM     15  O   UNL     1       3.901   2.255  17.628  0.00  0.00    +0.000 OA
ATOM     16  H   UNL     1       4.771   1.872  17.803  0.00  0.00    +0.000 HD
ENDBRANCH   5  15
BRANCH   1  17
ATOM     17  S   UNL     1       7.158   5.864  16.968  0.00  0.00    +0.000 S 
BRANCH  17  18
ATOM     18  C   UNL     1       6.919   7.647  17.202  0.00  0.00    +0.000 C 
BRANCH  18  20
ATOM     19  O   UNL     1       8.629   7.489  18.866  0.00  0.00    +0.000 OA
ATOM     20  C   UNL     1       8.020   8.216  18.084  0.00  0.00    +0.000 C 
ATOM     21  N   UNL     1       8.215   9.577  17.916  0.00  0.00    +0.000 N 
ATOM     22  H   UNL     1       7.605  10.052  17.252  0.00  0.00    +0.000 HD
BRANCH  21  23
ATOM     23  C   UNL     1       9.176  10.377  18.562  0.00  0.00    +0.000 A 
ATOM     24  C   UNL     1       9.209  10.579  19.946  0.00  0.00    +0.000 A 
ATOM     25  C   UNL     1      10.165  11.424  20.518  0.00  0.00    +0.000 A 
ATOM     26  C   UNL     1      11.086  12.067  19.703  0.00  0.00    +0.000 A 
ATOM     27  F   UNL     1      11.981  12.901  20.247  0.00  0.00    +0.000 F 
ATOM     28  C   UNL     1      11.090  11.856  18.330  0.00  0.00    +0.000 A 
ATOM     29  C   UNL     1      10.144  10.997  17.760  0.00  0.00    +0.000 A 
ENDBRANCH  21  23
ENDBRANCH  18  20
ENDBRANCH  17  18
ENDBRANCH   1  17
TORSDOF 7
ENDMDL
MODEL 8
REMARK VINA RESULT:      -7.3      6.168      8.287
REMARK  Name = 
REMARK  7 active torsions:
REMARK  status: ('A' for Active; 'I' for Inactive)
REMARK    1  A    between atoms: C_2  and  C_3
REMARK    2  A    between atoms: C_3  and  S_4
REMARK    3  A    between atoms: S_4  and  C_5
REMARK    4  A    between atoms: C_7  and  O_8
REMARK    5  A    between atoms: C_9  and  C_10
REMARK    6  A    between atoms: C_16  and  O_17
REMARK    7  A    between atoms: N_19  and  C_20
REMARK                            x       y       z     vdW  Elec       q    Type
REMARK                         _______ _______ _______ _____ _____    ______ ____
ROOT
ATOM      1  C   UNL     1       2.562   7.813  18.378  0.00  0.00    +0.000 A 
ATOM      2  N   UNL     1       2.152   7.452  19.589  0.00  0.00    +0.000 NA
ATOM      3  C   UNL     1       2.453   6.198  19.952  0.00  0.00    +0.000 A 
ATOM      4  C   UNL     1       3.085   5.232  19.182  0.00  0.00    +0.000 A 
ATOM      5  C   UNL     1       3.550   5.789  18.003  0.00  0.00    +0.000 A 
ATOM      6  N   UNL     1       3.293   7.038  17.572  0.00  0.00    +0.000 NA
ENDROOT
BRANCH   4   7
ATOM      7  C   UNL     1       3.308   3.809  19.697  0.00  0.00    +0.000 C 
ATOM      8  C   UNL     1       2.181   3.267  20.622  0.00  0.00    +0.000 C 
ATOM      9  C   UNL     1       0.864   3.077  19.871  0.00  0.00    +0.000 C 
ATOM     10  C   UNL     1       1.015   2.109  18.702  0.00  0.00    +0.000 C 
ATOM     11  C   UNL     1       2.246   2.381  17.839  0.00  0.00    +0.000 C 
ATOM     12  C   UNL     1       3.508   2.673  18.661  0.00  0.00    +0.000 C 
ENDBRANCH   4   7
BRANCH   3  13
ATOM     13  O   UNL     1       2.118   5.989  21.248  0.00  0.00    +0.000 OA
ATOM     14  H   UNL     1       1.883   5.042  21.216  0.00  0.00    +0.000 HD
ENDBRANCH   3  13
BRANCH   5  15
ATOM     15  O   UNL     1       4.437   5.168  17.180  0.00  0.00    +0.000 OA
ATOM     16  H   UNL     1       4.424   4.227  17.406  0.00  0.00    +0.000 HD
ENDBRANCH   5  15
BRANCH   1  17
ATOM     17  S   UNL     1       2.086   9.425  17.824  0.00  0.00    +0.000 S 
BRANCH  17  18
ATOM     18  C   UNL     1       1.021   9.928  19.203  0.00  0.00    +0.000 C 
BRANCH  18  20
ATOM     19  O   UNL     1       0.034  12.012  18.573  0.00  0.00    +0.000 OA
ATOM     20  C   UNL     1      -0.119  10.800  18.700  0.00  0.00    +0.000 C 
ATOM     21  N   UNL     1      -1.283  10.094  18.445  0.00  0.00    +0.000 N 
ATOM     22  H   UNL     1      -1.267   9.093  18.634  0.00  0.00    +0.000 HD
BRANCH  21  23
ATOM     23  C   UNL     1      -2.492  10.613  17.943  0.00  0.00    +0.000 A 
ATOM     24  C   UNL     1      -2.920  10.436  16.622  0.00  0.00    +0.000 A 
ATOM     25  C   UNL     1      -4.111  11.017  16.178  0.00  0.00    +0.000 A 
ATOM     26  C   UNL     1      -4.871  11.777  17.055  0.00  0.00    +0.000 A 
ATOM     27  F   UNL     1      -5.995  12.361  16.621  0.00  0.00    +0.000 F 
ATOM     28  C   UNL     1      -4.480  11.939  18.379  0.00  0.00    +0.000 A 
ATOM     29  C   UNL     1      -3.298  11.343  18.828  0.00  0.00    +0.000 A 
ENDBRANCH  21  23
ENDBRANCH  18  20
ENDBRANCH  17  18
ENDBRANCH   1  17
TORSDOF 7
ENDMDL
MODEL 9
REMARK VINA RESULT:      -7.3      1.462      1.754
REMARK  Name = 
REMARK  7 active torsions:
REMARK  status: ('A' for Active; 'I' for Inactive)
REMARK    1  A    between atoms: C_2  and  C_3
REMARK    2  A    between atoms: C_3  and  S_4
REMARK    3  A    between atoms: S_4  and  C_5
REMARK    4  A    between atoms: C_7  and  O_8
REMARK    5  A    between atoms: C_9  and  C_10
REMARK    6  A    between atoms: C_16  and  O_17
REMARK    7  A    between atoms: N_19  and  C_20
REMARK                            x       y       z     vdW  Elec       q    Type
REMARK                         _______ _______ _______ _____ _____    ______ ____
ROOT
ATOM      1  C   UNL     1       4.649   6.589  17.729  0.00  0.00    +0.000 A 
ATOM      2  N   UNL     1       4.473   5.447  17.074  0.00  0.00    +0.000 NA
ATOM      3  C   UNL     1       3.450   4.691  17.493  0.00  0.00    +0.000 A 
ATOM      4  C   UNL     1       2.604   4.946  18.564  0.00  0.00    +0.000 A 
ATOM      5  C   UNL     1       2.837   6.214  19.066  0.00  0.00    +0.000 A 
ATOM      6  N   UNL     1       3.840   7.032  18.695  0.00  0.00    +0.000 NA
ENDROOT
BRANCH   4   7
ATOM      7  C   UNL     1       1.511   3.960  18.980  0.00  0.00    +0.000 C 
ATOM      8  C   UNL     1       1.919   2.462  18.899  0.00  0.00    +0.000 C 
ATOM      9  C   UNL     1       3.002   2.105  19.917  0.00  0.00    +0.000 C 
ATOM     10  C   UNL     1       2.549   2.390  21.345  0.00  0.00    +0.000 C 
ATOM     11  C   UNL     1       1.891   3.759  21.517  0.00  0.00    +0.000 C 
ATOM     12  C   UNL     1       0.898   4.096  20.399  0.00  0.00    +0.000 C 
ENDBRANCH   4   7
BRANCH   3  13
ATOM     13  O   UNL     1       3.277   3.630  16.669  0.00  0.00    +0.000 OA
ATOM     14  H   UNL     1       2.780   4.053  15.943  0.00  0.00    +0.000 HD
ENDBRANCH   3  13
BRANCH   5  15
ATOM     15  O   UNL     1       1.994   6.846  19.925  0.00  0.00    +0.000 OA
ATOM     16  H   UNL     1       2.469   6.956  20.761  0.00  0.00    +0.000 HD
ENDBRANCH   5  15
BRANCH   1  17
ATOM     17  S   UNL     1       6.059   7.559  17.273  0.00  0.00    +0.000 S 
BRANCH  17  18
ATOM     18  C   UNL     1       7.386   6.390  17.679  0.00  0.00    +0.000 C 
BRANCH  18  20
ATOM     19  O   UNL     1       7.965   4.206  16.899  0.00  0.00    +0.000 OA
ATOM     20  C   UNL     1       7.464   5.294  16.627  0.00  0.00    +0.000 C 
ATOM     21  N   UNL     1       6.952   5.672  15.397  0.00  0.00    +0.000 N 
ATOM     22  H   UNL     1       6.602   6.625  15.316  0.00  0.00    +0.000 HD
BRANCH  21  23
ATOM     23  C   UNL     1       6.855   4.872  14.243  0.00  0.00    +0.000 A 
ATOM     24  C   UNL     1       7.666   5.041  13.115  0.00  0.00    +0.000 A 
ATOM     25  C   UNL     1       7.486   4.239  11.984  0.00  0.00    +0.000 A 
ATOM     26  C   UNL     1       6.493   3.270  11.982  0.00  0.00    +0.000 A 
ATOM     27  F   UNL     1       6.298   2.524  10.887  0.00  0.00    +0.000 F 
ATOM     28  C   UNL     1       5.697   3.065  13.103  0.00  0.00    +0.000 A 
ATOM     29  C   UNL     1       5.889   3.856  14.240  0.00  0.00    +0.000 A 
ENDBRANCH  21  23
ENDBRANCH  18  20
ENDBRANCH  17  18
ENDBRANCH   1  17
TORSDOF 7
ENDMDL
