MODEL 1
REMARK VINA RESULT:      -4.4      0.000      0.000
REMARK  Name = 
REMARK  7 active torsions:
REMARK  status: ('A' for Active; 'I' for Inactive)
REMARK    1  A    between atoms: C_1  and  C_2
REMARK    2  A    between atoms: C_2  and  N_3
REMARK    3  A    between atoms: C_2  and  C_4
REMARK    4  A    between atoms: C_2  and  C_7
REMARK    5  A    between atoms: C_4  and  C_5
REMARK    6  A    between atoms: C_5  and  N_6
REMARK    7  A    between atoms: C_7  and  O_9
REMARK                            x       y       z     vdW  Elec       q    Type
REMARK                         _______ _______ _______ _____ _____    ______ ____
ROOT
ATOM      1  C   UNL     1       6.841   5.192  15.659  0.00  0.00    +0.000 C 
ATOM      2  C   UNL     1       6.839   4.949  17.171  0.00  0.00    +0.000 C 
ENDROOT
BRANCH   2   3
ATOM      3  N   UNL     1       8.017   4.091  17.533  0.00  0.00    +0.000 NA
ATOM      4  H   UNL     1       8.408   3.705  16.670  0.00  0.00    +0.000 HD
ATOM      5  H   UNL     1       7.669   3.268  18.037  0.00  0.00    +0.000 HD
ENDBRANCH   2   3
BRANCH   2   6
ATOM      6  C   UNL     1       5.574   4.165  17.590  0.00  0.00    +0.000 C 
ATOM      7  O   UNL     1       4.564   4.030  16.912  0.00  0.00    +0.000 OA
BRANCH   6   8
ATOM      8  O   UNL     1       5.705   3.649  18.839  0.00  0.00    +0.000 OA
ATOM      9  H   UNL     1       6.660   3.738  19.078  0.00  0.00    +0.000 HD
ENDBRANCH   6   8
ENDBRANCH   2   6
BRANCH   2  10
ATOM     10  C   UNL     1       6.914   6.259  17.989  0.00  0.00    +0.000 C 
BRANCH  10  11
ATOM     11  C   UNL     1       8.085   6.316  18.980  0.00  0.00    +0.000 C 
BRANCH  11  12
ATOM     12  N   UNL     1       7.780   5.526  20.170  0.00  0.00    +0.000 NA
ATOM     13  H   UNL     1       8.222   5.948  20.986  0.00  0.00    +0.000 HD
ATOM     14  H   UNL     1       8.210   4.604  20.072  0.00  0.00    +0.000 HD
ENDBRANCH  11  12
ENDBRANCH  10  11
ENDBRANCH   2  10
TORSDOF 6
ENDMDL
MODEL 2
REMARK VINA RESULT:      -4.2      2.034      2.753
REMARK  Name = 
REMARK  7 active torsions:
REMARK  status: ('A' for Active; 'I' for Inactive)
REMARK    1  A    between atoms: C_1  and  C_2
REMARK    2  A    between atoms: C_2  and  N_3
REMARK    3  A    between atoms: C_2  and  C_4
REMARK    4  A    between atoms: C_2  and  C_7
REMARK    5  A    between atoms: C_4  and  C_5
REMARK    6  A    between atoms: C_5  and  N_6
REMARK    7  A    between atoms: C_7  and  O_9
REMARK                            x       y       z     vdW  Elec       q    Type
REMARK                         _______ _______ _______ _____ _____    ______ ____
ROOT
ATOM      1  C   UNL     1       7.048   6.546  17.246  0.00  0.00    +0.000 C 
ATOM      2  C   UNL     1       6.764   5.046  17.122  0.00  0.00    +0.000 C 
ENDROOT
BRANCH   2   3
ATOM      3  N   UNL     1       7.750   4.288  17.963  0.00  0.00    +0.000 NA
ATOM      4  H   UNL     1       7.667   4.617  18.928  0.00  0.00    +0.000 HD
ATOM      5  H   UNL     1       8.695   4.575  17.684  0.00  0.00    +0.000 HD
ENDBRANCH   2   3
BRANCH   2   6
ATOM      6  C   UNL     1       6.972   4.577  15.663  0.00  0.00    +0.000 C 
ATOM      7  O   UNL     1       7.568   5.198  14.794  0.00  0.00    +0.000 OA
BRANCH   6   8
ATOM      8  O   UNL     1       6.381   3.374  15.443  0.00  0.00    +0.000 OA
ATOM      9  H   UNL     1       5.414   3.554  15.339  0.00  0.00    +0.000 HD
ENDBRANCH   6   8
ENDBRANCH   2   6
BRANCH   2  10
ATOM     10  C   UNL     1       5.335   4.667  17.574  0.00  0.00    +0.000 C 
BRANCH  10  11
ATOM     11  C   UNL     1       5.198   4.421  19.084  0.00  0.00    +0.000 C 
BRANCH  11  12
ATOM     12  N   UNL     1       5.225   2.988  19.368  0.00  0.00    +0.000 NA
ATOM     13  H   UNL     1       4.404   2.541  18.960  0.00  0.00    +0.000 HD
ATOM     14  H   UNL     1       5.140   2.851  20.376  0.00  0.00    +0.000 HD
ENDBRANCH  11  12
ENDBRANCH  10  11
ENDBRANCH   2  10
TORSDOF 6
ENDMDL
MODEL 3
REMARK VINA RESULT:      -4.2      2.062      2.724
REMARK  Name = 
REMARK  7 active torsions:
REMARK  status: ('A' for Active; 'I' for Inactive)
REMARK    1  A    between atoms: C_1  and  C_2
REMARK    2  A    between atoms: C_2  and  N_3
REMARK    3  A    between atoms: C_2  and  C_4
REMARK    4  A    between atoms: C_2  and  C_7
REMARK    5  A    between atoms: C_4  and  C_5
REMARK    6  A    between atoms: C_5  and  N_6
REMARK    7  A    between atoms: C_7  and  O_9
REMARK                            x       y       z     vdW  Elec       q    Type
REMARK                         _______ _______ _______ _____ _____    ______ ____
ROOT
ATOM      1  C   UNL     1       7.337   6.646  17.245  0.00  0.00    +0.000 C 
ATOM      2  C   UNL     1       6.824   5.206  17.168  0.00  0.00    +0.000 C 
ENDROOT
BRANCH   2   3
ATOM      3  N   UNL     1       7.730   4.318  17.973  0.00  0.00    +0.000 NA
ATOM      4  H   UNL     1       7.150   3.638  18.472  0.00  0.00    +0.000 HD
ATOM      5  H   UNL     1       8.148   4.883  18.720  0.00  0.00    +0.000 HD
ENDBRANCH   2   3
BRANCH   2   6
ATOM      6  C   UNL     1       6.878   4.690  15.711  0.00  0.00    +0.000 C 
ATOM      7  O   UNL     1       6.281   3.713  15.281  0.00  0.00    +0.000 OA
BRANCH   6   8
ATOM      8  O   UNL     1       7.703   5.452  14.949  0.00  0.00    +0.000 OA
ATOM      9  H   UNL     1       7.148   5.817  14.217  0.00  0.00    +0.000 HD
ENDBRANCH   6   8
ENDBRANCH   2   6
BRANCH   2  10
ATOM     10  C   UNL     1       5.382   5.053  17.704  0.00  0.00    +0.000 C 
BRANCH  10  11
ATOM     11  C   UNL     1       5.299   4.588  19.165  0.00  0.00    +0.000 C 
BRANCH  11  12
ATOM     12  N   UNL     1       5.202   3.132  19.228  0.00  0.00    +0.000 NA
ATOM     13  H   UNL     1       6.002   2.756  19.736  0.00  0.00    +0.000 HD
ATOM     14  H   UNL     1       5.277   2.755  18.281  0.00  0.00    +0.000 HD
ENDBRANCH  11  12
ENDBRANCH  10  11
ENDBRANCH   2  10
TORSDOF 6
ENDMDL
MODEL 4
REMARK VINA RESULT:      -4.2      2.421      2.715
REMARK  Name = 
REMARK  7 active torsions:
REMARK  status: ('A' for Active; 'I' for Inactive)
REMARK    1  A    between atoms: C_1  and  C_2
REMARK    2  A    between atoms: C_2  and  N_3
REMARK    3  A    between atoms: C_2  and  C_4
REMARK    4  A    between atoms: C_2  and  C_7
REMARK    5  A    between atoms: C_4  and  C_5
REMARK    6  A    between atoms: C_5  and  N_6
REMARK    7  A    between atoms: C_7  and  O_9
REMARK                            x       y       z     vdW  Elec       q    Type
REMARK                         _______ _______ _______ _____ _____    ______ ____
ROOT
ATOM      1  C   UNL     1       5.244   6.349  16.560  0.00  0.00    +0.000 C 
ATOM      2  C   UNL     1       6.659   6.150  17.110  0.00  0.00    +0.000 C 
ENDROOT
BRANCH   2   3
ATOM      3  N   UNL     1       7.415   7.443  17.001  0.00  0.00    +0.000 NA
ATOM      4  H   UNL     1       8.409   7.244  17.142  0.00  0.00    +0.000 HD
ATOM      5  H   UNL     1       7.163   8.028  17.805  0.00  0.00    +0.000 HD
ENDBRANCH   2   3
BRANCH   2   6
ATOM      6  C   UNL     1       7.428   5.113  16.257  0.00  0.00    +0.000 C 
ATOM      7  O   UNL     1       7.538   5.136  15.039  0.00  0.00    +0.000 OA
BRANCH   6   8
ATOM      8  O   UNL     1       7.962   4.136  17.034  0.00  0.00    +0.000 OA
ATOM      9  H   UNL     1       8.591   4.584  17.652  0.00  0.00    +0.000 HD
ENDBRANCH   6   8
ENDBRANCH   2   6
BRANCH   2  10
ATOM     10  C   UNL     1       6.670   5.695  18.587  0.00  0.00    +0.000 C 
BRANCH  10  11
ATOM     11  C   UNL     1       5.368   5.026  19.050  0.00  0.00    +0.000 C 
BRANCH  11  12
ATOM     12  N   UNL     1       5.516   3.572  19.041  0.00  0.00    +0.000 NA
ATOM     13  H   UNL     1       5.548   3.236  18.080  0.00  0.00    +0.000 HD
ATOM     14  H   UNL     1       4.678   3.154  19.451  0.00  0.00    +0.000 HD
ENDBRANCH  11  12
ENDBRANCH  10  11
ENDBRANCH   2  10
TORSDOF 6
ENDMDL
MODEL 5
REMARK VINA RESULT:      -4.1      4.617      5.371
REMARK  Name = 
REMARK  7 active torsions:
REMARK  status: ('A' for Active; 'I' for Inactive)
REMARK    1  A    between atoms: C_1  and  C_2
REMARK    2  A    between atoms: C_2  and  N_3
REMARK    3  A    between atoms: C_2  and  C_4
REMARK    4  A    between atoms: C_2  and  C_7
REMARK    5  A    between atoms: C_4  and  C_5
REMARK    6  A    between atoms: C_5  and  N_6
REMARK    7  A    between atoms: C_7  and  O_9
REMARK                            x       y       z     vdW  Elec       q    Type
REMARK                         _______ _______ _______ _____ _____    ______ ____
ROOT
ATOM      1  C   UNL     1       2.579   2.749  17.498  0.00  0.00    +0.000 C 
ATOM      2  C   UNL     1       2.859   2.782  19.003  0.00  0.00    +0.000 C 
ENDROOT
BRANCH   2   3
ATOM      3  N   UNL     1       3.220   4.183  19.405  0.00  0.00    +0.000 NA
ATOM      4  H   UNL     1       4.221   4.314  19.243  0.00  0.00    +0.000 HD
ATOM      5  H   UNL     1       3.122   4.258  20.424  0.00  0.00    +0.000 HD
ENDBRANCH   2   3
BRANCH   2   6
ATOM      6  C   UNL     1       4.078   1.894  19.344  0.00  0.00    +0.000 C 
ATOM      7  O   UNL     1       4.861   2.086  20.265  0.00  0.00    +0.000 OA
BRANCH   6   8
ATOM      8  O   UNL     1       4.198   0.864  18.469  0.00  0.00    +0.000 OA
ATOM      9  H   UNL     1       5.085   0.460  18.634  0.00  0.00    +0.000 HD
ENDBRANCH   6   8
ENDBRANCH   2   6
BRANCH   2  10
ATOM     10  C   UNL     1       1.649   2.323  19.848  0.00  0.00    +0.000 C 
BRANCH  10  11
ATOM     11  C   UNL     1       1.392   3.179  21.097  0.00  0.00    +0.000 C 
BRANCH  11  12
ATOM     12  N   UNL     1       2.372   2.867  22.135  0.00  0.00    +0.000 NA
ATOM     13  H   UNL     1       1.912   2.388  22.908  0.00  0.00    +0.000 HD
ATOM     14  H   UNL     1       2.727   3.742  22.526  0.00  0.00    +0.000 HD
ENDBRANCH  11  12
ENDBRANCH  10  11
ENDBRANCH   2  10
TORSDOF 6
ENDMDL
MODEL 6
REMARK VINA RESULT:      -4.1      2.512      3.221
REMARK  Name = 
REMARK  7 active torsions:
REMARK  status: ('A' for Active; 'I' for Inactive)
REMARK    1  A    between atoms: C_1  and  C_2
REMARK    2  A    between atoms: C_2  and  N_3
REMARK    3  A    between atoms: C_2  and  C_4
REMARK    4  A    between atoms: C_2  and  C_7
REMARK    5  A    between atoms: C_4  and  C_5
REMARK    6  A    between atoms: C_5  and  N_6
REMARK    7  A    between atoms: C_7  and  O_9
REMARK                            x       y       z     vdW  Elec       q    Type
REMARK                         _______ _______ _______ _____ _____    ______ ____
ROOT
ATOM      1  C   UNL     1       6.263   4.304  14.250  0.00  0.00    +0.000 C 
ATOM      2  C   UNL     1       5.958   4.935  15.611  0.00  0.00    +0.000 C 
ENDROOT
BRANCH   2   3
ATOM      3  N   UNL     1       5.305   6.270  15.399  0.00  0.00    +0.000 NA
ATOM      4  H   UNL     1       4.983   6.617  16.306  0.00  0.00    +0.000 HD
ATOM      5  H   UNL     1       4.438   6.121  14.870  0.00  0.00    +0.000 HD
ENDBRANCH   2   3
BRANCH   2   6
ATOM      6  C   UNL     1       7.269   5.201  16.389  0.00  0.00    +0.000 C 
ATOM      7  O   UNL     1       7.973   4.345  16.907  0.00  0.00    +0.000 OA
BRANCH   6   8
ATOM      8  O   UNL     1       7.543   6.528  16.452  0.00  0.00    +0.000 OA
ATOM      9  H   UNL     1       7.595   6.847  15.518  0.00  0.00    +0.000 HD
ENDBRANCH   6   8
ENDBRANCH   2   6
BRANCH   2  10
ATOM     10  C   UNL     1       5.024   4.062  16.481  0.00  0.00    +0.000 C 
BRANCH  10  11
ATOM     11  C   UNL     1       4.859   4.562  17.923  0.00  0.00    +0.000 C 
BRANCH  11  12
ATOM     12  N   UNL     1       5.476   3.624  18.858  0.00  0.00    +0.000 NA
ATOM     13  H   UNL     1       5.073   3.749  19.786  0.00  0.00    +0.000 HD
ATOM     14  H   UNL     1       6.465   3.858  18.955  0.00  0.00    +0.000 HD
ENDBRANCH  11  12
ENDBRANCH  10  11
ENDBRANCH   2  10
TORSDOF 6
ENDMDL
MODEL 7
REMARK VINA RESULT:      -4.1      2.634      3.295
REMARK  Name = 
REMARK  7 active torsions:
REMARK  status: ('A' for Active; 'I' for Inactive)
REMARK    1  A    between atoms: C_1  and  C_2
REMARK    2  A    between atoms: C_2  and  N_3
REMARK    3  A    between atoms: C_2  and  C_4
REMARK    4  A    between atoms: C_2  and  C_7
REMARK    5  A    between atoms: C_4  and  C_5
REMARK    6  A    between atoms: C_5  and  N_6
REMARK    7  A    between atoms: C_7  and  O_9
REMARK                            x       y       z     vdW  Elec       q    Type
REMARK                         _______ _______ _______ _____ _____    ______ ____
ROOT
ATOM      1  C   UNL     1       5.909   6.255  16.415  0.00  0.00    +0.000 C 
ATOM      2  C   UNL     1       6.421   4.831  16.181  0.00  0.00    +0.000 C 
ENDROOT
BRANCH   2   3
ATOM      3  N   UNL     1       7.604   4.581  17.071  0.00  0.00    +0.000 NA
ATOM      4  H   UNL     1       7.517   3.638  17.461  0.00  0.00    +0.000 HD
ATOM      5  H   UNL     1       7.523   5.195  17.889  0.00  0.00    +0.000 HD
ENDBRANCH   2   3
BRANCH   2   6
ATOM      6  C   UNL     1       6.920   4.670  14.725  0.00  0.00    +0.000 C 
ATOM      7  O   UNL     1       7.681   5.433  14.147  0.00  0.00    +0.000 OA
BRANCH   6   8
ATOM      8  O   UNL     1       6.383   3.569  14.140  0.00  0.00    +0.000 OA
ATOM      9  H   UNL     1       5.569   3.873  13.669  0.00  0.00    +0.000 HD
ENDBRANCH   6   8
ENDBRANCH   2   6
BRANCH   2  10
ATOM     10  C   UNL     1       5.351   3.754  16.469  0.00  0.00    +0.000 C 
BRANCH  10  11
ATOM     11  C   UNL     1       4.612   3.941  17.801  0.00  0.00    +0.000 C 
BRANCH  11  12
ATOM     12  N   UNL     1       5.454   3.504  18.913  0.00  0.00    +0.000 NA
ATOM     13  H   UNL     1       5.332   2.504  19.064  0.00  0.00    +0.000 HD
ATOM     14  H   UNL     1       5.126   3.953  19.770  0.00  0.00    +0.000 HD
ENDBRANCH  11  12
ENDBRANCH  10  11
ENDBRANCH   2  10
TORSDOF 6
ENDMDL
MODEL 8
REMARK VINA RESULT:      -4.0      2.531      3.135
REMARK  Name = 
REMARK  7 active torsions:
REMARK  status: ('A' for Active; 'I' for Inactive)
REMARK    1  A    between atoms: C_1  and  C_2
REMARK    2  A    between atoms: C_2  and  N_3
REMARK    3  A    between atoms: C_2  and  C_4
REMARK    4  A    between atoms: C_2  and  C_7
REMARK    5  A    between atoms: C_4  and  C_5
REMARK    6  A    between atoms: C_5  and  N_6
REMARK    7  A    between atoms: C_7  and  O_9
REMARK                            x       y       z     vdW  Elec       q    Type
REMARK                         _______ _______ _______ _____ _____    ______ ____
ROOT
ATOM      1  C   UNL     1       6.144   6.336  16.633  0.00  0.00    +0.000 C 
ATOM      2  C   UNL     1       6.406   4.850  16.378  0.00  0.00    +0.000 C 
ENDROOT
BRANCH   2   3
ATOM      3  N   UNL     1       7.583   4.409  17.200  0.00  0.00    +0.000 NA
ATOM      4  H   UNL     1       8.403   4.367  16.589  0.00  0.00    +0.000 HD
ATOM      5  H   UNL     1       7.431   3.433  17.478  0.00  0.00    +0.000 HD
ENDBRANCH   2   3
BRANCH   2   6
ATOM      6  C   UNL     1       6.787   4.615  14.897  0.00  0.00    +0.000 C 
ATOM      7  O   UNL     1       6.297   3.768  14.163  0.00  0.00    +0.000 OA
BRANCH   6   8
ATOM      8  O   UNL     1       7.770   5.463  14.501  0.00  0.00    +0.000 OA
ATOM      9  H   UNL     1       8.547   4.898  14.264  0.00  0.00    +0.000 HD
ENDBRANCH   6   8
ENDBRANCH   2   6
BRANCH   2  10
ATOM     10  C   UNL     1       5.195   3.957  16.734  0.00  0.00    +0.000 C 
BRANCH  10  11
ATOM     11  C   UNL     1       4.655   4.166  18.156  0.00  0.00    +0.000 C 
BRANCH  11  12
ATOM     12  N   UNL     1       5.392   3.334  19.104  0.00  0.00    +0.000 NA
ATOM     13  H   UNL     1       4.753   2.683  19.559  0.00  0.00    +0.000 HD
ATOM     14  H   UNL     1       5.754   3.929  19.852  0.00  0.00    +0.000 HD
ENDBRANCH  11  12
ENDBRANCH  10  11
ENDBRANCH   2  10
TORSDOF 6
ENDMDL
MODEL 9
REMARK VINA RESULT:      -4.0      2.523      3.719
REMARK  Name = 
REMARK  7 active torsions:
REMARK  status: ('A' for Active; 'I' for Inactive)
REMARK    1  A    between atoms: C_1  and  C_2
REMARK    2  A    between atoms: C_2  and  N_3
REMARK    3  A    between atoms: C_2  and  C_4
REMARK    4  A    between atoms: C_2  and  C_7
REMARK    5  A    between atoms: C_4  and  C_5
REMARK    6  A    between atoms: C_5  and  N_6
REMARK    7  A    between atoms: C_7  and  O_9
REMARK                            x       y       z     vdW  Elec       q    Type
REMARK                         _______ _______ _______ _____ _____    ______ ____
ROOT
ATOM      1  C   UNL     1       5.079   6.034  17.917  0.00  0.00    +0.000 C 
ATOM      2  C   UNL     1       5.712   4.677  17.598  0.00  0.00    +0.000 C 
ENDROOT
BRANCH   2   3
ATOM      3  N   UNL     1       6.012   3.960  18.883  0.00  0.00    +0.000 NA
ATOM      4  H   UNL     1       6.636   4.549  19.440  0.00  0.00    +0.000 HD
ATOM      5  H   UNL     1       6.581   3.135  18.662  0.00  0.00    +0.000 HD
ENDBRANCH   2   3
BRANCH   2   6
ATOM      6  C   UNL     1       7.065   4.870  16.872  0.00  0.00    +0.000 C 
ATOM      7  O   UNL     1       8.077   4.211  17.068  0.00  0.00    +0.000 OA
BRANCH   6   8
ATOM      8  O   UNL     1       7.006   5.897  15.986  0.00  0.00    +0.000 OA
ATOM      9  H   UNL     1       7.157   5.502  15.092  0.00  0.00    +0.000 HD
ENDBRANCH   6   8
ENDBRANCH   2   6
BRANCH   2  10
ATOM     10  C   UNL     1       4.800   3.778  16.732  0.00  0.00    +0.000 C 
BRANCH  10  11
ATOM     11  C   UNL     1       3.617   3.163  17.494  0.00  0.00    +0.000 C 
BRANCH  11  12
ATOM     12  N   UNL     1       3.953   1.816  17.948  0.00  0.00    +0.000 NA
ATOM     13  H   UNL     1       3.097   1.288  18.119  0.00  0.00    +0.000 HD
ATOM     14  H   UNL     1       4.420   1.881  18.854  0.00  0.00    +0.000 HD
ENDBRANCH  11  12
ENDBRANCH  10  11
ENDBRANCH   2  10
TORSDOF 6
ENDMDL
