MODEL 1
REMARK VINA RESULT:      -8.4      0.000      0.000
REMARK  Name = 
REMARK  10 active torsions:
REMARK  status: ('A' for Active; 'I' for Inactive)
REMARK    1  A    between atoms: C_1  and  O_2
REMARK    2  A    between atoms: O_2  and  C_3
REMARK    3  A    between atoms: C_6  and  S_7
REMARK    4  A    between atoms: S_7  and  N_8
REMARK    5  A    between atoms: C_12  and  C_13
REMARK    6  A    between atoms: C_13  and  O_15
REMARK    7  A    between atoms: O_15  and  C_16
REMARK    8  A    between atoms: C_16  and  C_17
REMARK    9  A    between atoms: N_19  and  C_20
REMARK   10  A    between atoms: C_25  and  C_26
REMARK                            x       y       z     vdW  Elec       q    Type
REMARK                         _______ _______ _______ _____ _____    ______ ____
ROOT
ATOM      1  C   UNL     1       2.467   6.987  18.614  0.00  0.00    +0.000 C 
ATOM      2  O   UNL     1       2.372   7.126  19.827  0.00  0.00    +0.000 OA
ENDROOT
BRANCH   1   8
ATOM      3  C   UNL     1       2.750   4.605  17.635  0.00  0.00    +0.000 A 
ATOM      4  C   UNL     1       3.586   3.697  16.959  0.00  0.00    +0.000 A 
ATOM      5  C   UNL     1       4.922   3.995  16.707  0.00  0.00    +0.000 A 
ATOM      6  C   UNL     1       5.435   5.220  17.117  0.00  0.00    +0.000 A 
ATOM      7  C   UNL     1       4.618   6.155  17.758  0.00  0.00    +0.000 A 
ATOM      8  C   UNL     1       3.255   5.872  17.997  0.00  0.00    +0.000 A 
BRANCH   6   9
ATOM      9  S   UNL     1       7.150   5.561  16.839  0.00  0.00    +0.000 S 
ATOM     10  O   UNL     1       7.412   5.545  15.422  0.00  0.00    +0.000 OA
ATOM     11  O   UNL     1       7.556   6.650  17.693  0.00  0.00    +0.000 OA
BRANCH   9  12
ATOM     12  N   UNL     1       7.865   4.182  17.467  0.00  0.00    +0.000 NA
ATOM     13  H   UNL     1       7.532   4.024  18.421  0.00  0.00    +0.000 HD
ATOM     14  H   UNL     1       7.705   3.389  16.843  0.00  0.00    +0.000 HD
ENDBRANCH   9  12
ENDBRANCH   6   9
BRANCH   3  16
ATOM     15  C   UNL     1       1.261   3.205  18.831  0.00  0.00    +0.000 C 
ATOM     16  O   UNL     1       1.447   4.286  17.917  0.00  0.00    +0.000 OA
ENDBRANCH   3  16
ENDBRANCH   1   8
BRANCH   1  17
ATOM     17  O   UNL     1       1.930   7.850  17.722  0.00  0.00    +0.000 OA
BRANCH  17  18
ATOM     18  C   UNL     1       2.136   9.236  18.012  0.00  0.00    +0.000 C 
BRANCH  18  19
ATOM     19  C   UNL     1       0.929   9.929  18.653  0.00  0.00    +0.000 C 
ATOM     20  O   UNL     1       0.860  10.098  19.869  0.00  0.00    +0.000 OA
ATOM     21  N   UNL     1      -0.056  10.288  17.748  0.00  0.00    +0.000 N 
ATOM     22  H   UNL     1      -0.157   9.644  16.964  0.00  0.00    +0.000 HD
BRANCH  21  23
ATOM     23  C   UNL     1      -1.275  10.836  18.181  0.00  0.00    +0.000 A 
ATOM     24  N   UNL     1      -1.192  11.439  19.387  0.00  0.00    +0.000 NA
ATOM     25  C   UNL     1      -2.304  12.071  19.826  0.00  0.00    +0.000 A 
ATOM     26  C   UNL     1      -3.520  12.093  19.152  0.00  0.00    +0.000 A 
ATOM     27 CL   UNL     1      -4.823  12.966  19.871  0.00  0.00    +0.000 Cl
ATOM     28  C   UNL     1      -3.635  11.399  17.939  0.00  0.00    +0.000 A 
ATOM     29  C   UNL     1      -4.934  11.320  17.181  0.00  0.00    +0.000 C 
ATOM     30  C   UNL     1      -2.478  10.750  17.450  0.00  0.00    +0.000 A 
ATOM     31 CL   UNL     1      -2.599   9.726  16.048  0.00  0.00    +0.000 Cl
ENDBRANCH  21  23
ENDBRANCH  18  19
ENDBRANCH  17  18
ENDBRANCH   1  17
TORSDOF 8
ENDMDL
MODEL 2
REMARK VINA RESULT:      -8.3      2.214      2.430
REMARK  Name = 
REMARK  10 active torsions:
REMARK  status: ('A' for Active; 'I' for Inactive)
REMARK    1  A    between atoms: C_1  and  O_2
REMARK    2  A    between atoms: O_2  and  C_3
REMARK    3  A    between atoms: C_6  and  S_7
REMARK    4  A    between atoms: S_7  and  N_8
REMARK    5  A    between atoms: C_12  and  C_13
REMARK    6  A    between atoms: C_13  and  O_15
REMARK    7  A    between atoms: O_15  and  C_16
REMARK    8  A    between atoms: C_16  and  C_17
REMARK    9  A    between atoms: N_19  and  C_20
REMARK   10  A    between atoms: C_25  and  C_26
REMARK                            x       y       z     vdW  Elec       q    Type
REMARK                         _______ _______ _______ _____ _____    ______ ____
ROOT
ATOM      1  C   UNL     1       2.475   7.103  18.589  0.00  0.00    +0.000 C 
ATOM      2  O   UNL     1       2.397   7.288  19.797  0.00  0.00    +0.000 OA
ENDROOT
BRANCH   1   8
ATOM      3  C   UNL     1       2.767   4.683  17.711  0.00  0.00    +0.000 A 
ATOM      4  C   UNL     1       3.599   3.755  17.058  0.00  0.00    +0.000 A 
ATOM      5  C   UNL     1       4.925   4.056  16.764  0.00  0.00    +0.000 A 
ATOM      6  C   UNL     1       5.432   5.304  17.107  0.00  0.00    +0.000 A 
ATOM      7  C   UNL     1       4.618   6.257  17.724  0.00  0.00    +0.000 A 
ATOM      8  C   UNL     1       3.264   5.970  18.006  0.00  0.00    +0.000 A 
BRANCH   6   9
ATOM      9  S   UNL     1       7.137   5.652  16.776  0.00  0.00    +0.000 S 
ATOM     10  O   UNL     1       7.334   5.736  15.351  0.00  0.00    +0.000 OA
ATOM     11  O   UNL     1       7.592   6.673  17.687  0.00  0.00    +0.000 OA
BRANCH   9  12
ATOM     12  N   UNL     1       7.864   4.226  17.271  0.00  0.00    +0.000 NA
ATOM     13  H   UNL     1       7.989   4.235  18.286  0.00  0.00    +0.000 HD
ATOM     14  H   UNL     1       7.329   3.424  16.933  0.00  0.00    +0.000 HD
ENDBRANCH   9  12
ENDBRANCH   6   9
BRANCH   3  16
ATOM     15  C   UNL     1       1.321   3.326  19.007  0.00  0.00    +0.000 C 
ATOM     16  O   UNL     1       1.474   4.362  18.036  0.00  0.00    +0.000 OA
ENDBRANCH   3  16
ENDBRANCH   1   8
BRANCH   1  17
ATOM     17  O   UNL     1       1.919   7.925  17.672  0.00  0.00    +0.000 OA
BRANCH  17  18
ATOM     18  C   UNL     1       2.096   9.324  17.918  0.00  0.00    +0.000 C 
BRANCH  18  19
ATOM     19  C   UNL     1       0.863  10.018  18.505  0.00  0.00    +0.000 C 
ATOM     20  O   UNL     1      -0.264   9.806  18.060  0.00  0.00    +0.000 OA
ATOM     21  N   UNL     1       1.154  10.909  19.524  0.00  0.00    +0.000 N 
ATOM     22  H   UNL     1       2.044  11.395  19.413  0.00  0.00    +0.000 HD
BRANCH  21  23
ATOM     23  C   UNL     1       0.152  11.708  20.099  0.00  0.00    +0.000 A 
ATOM     24  N   UNL     1      -0.106  12.832  19.395  0.00  0.00    +0.000 NA
ATOM     25  C   UNL     1      -1.125  13.604  19.837  0.00  0.00    +0.000 A 
ATOM     26  C   UNL     1      -1.873  13.347  20.981  0.00  0.00    +0.000 A 
ATOM     27 CL   UNL     1      -3.143  14.447  21.374  0.00  0.00    +0.000 Cl
ATOM     28  C   UNL     1      -1.555  12.228  21.762  0.00  0.00    +0.000 A 
ATOM     29  C   UNL     1      -2.275  11.916  23.047  0.00  0.00    +0.000 C 
ATOM     30  C   UNL     1      -0.509  11.393  21.305  0.00  0.00    +0.000 A 
ATOM     31 CL   UNL     1       0.052  10.093  22.316  0.00  0.00    +0.000 Cl
ENDBRANCH  21  23
ENDBRANCH  18  19
ENDBRANCH  17  18
ENDBRANCH   1  17
TORSDOF 8
ENDMDL
MODEL 3
REMARK VINA RESULT:      -8.3      2.747      2.981
REMARK  Name = 
REMARK  10 active torsions:
REMARK  status: ('A' for Active; 'I' for Inactive)
REMARK    1  A    between atoms: C_1  and  O_2
REMARK    2  A    between atoms: O_2  and  C_3
REMARK    3  A    between atoms: C_6  and  S_7
REMARK    4  A    between atoms: S_7  and  N_8
REMARK    5  A    between atoms: C_12  and  C_13
REMARK    6  A    between atoms: C_13  and  O_15
REMARK    7  A    between atoms: O_15  and  C_16
REMARK    8  A    between atoms: C_16  and  C_17
REMARK    9  A    between atoms: N_19  and  C_20
REMARK   10  A    between atoms: C_25  and  C_26
REMARK                            x       y       z     vdW  Elec       q    Type
REMARK                         _______ _______ _______ _____ _____    ______ ____
ROOT
ATOM      1  C   UNL     1       2.669   6.755  19.055  0.00  0.00    +0.000 C 
ATOM      2  O   UNL     1       2.062   6.572  20.103  0.00  0.00    +0.000 OA
ENDROOT
BRANCH   1   8
ATOM      3  C   UNL     1       2.719   4.481  17.813  0.00  0.00    +0.000 A 
ATOM      4  C   UNL     1       3.468   3.571  17.045  0.00  0.00    +0.000 A 
ATOM      5  C   UNL     1       4.832   3.751  16.837  0.00  0.00    +0.000 A 
ATOM      6  C   UNL     1       5.463   4.861  17.387  0.00  0.00    +0.000 A 
ATOM      7  C   UNL     1       4.736   5.800  18.125  0.00  0.00    +0.000 A 
ATOM      8  C   UNL     1       3.347   5.639  18.321  0.00  0.00    +0.000 A 
BRANCH   6   9
ATOM      9  S   UNL     1       7.210   5.047  17.161  0.00  0.00    +0.000 S 
ATOM     10  O   UNL     1       7.898   4.411  18.256  0.00  0.00    +0.000 OA
ATOM     11  O   UNL     1       7.534   4.787  15.780  0.00  0.00    +0.000 OA
BRANCH   9  12
ATOM     12  N   UNL     1       7.394   6.698  17.382  0.00  0.00    +0.000 NA
ATOM     13  H   UNL     1       7.808   6.880  18.299  0.00  0.00    +0.000 HD
ATOM     14  H   UNL     1       7.926   7.098  16.607  0.00  0.00    +0.000 HD
ENDBRANCH   9  12
ENDBRANCH   6   9
BRANCH   3  16
ATOM     15  C   UNL     1       1.055   3.032  18.673  0.00  0.00    +0.000 C 
ATOM     16  O   UNL     1       1.384   4.273  18.049  0.00  0.00    +0.000 OA
ENDBRANCH   3  16
ENDBRANCH   1   8
BRANCH   1  17
ATOM     17  O   UNL     1       2.839   7.974  18.496  0.00  0.00    +0.000 OA
BRANCH  17  18
ATOM     18  C   UNL     1       1.716   8.473  17.764  0.00  0.00    +0.000 C 
BRANCH  18  19
ATOM     19  C   UNL     1       0.902   9.535  18.511  0.00  0.00    +0.000 C 
ATOM     20  O   UNL     1      -0.016  10.141  17.961  0.00  0.00    +0.000 OA
ATOM     21  N   UNL     1       1.329   9.757  19.809  0.00  0.00    +0.000 N 
ATOM     22  H   UNL     1       2.335   9.658  19.940  0.00  0.00    +0.000 HD
BRANCH  21  23
ATOM     23  C   UNL     1       0.761  10.772  20.597  0.00  0.00    +0.000 A 
ATOM     24  N   UNL     1       1.262  11.998  20.333  0.00  0.00    +0.000 NA
ATOM     25  C   UNL     1       0.697  13.038  20.986  0.00  0.00    +0.000 A 
ATOM     26  C   UNL     1      -0.312  12.921  21.937  0.00  0.00    +0.000 A 
ATOM     27 CL   UNL     1      -0.913  14.370  22.654  0.00  0.00    +0.000 Cl
ATOM     28  C   UNL     1      -0.777  11.643  22.277  0.00  0.00    +0.000 A 
ATOM     29  C   UNL     1      -1.821  11.427  23.341  0.00  0.00    +0.000 C 
ATOM     30  C   UNL     1      -0.216  10.543  21.588  0.00  0.00    +0.000 A 
ATOM     31 CL   UNL     1      -0.620   8.925  22.086  0.00  0.00    +0.000 Cl
ENDBRANCH  21  23
ENDBRANCH  18  19
ENDBRANCH  17  18
ENDBRANCH   1  17
TORSDOF 8
ENDMDL
MODEL 4
REMARK VINA RESULT:      -8.2      1.892      2.483
REMARK  Name = 
REMARK  10 active torsions:
REMARK  status: ('A' for Active; 'I' for Inactive)
REMARK    1  A    between atoms: C_1  and  O_2
REMARK    2  A    between atoms: O_2  and  C_3
REMARK    3  A    between atoms: C_6  and  S_7
REMARK    4  A    between atoms: S_7  and  N_8
REMARK    5  A    between atoms: C_12  and  C_13
REMARK    6  A    between atoms: C_13  and  O_15
REMARK    7  A    between atoms: O_15  and  C_16
REMARK    8  A    between atoms: C_16  and  C_17
REMARK    9  A    between atoms: N_19  and  C_20
REMARK   10  A    between atoms: C_25  and  C_26
REMARK                            x       y       z     vdW  Elec       q    Type
REMARK                         _______ _______ _______ _____ _____    ______ ____
ROOT
ATOM      1  C   UNL     1       2.711   6.904  18.926  0.00  0.00    +0.000 C 
ATOM      2  O   UNL     1       2.059   6.752  19.952  0.00  0.00    +0.000 OA
ENDROOT
BRANCH   1   8
ATOM      3  C   UNL     1       2.812   4.614  17.719  0.00  0.00    +0.000 A 
ATOM      4  C   UNL     1       3.599   3.681  17.018  0.00  0.00    +0.000 A 
ATOM      5  C   UNL     1       4.977   3.838  16.908  0.00  0.00    +0.000 A 
ATOM      6  C   UNL     1       5.585   4.944  17.488  0.00  0.00    +0.000 A 
ATOM      7  C   UNL     1       4.824   5.904  18.160  0.00  0.00    +0.000 A 
ATOM      8  C   UNL     1       3.421   5.768  18.257  0.00  0.00    +0.000 A 
BRANCH   6   9
ATOM      9  S   UNL     1       7.347   5.100  17.387  0.00  0.00    +0.000 S 
ATOM     10  O   UNL     1       7.909   4.984  18.709  0.00  0.00    +0.000 OA
ATOM     11  O   UNL     1       7.823   4.324  16.268  0.00  0.00    +0.000 OA
BRANCH   9  12
ATOM     12  N   UNL     1       7.509   6.707  16.944  0.00  0.00    +0.000 NA
ATOM     13  H   UNL     1       6.735   7.253  17.330  0.00  0.00    +0.000 HD
ATOM     14  H   UNL     1       8.429   7.056  17.217  0.00  0.00    +0.000 HD
ENDBRANCH   9  12
ENDBRANCH   6   9
BRANCH   3  16
ATOM     15  C   UNL     1       1.071   3.311  18.658  0.00  0.00    +0.000 C 
ATOM     16  O   UNL     1       1.461   4.430  17.860  0.00  0.00    +0.000 OA
ENDBRANCH   3  16
ENDBRANCH   1   8
BRANCH   1  17
ATOM     17  O   UNL     1       2.904   8.106  18.339  0.00  0.00    +0.000 OA
BRANCH  17  18
ATOM     18  C   UNL     1       1.770   8.637  17.646  0.00  0.00    +0.000 C 
BRANCH  18  19
ATOM     19  C   UNL     1       1.164   9.884  18.299  0.00  0.00    +0.000 C 
ATOM     20  O   UNL     1       1.803  10.930  18.395  0.00  0.00    +0.000 OA
ATOM     21  N   UNL     1      -0.118   9.693  18.787  0.00  0.00    +0.000 N 
ATOM     22  H   UNL     1      -0.291   8.756  19.151  0.00  0.00    +0.000 HD
BRANCH  21  23
ATOM     23  C   UNL     1      -0.777  10.701  19.509  0.00  0.00    +0.000 A 
ATOM     24  N   UNL     1      -1.544  11.500  18.735  0.00  0.00    +0.000 NA
ATOM     25  C   UNL     1      -2.283  12.436  19.373  0.00  0.00    +0.000 A 
ATOM     26  C   UNL     1      -2.262  12.659  20.746  0.00  0.00    +0.000 A 
ATOM     27 CL   UNL     1      -3.288  13.895  21.375  0.00  0.00    +0.000 Cl
ATOM     28  C   UNL     1      -1.406  11.889  21.545  0.00  0.00    +0.000 A 
ATOM     29  C   UNL     1      -1.278  12.111  23.029  0.00  0.00    +0.000 C 
ATOM     30  C   UNL     1      -0.641  10.888  20.901  0.00  0.00    +0.000 A 
ATOM     31 CL   UNL     1       0.568  10.021  21.803  0.00  0.00    +0.000 Cl
ENDBRANCH  21  23
ENDBRANCH  18  19
ENDBRANCH  17  18
ENDBRANCH   1  17
TORSDOF 8
ENDMDL
MODEL 5
REMARK VINA RESULT:      -8.1      1.085      1.231
REMARK  Name = 
REMARK  10 active torsions:
REMARK  status: ('A' for Active; 'I' for Inactive)
REMARK    1  A    between atoms: C_1  and  O_2
REMARK    2  A    between atoms: O_2  and  C_3
REMARK    3  A    between atoms: C_6  and  S_7
REMARK    4  A    between atoms: S_7  and  N_8
REMARK    5  A    between atoms: C_12  and  C_13
REMARK    6  A    between atoms: C_13  and  O_15
REMARK    7  A    between atoms: O_15  and  C_16
REMARK    8  A    between atoms: C_16  and  C_17
REMARK    9  A    between atoms: N_19  and  C_20
REMARK   10  A    between atoms: C_25  and  C_26
REMARK                            x       y       z     vdW  Elec       q    Type
REMARK                         _______ _______ _______ _____ _____    ______ ____
ROOT
ATOM      1  C   UNL     1       2.836   6.681  18.977  0.00  0.00    +0.000 C 
ATOM      2  O   UNL     1       2.242   6.452  20.023  0.00  0.00    +0.000 OA
ENDROOT
BRANCH   1   8
ATOM      3  C   UNL     1       2.854   4.387  17.771  0.00  0.00    +0.000 A 
ATOM      4  C   UNL     1       3.541   3.508  16.914  0.00  0.00    +0.000 A 
ATOM      5  C   UNL     1       4.846   3.769  16.508  0.00  0.00    +0.000 A 
ATOM      6  C   UNL     1       5.477   4.928  16.945  0.00  0.00    +0.000 A 
ATOM      7  C   UNL     1       4.805   5.835  17.768  0.00  0.00    +0.000 A 
ATOM      8  C   UNL     1       3.472   5.593  18.167  0.00  0.00    +0.000 A 
BRANCH   6   9
ATOM      9  S   UNL     1       7.157   5.217  16.465  0.00  0.00    +0.000 S 
ATOM     10  O   UNL     1       7.373   4.671  15.149  0.00  0.00    +0.000 OA
ATOM     11  O   UNL     1       7.519   6.568  16.817  0.00  0.00    +0.000 OA
BRANCH   9  12
ATOM     12  N   UNL     1       7.979   4.220  17.532  0.00  0.00    +0.000 NA
ATOM     13  H   UNL     1       7.623   3.264  17.456  0.00  0.00    +0.000 HD
ATOM     14  H   UNL     1       8.985   4.294  17.377  0.00  0.00    +0.000 HD
ENDBRANCH   9  12
ENDBRANCH   6   9
BRANCH   3  16
ATOM     15  C   UNL     1       1.315   2.723  18.457  0.00  0.00    +0.000 C 
ATOM     16  O   UNL     1       1.584   4.102  18.201  0.00  0.00    +0.000 OA
ENDBRANCH   3  16
ENDBRANCH   1   8
BRANCH   1  17
ATOM     17  O   UNL     1       3.029   7.925  18.487  0.00  0.00    +0.000 OA
BRANCH  17  18
ATOM     18  C   UNL     1       1.894   8.513  17.844  0.00  0.00    +0.000 C 
BRANCH  18  19
ATOM     19  C   UNL     1       1.068   9.435  18.747  0.00  0.00    +0.000 C 
ATOM     20  O   UNL     1       0.965   9.223  19.954  0.00  0.00    +0.000 OA
ATOM     21  N   UNL     1       0.442  10.467  18.070  0.00  0.00    +0.000 N 
ATOM     22  H   UNL     1       0.139  10.225  17.127  0.00  0.00    +0.000 HD
BRANCH  21  23
ATOM     23  C   UNL     1      -0.439  11.340  18.730  0.00  0.00    +0.000 A 
ATOM     24  N   UNL     1       0.192  12.278  19.470  0.00  0.00    +0.000 NA
ATOM     25  C   UNL     1      -0.589  13.212  20.060  0.00  0.00    +0.000 A 
ATOM     26  C   UNL     1      -1.978  13.234  19.999  0.00  0.00    +0.000 A 
ATOM     27 CL   UNL     1      -2.798  14.517  20.810  0.00  0.00    +0.000 Cl
ATOM     28  C   UNL     1      -2.643  12.215  19.302  0.00  0.00    +0.000 A 
ATOM     29  C   UNL     1      -4.145  12.133  19.243  0.00  0.00    +0.000 C 
ATOM     30  C   UNL     1      -1.844  11.242  18.658  0.00  0.00    +0.000 A 
ATOM     31 CL   UNL     1      -2.605   9.857  17.930  0.00  0.00    +0.000 Cl
ENDBRANCH  21  23
ENDBRANCH  18  19
ENDBRANCH  17  18
ENDBRANCH   1  17
TORSDOF 8
ENDMDL
MODEL 6
REMARK VINA RESULT:      -8.1      1.720      2.133
REMARK  Name = 
REMARK  10 active torsions:
REMARK  status: ('A' for Active; 'I' for Inactive)
REMARK    1  A    between atoms: C_1  and  O_2
REMARK    2  A    between atoms: O_2  and  C_3
REMARK    3  A    between atoms: C_6  and  S_7
REMARK    4  A    between atoms: S_7  and  N_8
REMARK    5  A    between atoms: C_12  and  C_13
REMARK    6  A    between atoms: C_13  and  O_15
REMARK    7  A    between atoms: O_15  and  C_16
REMARK    8  A    between atoms: C_16  and  C_17
REMARK    9  A    between atoms: N_19  and  C_20
REMARK   10  A    between atoms: C_25  and  C_26
REMARK                            x       y       z     vdW  Elec       q    Type
REMARK                         _______ _______ _______ _____ _____    ______ ____
ROOT
ATOM      1  C   UNL     1       2.560   7.237  18.825  0.00  0.00    +0.000 C 
ATOM      2  O   UNL     1       1.888   7.103  19.840  0.00  0.00    +0.000 OA
ENDROOT
BRANCH   1   8
ATOM      3  C   UNL     1       2.850   4.873  17.803  0.00  0.00    +0.000 A 
ATOM      4  C   UNL     1       3.711   3.955  17.175  0.00  0.00    +0.000 A 
ATOM      5  C   UNL     1       5.073   4.213  17.048  0.00  0.00    +0.000 A 
ATOM      6  C   UNL     1       5.588   5.408  17.537  0.00  0.00    +0.000 A 
ATOM      7  C   UNL     1       4.749   6.353  18.133  0.00  0.00    +0.000 A 
ATOM      8  C   UNL     1       3.362   6.112  18.246  0.00  0.00    +0.000 A 
BRANCH   6   9
ATOM      9  S   UNL     1       7.332   5.696  17.417  0.00  0.00    +0.000 S 
ATOM     10  O   UNL     1       7.596   6.521  16.265  0.00  0.00    +0.000 OA
ATOM     11  O   UNL     1       7.847   6.001  18.729  0.00  0.00    +0.000 OA
BRANCH   9  12
ATOM     12  N   UNL     1       7.892   4.163  17.039  0.00  0.00    +0.000 NA
ATOM     13  H   UNL     1       7.212   3.462  17.341  0.00  0.00    +0.000 HD
ATOM     14  H   UNL     1       8.121   4.109  16.045  0.00  0.00    +0.000 HD
ENDBRANCH   9  12
ENDBRANCH   6   9
BRANCH   3  16
ATOM     15  C   UNL     1       1.217   3.286  18.456  0.00  0.00    +0.000 C 
ATOM     16  O   UNL     1       1.517   4.592  17.963  0.00  0.00    +0.000 OA
ENDBRANCH   3  16
ENDBRANCH   1   8
BRANCH   1  17
ATOM     17  O   UNL     1       2.694   8.411  18.170  0.00  0.00    +0.000 OA
BRANCH  17  18
ATOM     18  C   UNL     1       1.472   9.000  17.713  0.00  0.00    +0.000 C 
BRANCH  18  19
ATOM     19  C   UNL     1       0.963  10.149  18.589  0.00  0.00    +0.000 C 
ATOM     20  O   UNL     1       1.521  11.245  18.593  0.00  0.00    +0.000 OA
ATOM     21  N   UNL     1      -0.125   9.814  19.377  0.00  0.00    +0.000 N 
ATOM     22  H   UNL     1      -0.122   8.848  19.704  0.00  0.00    +0.000 HD
BRANCH  21  23
ATOM     23  C   UNL     1      -0.648  10.718  20.316  0.00  0.00    +0.000 A 
ATOM     24  N   UNL     1      -0.206  10.500  21.573  0.00  0.00    +0.000 NA
ATOM     25  C   UNL     1      -0.593  11.389  22.516  0.00  0.00    +0.000 A 
ATOM     26  C   UNL     1      -1.447  12.463  22.287  0.00  0.00    +0.000 A 
ATOM     27 CL   UNL     1      -1.816  13.495  23.619  0.00  0.00    +0.000 Cl
ATOM     28  C   UNL     1      -1.976  12.646  21.002  0.00  0.00    +0.000 A 
ATOM     29  C   UNL     1      -2.957  13.745  20.687  0.00  0.00    +0.000 C 
ATOM     30  C   UNL     1      -1.565  11.741  19.995  0.00  0.00    +0.000 A 
ATOM     31 CL   UNL     1      -2.320  11.804  18.429  0.00  0.00    +0.000 Cl
ENDBRANCH  21  23
ENDBRANCH  18  19
ENDBRANCH  17  18
ENDBRANCH   1  17
TORSDOF 8
ENDMDL
MODEL 7
REMARK VINA RESULT:      -8.1      2.077      2.440
REMARK  Name = 
REMARK  10 active torsions:
REMARK  status: ('A' for Active; 'I' for Inactive)
REMARK    1  A    between atoms: C_1  and  O_2
REMARK    2  A    between atoms: O_2  and  C_3
REMARK    3  A    between atoms: C_6  and  S_7
REMARK    4  A    between atoms: S_7  and  N_8
REMARK    5  A    between atoms: C_12  and  C_13
REMARK    6  A    between atoms: C_13  and  O_15
REMARK    7  A    between atoms: O_15  and  C_16
REMARK    8  A    between atoms: C_16  and  C_17
REMARK    9  A    between atoms: N_19  and  C_20
REMARK   10  A    between atoms: C_25  and  C_26
REMARK                            x       y       z     vdW  Elec       q    Type
REMARK                         _______ _______ _______ _____ _____    ______ ____
ROOT
ATOM      1  C   UNL     1       2.210   5.817  19.825  0.00  0.00    +0.000 C 
ATOM      2  O   UNL     1       1.812   5.317  20.870  0.00  0.00    +0.000 OA
ENDROOT
BRANCH   1   8
ATOM      3  C   UNL     1       2.871   4.150  17.954  0.00  0.00    +0.000 A 
ATOM      4  C   UNL     1       3.886   3.666  17.108  0.00  0.00    +0.000 A 
ATOM      5  C   UNL     1       5.209   4.068  17.263  0.00  0.00    +0.000 A 
ATOM      6  C   UNL     1       5.531   4.979  18.262  0.00  0.00    +0.000 A 
ATOM      7  C   UNL     1       4.538   5.503  19.093  0.00  0.00    +0.000 A 
ATOM      8  C   UNL     1       3.189   5.120  18.929  0.00  0.00    +0.000 A 
BRANCH   6   9
ATOM      9  S   UNL     1       7.228   5.438  18.482  0.00  0.00    +0.000 S 
ATOM     10  O   UNL     1       7.520   6.579  17.650  0.00  0.00    +0.000 OA
ATOM     11  O   UNL     1       7.546   5.397  19.888  0.00  0.00    +0.000 OA
BRANCH   9  12
ATOM     12  N   UNL     1       8.013   4.132  17.785  0.00  0.00    +0.000 NA
ATOM     13  H   UNL     1       7.326   3.452  17.454  0.00  0.00    +0.000 HD
ATOM     14  H   UNL     1       8.652   4.455  17.057  0.00  0.00    +0.000 HD
ENDBRANCH   9  12
ENDBRANCH   6   9
BRANCH   3  16
ATOM     15  C   UNL     1       1.243   2.544  18.566  0.00  0.00    +0.000 C 
ATOM     16  O   UNL     1       1.578   3.716  17.823  0.00  0.00    +0.000 OA
ENDBRANCH   3  16
ENDBRANCH   1   8
BRANCH   1  17
ATOM     17  O   UNL     1       1.861   7.055  19.412  0.00  0.00    +0.000 OA
BRANCH  17  18
ATOM     18  C   UNL     1       2.143   8.110  20.337  0.00  0.00    +0.000 C 
BRANCH  18  19
ATOM     19  C   UNL     1       0.896   8.773  20.931  0.00  0.00    +0.000 C 
ATOM     20  O   UNL     1      -0.038   8.102  21.369  0.00  0.00    +0.000 OA
ATOM     21  N   UNL     1       0.920  10.156  20.882  0.00  0.00    +0.000 N 
ATOM     22  H   UNL     1       1.394  10.537  20.064  0.00  0.00    +0.000 HD
BRANCH  21  23
ATOM     23  C   UNL     1      -0.190  10.917  21.287  0.00  0.00    +0.000 A 
ATOM     24  N   UNL     1      -0.211  11.169  22.614  0.00  0.00    +0.000 NA
ATOM     25  C   UNL     1      -1.199  11.975  23.064  0.00  0.00    +0.000 A 
ATOM     26  C   UNL     1      -2.209  12.506  22.268  0.00  0.00    +0.000 A 
ATOM     27 CL   UNL     1      -3.377  13.525  23.026  0.00  0.00    +0.000 Cl
ATOM     28  C   UNL     1      -2.241  12.180  20.906  0.00  0.00    +0.000 A 
ATOM     29  C   UNL     1      -3.337  12.662  19.991  0.00  0.00    +0.000 C 
ATOM     30  C   UNL     1      -1.203  11.357  20.410  0.00  0.00    +0.000 A 
ATOM     31 CL   UNL     1      -1.282  10.772  18.774  0.00  0.00    +0.000 Cl
ENDBRANCH  21  23
ENDBRANCH  18  19
ENDBRANCH  17  18
ENDBRANCH   1  17
TORSDOF 8
ENDMDL
MODEL 8
REMARK VINA RESULT:      -8.1      1.564      2.226
REMARK  Name = 
REMARK  10 active torsions:
REMARK  status: ('A' for Active; 'I' for Inactive)
REMARK    1  A    between atoms: C_1  and  O_2
REMARK    2  A    between atoms: O_2  and  C_3
REMARK    3  A    between atoms: C_6  and  S_7
REMARK    4  A    between atoms: S_7  and  N_8
REMARK    5  A    between atoms: C_12  and  C_13
REMARK    6  A    between atoms: C_13  and  O_15
REMARK    7  A    between atoms: O_15  and  C_16
REMARK    8  A    between atoms: C_16  and  C_17
REMARK    9  A    between atoms: N_19  and  C_20
REMARK   10  A    between atoms: C_25  and  C_26
REMARK                            x       y       z     vdW  Elec       q    Type
REMARK                         _______ _______ _______ _____ _____    ______ ____
ROOT
ATOM      1  C   UNL     1       2.568   7.242  18.529  0.00  0.00    +0.000 C 
ATOM      2  O   UNL     1       2.465   8.268  17.869  0.00  0.00    +0.000 OA
ENDROOT
BRANCH   1   8
ATOM      3  C   UNL     1       2.734   4.758  17.811  0.00  0.00    +0.000 A 
ATOM      4  C   UNL     1       3.517   3.749  17.219  0.00  0.00    +0.000 A 
ATOM      5  C   UNL     1       4.855   3.964  16.904  0.00  0.00    +0.000 A 
ATOM      6  C   UNL     1       5.424   5.205  17.164  0.00  0.00    +0.000 A 
ATOM      7  C   UNL     1       4.661   6.236  17.718  0.00  0.00    +0.000 A 
ATOM      8  C   UNL     1       3.296   6.036  18.020  0.00  0.00    +0.000 A 
BRANCH   6   9
ATOM      9  S   UNL     1       7.143   5.445  16.808  0.00  0.00    +0.000 S 
ATOM     10  O   UNL     1       7.915   4.458  17.520  0.00  0.00    +0.000 OA
ATOM     11  O   UNL     1       7.300   5.687  15.395  0.00  0.00    +0.000 OA
BRANCH   9  12
ATOM     12  N   UNL     1       7.433   6.910  17.568  0.00  0.00    +0.000 NA
ATOM     13  H   UNL     1       8.291   7.327  17.200  0.00  0.00    +0.000 HD
ATOM     14  H   UNL     1       6.615   7.516  17.485  0.00  0.00    +0.000 HD
ENDBRANCH   9  12
ENDBRANCH   6   9
BRANCH   3  16
ATOM     15  C   UNL     1       1.233   3.610  19.238  0.00  0.00    +0.000 C 
ATOM     16  O   UNL     1       1.429   4.524  18.158  0.00  0.00    +0.000 OA
ENDBRANCH   3  16
ENDBRANCH   1   8
BRANCH   1  17
ATOM     17  O   UNL     1       1.990   7.074  19.739  0.00  0.00    +0.000 OA
BRANCH  17  18
ATOM     18  C   UNL     1       1.913   8.251  20.549  0.00  0.00    +0.000 C 
BRANCH  18  19
ATOM     19  C   UNL     1       0.551   8.951  20.512  0.00  0.00    +0.000 C 
ATOM     20  O   UNL     1      -0.349   8.641  21.292  0.00  0.00    +0.000 OA
ATOM     21  N   UNL     1       0.437   9.903  19.513  0.00  0.00    +0.000 N 
ATOM     22  H   UNL     1       0.950   9.677  18.662  0.00  0.00    +0.000 HD
BRANCH  21  23
ATOM     23  C   UNL     1      -0.780  10.561  19.273  0.00  0.00    +0.000 A 
ATOM     24  N   UNL     1      -1.449  10.076  18.204  0.00  0.00    +0.000 NA
ATOM     25  C   UNL     1      -2.674  10.598  17.966  0.00  0.00    +0.000 A 
ATOM     26  C   UNL     1      -3.254  11.622  18.707  0.00  0.00    +0.000 A 
ATOM     27 CL   UNL     1      -4.834  12.146  18.254  0.00  0.00    +0.000 Cl
ATOM     28  C   UNL     1      -2.530  12.187  19.766  0.00  0.00    +0.000 A 
ATOM     29  C   UNL     1      -3.061  13.342  20.574  0.00  0.00    +0.000 C 
ATOM     30  C   UNL     1      -1.256  11.640  20.046  0.00  0.00    +0.000 A 
ATOM     31 CL   UNL     1      -0.236  12.410  21.227  0.00  0.00    +0.000 Cl
ENDBRANCH  21  23
ENDBRANCH  18  19
ENDBRANCH  17  18
ENDBRANCH   1  17
TORSDOF 8
ENDMDL
MODEL 9
REMARK VINA RESULT:      -8.0      1.675      1.980
REMARK  Name = 
REMARK  10 active torsions:
REMARK  status: ('A' for Active; 'I' for Inactive)
REMARK    1  A    between atoms: C_1  and  O_2
REMARK    2  A    between atoms: O_2  and  C_3
REMARK    3  A    between atoms: C_6  and  S_7
REMARK    4  A    between atoms: S_7  and  N_8
REMARK    5  A    between atoms: C_12  and  C_13
REMARK    6  A    between atoms: C_13  and  O_15
REMARK    7  A    between atoms: O_15  and  C_16
REMARK    8  A    between atoms: C_16  and  C_17
REMARK    9  A    between atoms: N_19  and  C_20
REMARK   10  A    between atoms: C_25  and  C_26
REMARK                            x       y       z     vdW  Elec       q    Type
REMARK                         _______ _______ _______ _____ _____    ______ ____
ROOT
ATOM      1  C   UNL     1       2.467   6.819  18.750  0.00  0.00    +0.000 C 
ATOM      2  O   UNL     1       2.412   7.018  19.957  0.00  0.00    +0.000 OA
ENDROOT
BRANCH   1   8
ATOM      3  C   UNL     1       2.780   4.314  18.165  0.00  0.00    +0.000 A 
ATOM      4  C   UNL     1       3.536   3.347  17.477  0.00  0.00    +0.000 A 
ATOM      5  C   UNL     1       4.739   3.676  16.860  0.00  0.00    +0.000 A 
ATOM      6  C   UNL     1       5.195   4.988  16.912  0.00  0.00    +0.000 A 
ATOM      7  C   UNL     1       4.447   5.975  17.558  0.00  0.00    +0.000 A 
ATOM      8  C   UNL     1       3.213   5.658  18.166  0.00  0.00    +0.000 A 
BRANCH   6   9
ATOM      9  S   UNL     1       6.755   5.378  16.170  0.00  0.00    +0.000 S 
ATOM     10  O   UNL     1       7.773   4.531  16.738  0.00  0.00    +0.000 OA
ATOM     11  O   UNL     1       6.573   5.530  14.747  0.00  0.00    +0.000 OA
BRANCH   9  12
ATOM     12  N   UNL     1       7.029   6.916  16.774  0.00  0.00    +0.000 NA
ATOM     13  H   UNL     1       6.237   7.523  16.550  0.00  0.00    +0.000 HD
ATOM     14  H   UNL     1       7.237   6.869  17.773  0.00  0.00    +0.000 HD
ENDBRANCH   9  12
ENDBRANCH   6   9
BRANCH   3  16
ATOM     15  C   UNL     1       1.120   2.665  18.528  0.00  0.00    +0.000 C 
ATOM     16  O   UNL     1       1.618   3.974  18.807  0.00  0.00    +0.000 OA
ENDBRANCH   3  16
ENDBRANCH   1   8
BRANCH   1  17
ATOM     17  O   UNL     1       1.923   7.650  17.833  0.00  0.00    +0.000 OA
BRANCH  17  18
ATOM     18  C   UNL     1       2.522   8.947  17.751  0.00  0.00    +0.000 C 
BRANCH  18  19
ATOM     19  C   UNL     1       1.677  10.068  18.367  0.00  0.00    +0.000 C 
ATOM     20  O   UNL     1       1.907  11.250  18.120  0.00  0.00    +0.000 OA
ATOM     21  N   UNL     1       0.694   9.617  19.231  0.00  0.00    +0.000 N 
ATOM     22  H   UNL     1       0.953   8.785  19.760  0.00  0.00    +0.000 HD
BRANCH  21  23
ATOM     23  C   UNL     1      -0.098  10.518  19.962  0.00  0.00    +0.000 A 
ATOM     24  N   UNL     1       0.416  10.823  21.173  0.00  0.00    +0.000 NA
ATOM     25  C   UNL     1      -0.244  11.757  21.896  0.00  0.00    +0.000 A 
ATOM     26  C   UNL     1      -1.427  12.371  21.501  0.00  0.00    +0.000 A 
ATOM     27 CL   UNL     1      -2.113  13.549  22.558  0.00  0.00    +0.000 Cl
ATOM     28  C   UNL     1      -2.011  11.997  20.282  0.00  0.00    +0.000 A 
ATOM     29  C   UNL     1      -3.324  12.568  19.814  0.00  0.00    +0.000 C 
ATOM     30  C   UNL     1      -1.325  11.040  19.500  0.00  0.00    +0.000 A 
ATOM     31 CL   UNL     1      -2.082  10.403  18.068  0.00  0.00    +0.000 Cl
ENDBRANCH  21  23
ENDBRANCH  18  19
ENDBRANCH  17  18
ENDBRANCH   1  17
TORSDOF 8
ENDMDL
