MODEL 1
REMARK VINA RESULT:      -8.3      0.000      0.000
REMARK  Name = 
REMARK  10 active torsions:
REMARK  status: ('A' for Active; 'I' for Inactive)
REMARK    1  A    between atoms: C_1  and  O_2
REMARK    2  A    between atoms: O_2  and  C_3
REMARK    3  A    between atoms: C_8  and  C_9
REMARK    4  A    between atoms: C_17  and  O_18
REMARK    5  A    between atoms: O_18  and  C_19
REMARK    6  A    between atoms: C_23  and  C_24
REMARK    7  A    between atoms: C_24  and  C_25
REMARK    8  A    between atoms: C_24  and  C_29
REMARK    9  A    between atoms: C_25  and  C_26
REMARK   10  A    between atoms: C_26  and  O_28
REMARK                            x       y       z     vdW  Elec       q    Type
REMARK                         _______ _______ _______ _____ _____    ______ ____
ROOT
ATOM      1  C   UNL     1       2.891   7.280  18.383  0.00  0.00    +0.000 A 
ATOM      2  C   UNL     1       2.460   8.411  17.644  0.00  0.00    +0.000 A 
ATOM      3  C   UNL     1       1.597   9.379  18.182  0.00  0.00    +0.000 A 
ATOM      4  C   UNL     1       1.160   9.223  19.483  0.00  0.00    +0.000 A 
ATOM      5  C   UNL     1       1.588   8.129  20.237  0.00  0.00    +0.000 A 
ATOM      6  C   UNL     1       2.437   7.166  19.710  0.00  0.00    +0.000 A 
ATOM      7  C   UNL     1       1.020   8.175  21.614  0.00  0.00    +0.000 C 
ATOM      8  C   UNL     1      -0.189   9.084  21.388  0.00  0.00    +0.000 C 
ATOM      9  C   UNL     1       0.183  10.077  20.258  0.00  0.00    +0.000 C 
ENDROOT
BRANCH   1  15
ATOM     10  C   UNL     1       6.010   5.589  16.968  0.00  0.00    +0.000 A 
ATOM     11  C   UNL     1       5.531   4.322  16.647  0.00  0.00    +0.000 A 
ATOM     12  C   UNL     1       4.197   4.010  16.895  0.00  0.00    +0.000 A 
ATOM     13  C   UNL     1       3.347   4.961  17.462  0.00  0.00    +0.000 A 
ATOM     14  F   UNL     1       2.082   4.582  17.704  0.00  0.00    +0.000 F 
ATOM     15  C   UNL     1       3.787   6.253  17.793  0.00  0.00    +0.000 A 
ATOM     16  C   UNL     1       5.146   6.533  17.540  0.00  0.00    +0.000 A 
BRANCH  10  18
ATOM     17  C   UNL     1       7.641   7.225  17.466  0.00  0.00    +0.000 C 
ATOM     18  O   UNL     1       7.304   6.006  16.813  0.00  0.00    +0.000 OA
ENDBRANCH  10  18
ENDBRANCH   1  15
BRANCH   9  19
ATOM     19  O   UNL     1       0.826  11.271  20.724  0.00  0.00    +0.000 OA
BRANCH  19  20
ATOM     20  C   UNL     1       0.040  12.400  20.759  0.00  0.00    +0.000 A 
ATOM     21  C   UNL     1       0.042  13.383  19.771  0.00  0.00    +0.000 A 
ATOM     22  C   UNL     1      -0.790  14.489  19.874  0.00  0.00    +0.000 A 
ATOM     23  C   UNL     1      -1.629  14.641  20.974  0.00  0.00    +0.000 A 
ATOM     24  C   UNL     1      -1.689  13.667  21.981  0.00  0.00    +0.000 A 
ATOM     25  C   UNL     1      -0.848  12.531  21.843  0.00  0.00    +0.000 A 
BRANCH  24  26
ATOM     26  C   UNL     1      -2.647  13.793  23.169  0.00  0.00    +0.000 C 
BRANCH  26  27
ATOM     27  C   UNL     1      -2.095  14.612  24.334  0.00  0.00    +0.000 C 
ATOM     28  C   UNL     1      -1.652  16.051  24.185  0.00  0.00    +0.000 C 
ATOM     29  C   UNL     1      -2.919  15.736  24.924  0.00  0.00    +0.000 C 
ENDBRANCH  26  27
BRANCH  26  30
ATOM     30  C   UNL     1      -3.159  12.434  23.682  0.00  0.00    +0.000 C 
BRANCH  30  31
ATOM     31  C   UNL     1      -4.561  12.486  24.254  0.00  0.00    +0.000 C 
ATOM     32  O   UNL     1      -5.571  12.542  23.575  0.00  0.00    +0.000 OA
BRANCH  31  33
ATOM     33  O   UNL     1      -4.603  12.442  25.604  0.00  0.00    +0.000 OA
ATOM     34  H   UNL     1      -4.213  13.220  26.043  0.00  0.00    +0.000 HD
ENDBRANCH  31  33
ENDBRANCH  30  31
ENDBRANCH  26  30
ENDBRANCH  24  26
ENDBRANCH  19  20
ENDBRANCH   9  19
TORSDOF 9
ENDMDL
MODEL 2
REMARK VINA RESULT:      -8.1      1.481      2.103
REMARK  Name = 
REMARK  10 active torsions:
REMARK  status: ('A' for Active; 'I' for Inactive)
REMARK    1  A    between atoms: C_1  and  O_2
REMARK    2  A    between atoms: O_2  and  C_3
REMARK    3  A    between atoms: C_8  and  C_9
REMARK    4  A    between atoms: C_17  and  O_18
REMARK    5  A    between atoms: O_18  and  C_19
REMARK    6  A    between atoms: C_23  and  C_24
REMARK    7  A    between atoms: C_24  and  C_25
REMARK    8  A    between atoms: C_24  and  C_29
REMARK    9  A    between atoms: C_25  and  C_26
REMARK   10  A    between atoms: C_26  and  O_28
REMARK                            x       y       z     vdW  Elec       q    Type
REMARK                         _______ _______ _______ _____ _____    ______ ____
ROOT
ATOM      1  C   UNL     1       2.507   7.122  18.558  0.00  0.00    +0.000 A 
ATOM      2  C   UNL     1       2.097   8.226  17.768  0.00  0.00    +0.000 A 
ATOM      3  C   UNL     1       1.368   9.303  18.298  0.00  0.00    +0.000 A 
ATOM      4  C   UNL     1       1.049   9.286  19.642  0.00  0.00    +0.000 A 
ATOM      5  C   UNL     1       1.460   8.219  20.444  0.00  0.00    +0.000 A 
ATOM      6  C   UNL     1       2.176   7.149  19.926  0.00  0.00    +0.000 A 
ATOM      7  C   UNL     1       1.033   8.420  21.858  0.00  0.00    +0.000 C 
ATOM      8  C   UNL     1      -0.117   9.410  21.665  0.00  0.00    +0.000 C 
ATOM      9  C   UNL     1       0.221  10.277  20.426  0.00  0.00    +0.000 C 
ENDROOT
BRANCH   1  15
ATOM     10  C   UNL     1       3.398   3.583  17.429  0.00  0.00    +0.000 A 
ATOM     11  C   UNL     1       4.672   3.762  16.897  0.00  0.00    +0.000 A 
ATOM     12  C   UNL     1       5.243   5.032  16.898  0.00  0.00    +0.000 A 
ATOM     13  C   UNL     1       4.542   6.117  17.426  0.00  0.00    +0.000 A 
ATOM     14  F   UNL     1       5.139   7.318  17.364  0.00  0.00    +0.000 F 
ATOM     15  C   UNL     1       3.259   5.979  17.979  0.00  0.00    +0.000 A 
ATOM     16  C   UNL     1       2.704   4.682  17.953  0.00  0.00    +0.000 A 
BRANCH  10  18
ATOM     17  C   UNL     1       1.623   2.336  18.368  0.00  0.00    +0.000 C 
ATOM     18  O   UNL     1       2.712   2.400  17.452  0.00  0.00    +0.000 OA
ENDBRANCH  10  18
ENDBRANCH   1  15
BRANCH   9  19
ATOM     19  O   UNL     1       0.998  11.444  20.730  0.00  0.00    +0.000 OA
BRANCH  19  20
ATOM     20  C   UNL     1       0.293  12.621  20.835  0.00  0.00    +0.000 A 
ATOM     21  C   UNL     1       0.411  13.683  19.940  0.00  0.00    +0.000 A 
ATOM     22  C   UNL     1      -0.343  14.836  20.108  0.00  0.00    +0.000 A 
ATOM     23  C   UNL     1      -1.219  14.954  21.184  0.00  0.00    +0.000 A 
ATOM     24  C   UNL     1      -1.394  13.904  22.097  0.00  0.00    +0.000 A 
ATOM     25  C   UNL     1      -0.632  12.725  21.890  0.00  0.00    +0.000 A 
BRANCH  24  26
ATOM     26  C   UNL     1      -2.394  13.999  23.253  0.00  0.00    +0.000 C 
BRANCH  26  27
ATOM     27  C   UNL     1      -1.817  14.606  24.531  0.00  0.00    +0.000 C 
ATOM     28  C   UNL     1      -0.901  15.810  24.523  0.00  0.00    +0.000 C 
ATOM     29  C   UNL     1      -2.310  15.953  25.016  0.00  0.00    +0.000 C 
ENDBRANCH  26  27
BRANCH  26  30
ATOM     30  C   UNL     1      -3.078  12.658  23.574  0.00  0.00    +0.000 C 
BRANCH  30  31
ATOM     31  C   UNL     1      -4.477  12.805  24.138  0.00  0.00    +0.000 C 
ATOM     32  O   UNL     1      -5.218  13.737  23.882  0.00  0.00    +0.000 OA
BRANCH  31  33
ATOM     33  O   UNL     1      -4.852  11.788  24.944  0.00  0.00    +0.000 OA
ATOM     34  H   UNL     1      -5.697  11.935  25.407  0.00  0.00    +0.000 HD
ENDBRANCH  31  33
ENDBRANCH  30  31
ENDBRANCH  26  30
ENDBRANCH  24  26
ENDBRANCH  19  20
ENDBRANCH   9  19
TORSDOF 9
ENDMDL
MODEL 3
REMARK VINA RESULT:      -8.0      2.963      4.601
REMARK  Name = 
REMARK  10 active torsions:
REMARK  status: ('A' for Active; 'I' for Inactive)
REMARK    1  A    between atoms: C_1  and  O_2
REMARK    2  A    between atoms: O_2  and  C_3
REMARK    3  A    between atoms: C_8  and  C_9
REMARK    4  A    between atoms: C_17  and  O_18
REMARK    5  A    between atoms: O_18  and  C_19
REMARK    6  A    between atoms: C_23  and  C_24
REMARK    7  A    between atoms: C_24  and  C_25
REMARK    8  A    between atoms: C_24  and  C_29
REMARK    9  A    between atoms: C_25  and  C_26
REMARK   10  A    between atoms: C_26  and  O_28
REMARK                            x       y       z     vdW  Elec       q    Type
REMARK                         _______ _______ _______ _____ _____    ______ ____
ROOT
ATOM      1  C   UNL     1       2.481   7.410  18.495  0.00  0.00    +0.000 A 
ATOM      2  C   UNL     1       2.094   8.585  17.801  0.00  0.00    +0.000 A 
ATOM      3  C   UNL     1       1.384   9.627  18.419  0.00  0.00    +0.000 A 
ATOM      4  C   UNL     1       1.061   9.502  19.757  0.00  0.00    +0.000 A 
ATOM      5  C   UNL     1       1.450   8.364  20.466  0.00  0.00    +0.000 A 
ATOM      6  C   UNL     1       2.147   7.328  19.859  0.00  0.00    +0.000 A 
ATOM      7  C   UNL     1       1.023   8.452  21.891  0.00  0.00    +0.000 C 
ATOM      8  C   UNL     1      -0.107   9.476  21.782  0.00  0.00    +0.000 C 
ATOM      9  C   UNL     1       0.250  10.439  20.621  0.00  0.00    +0.000 C 
ENDROOT
BRANCH   1  15
ATOM     10  C   UNL     1       5.108   5.534  16.453  0.00  0.00    +0.000 A 
ATOM     11  C   UNL     1       4.632   4.227  16.502  0.00  0.00    +0.000 A 
ATOM     12  C   UNL     1       3.462   3.950  17.203  0.00  0.00    +0.000 A 
ATOM     13  C   UNL     1       2.772   4.974  17.852  0.00  0.00    +0.000 A 
ATOM     14  F   UNL     1       1.669   4.630  18.537  0.00  0.00    +0.000 F 
ATOM     15  C   UNL     1       3.212   6.307  17.821  0.00  0.00    +0.000 A 
ATOM     16  C   UNL     1       4.407   6.554  17.113  0.00  0.00    +0.000 A 
BRANCH  10  18
ATOM     17  C   UNL     1       6.971   4.913  15.137  0.00  0.00    +0.000 C 
ATOM     18  O   UNL     1       6.262   5.932  15.835  0.00  0.00    +0.000 OA
ENDBRANCH  10  18
ENDBRANCH   1  15
BRANCH   9  19
ATOM     19  O   UNL     1       1.048  11.561  21.024  0.00  0.00    +0.000 OA
BRANCH  19  20
ATOM     20  C   UNL     1       0.834  12.728  20.327  0.00  0.00    +0.000 A 
ATOM     21  C   UNL     1      -0.249  12.940  19.476  0.00  0.00    +0.000 A 
ATOM     22  C   UNL     1      -0.401  14.151  18.815  0.00  0.00    +0.000 A 
ATOM     23  C   UNL     1       0.536  15.167  18.981  0.00  0.00    +0.000 A 
ATOM     24  C   UNL     1       1.628  15.013  19.847  0.00  0.00    +0.000 A 
ATOM     25  C   UNL     1       1.750  13.776  20.533  0.00  0.00    +0.000 A 
BRANCH  24  26
ATOM     26  C   UNL     1       2.636  16.142  20.082  0.00  0.00    +0.000 C 
BRANCH  26  27
ATOM     27  C   UNL     1       2.056  17.361  20.797  0.00  0.00    +0.000 C 
ATOM     28  C   UNL     1       1.280  17.256  22.092  0.00  0.00    +0.000 C 
ATOM     29  C   UNL     1       2.664  17.832  22.100  0.00  0.00    +0.000 C 
ENDBRANCH  26  27
BRANCH  26  30
ATOM     30  C   UNL     1       3.359  16.587  18.797  0.00  0.00    +0.000 C 
BRANCH  30  31
ATOM     31  C   UNL     1       4.123  15.474  18.110  0.00  0.00    +0.000 C 
ATOM     32  O   UNL     1       5.008  14.828  18.643  0.00  0.00    +0.000 OA
BRANCH  31  33
ATOM     33  O   UNL     1       3.722  15.235  16.842  0.00  0.00    +0.000 OA
ATOM     34  H   UNL     1       3.588  16.039  16.307  0.00  0.00    +0.000 HD
ENDBRANCH  31  33
ENDBRANCH  30  31
ENDBRANCH  26  30
ENDBRANCH  24  26
ENDBRANCH  19  20
ENDBRANCH   9  19
TORSDOF 9
ENDMDL
MODEL 4
REMARK VINA RESULT:      -8.0      2.079      3.010
REMARK  Name = 
REMARK  10 active torsions:
REMARK  status: ('A' for Active; 'I' for Inactive)
REMARK    1  A    between atoms: C_1  and  O_2
REMARK    2  A    between atoms: O_2  and  C_3
REMARK    3  A    between atoms: C_8  and  C_9
REMARK    4  A    between atoms: C_17  and  O_18
REMARK    5  A    between atoms: O_18  and  C_19
REMARK    6  A    between atoms: C_23  and  C_24
REMARK    7  A    between atoms: C_24  and  C_25
REMARK    8  A    between atoms: C_24  and  C_29
REMARK    9  A    between atoms: C_25  and  C_26
REMARK   10  A    between atoms: C_26  and  O_28
REMARK                            x       y       z     vdW  Elec       q    Type
REMARK                         _______ _______ _______ _____ _____    ______ ____
ROOT
ATOM      1  C   UNL     1       2.335   7.322  18.525  0.00  0.00    +0.000 A 
ATOM      2  C   UNL     1       1.890   8.416  17.741  0.00  0.00    +0.000 A 
ATOM      3  C   UNL     1       1.211   9.514  18.295  0.00  0.00    +0.000 A 
ATOM      4  C   UNL     1       0.979   9.527  19.657  0.00  0.00    +0.000 A 
ATOM      5  C   UNL     1       1.428   8.471  20.452  0.00  0.00    +0.000 A 
ATOM      6  C   UNL     1       2.094   7.381  19.910  0.00  0.00    +0.000 A 
ATOM      7  C   UNL     1       1.096   8.705  21.886  0.00  0.00    +0.000 C 
ATOM      8  C   UNL     1      -0.050   9.708  21.749  0.00  0.00    +0.000 C 
ATOM      9  C   UNL     1       0.218  10.546  20.473  0.00  0.00    +0.000 C 
ENDROOT
BRANCH   1  15
ATOM     10  C   UNL     1       3.063   3.768  17.330  0.00  0.00    +0.000 A 
ATOM     11  C   UNL     1       4.341   3.900  16.793  0.00  0.00    +0.000 A 
ATOM     12  C   UNL     1       4.967   5.144  16.811  0.00  0.00    +0.000 A 
ATOM     13  C   UNL     1       4.318   6.249  17.362  0.00  0.00    +0.000 A 
ATOM     14  F   UNL     1       4.966   7.424  17.317  0.00  0.00    +0.000 F 
ATOM     15  C   UNL     1       3.033   6.158  17.922  0.00  0.00    +0.000 A 
ATOM     16  C   UNL     1       2.421   4.887  17.878  0.00  0.00    +0.000 A 
BRANCH  10  18
ATOM     17  C   UNL     1       1.456   2.448  18.453  0.00  0.00    +0.000 C 
ATOM     18  O   UNL     1       2.326   2.616  17.338  0.00  0.00    +0.000 OA
ENDBRANCH  10  18
ENDBRANCH   1  15
BRANCH   9  19
ATOM     19  O   UNL     1       1.028  11.707  20.702  0.00  0.00    +0.000 OA
BRANCH  19  20
ATOM     20  C   UNL     1       0.343  12.884  20.902  0.00  0.00    +0.000 A 
ATOM     21  C   UNL     1       0.240  13.897  19.950  0.00  0.00    +0.000 A 
ATOM     22  C   UNL     1      -0.479  15.053  20.225  0.00  0.00    +0.000 A 
ATOM     23  C   UNL     1      -1.094  15.223  21.462  0.00  0.00    +0.000 A 
ATOM     24  C   UNL     1      -1.042  14.223  22.443  0.00  0.00    +0.000 A 
ATOM     25  C   UNL     1      -0.324  13.038  22.131  0.00  0.00    +0.000 A 
BRANCH  24  26
ATOM     26  C   UNL     1      -1.760  14.373  23.788  0.00  0.00    +0.000 C 
BRANCH  26  27
ATOM     27  C   UNL     1      -3.211  13.897  23.778  0.00  0.00    +0.000 C 
ATOM     28  C   UNL     1      -3.827  13.174  22.600  0.00  0.00    +0.000 C 
ATOM     29  C   UNL     1      -3.520  12.417  23.858  0.00  0.00    +0.000 C 
ENDBRANCH  26  27
BRANCH  26  30
ATOM     30  C   UNL     1      -1.683  15.801  24.360  0.00  0.00    +0.000 C 
BRANCH  30  31
ATOM     31  C   UNL     1      -0.776  15.927  25.566  0.00  0.00    +0.000 C 
ATOM     32  O   UNL     1       0.349  16.394  25.525  0.00  0.00    +0.000 OA
BRANCH  31  33
ATOM     33  O   UNL     1      -1.333  15.494  26.718  0.00  0.00    +0.000 OA
ATOM     34  H   UNL     1      -0.781  14.865  27.218  0.00  0.00    +0.000 HD
ENDBRANCH  31  33
ENDBRANCH  30  31
ENDBRANCH  26  30
ENDBRANCH  24  26
ENDBRANCH  19  20
ENDBRANCH   9  19
TORSDOF 9
ENDMDL
MODEL 5
REMARK VINA RESULT:      -8.0      1.321      1.910
REMARK  Name = 
REMARK  10 active torsions:
REMARK  status: ('A' for Active; 'I' for Inactive)
REMARK    1  A    between atoms: C_1  and  O_2
REMARK    2  A    between atoms: O_2  and  C_3
REMARK    3  A    between atoms: C_8  and  C_9
REMARK    4  A    between atoms: C_17  and  O_18
REMARK    5  A    between atoms: O_18  and  C_19
REMARK    6  A    between atoms: C_23  and  C_24
REMARK    7  A    between atoms: C_24  and  C_25
REMARK    8  A    between atoms: C_24  and  C_29
REMARK    9  A    between atoms: C_25  and  C_26
REMARK   10  A    between atoms: C_26  and  O_28
REMARK                            x       y       z     vdW  Elec       q    Type
REMARK                         _______ _______ _______ _____ _____    ______ ____
ROOT
ATOM      1  C   UNL     1       2.923   7.282  18.317  0.00  0.00    +0.000 A 
ATOM      2  C   UNL     1       2.431   8.411  17.615  0.00  0.00    +0.000 A 
ATOM      3  C   UNL     1       1.529   9.322  18.189  0.00  0.00    +0.000 A 
ATOM      4  C   UNL     1       1.117   9.110  19.491  0.00  0.00    +0.000 A 
ATOM      5  C   UNL     1       1.606   8.017  20.209  0.00  0.00    +0.000 A 
ATOM      6  C   UNL     1       2.493   7.110  19.646  0.00  0.00    +0.000 A 
ATOM      7  C   UNL     1       1.054   7.999  21.594  0.00  0.00    +0.000 C 
ATOM      8  C   UNL     1      -0.199   8.856  21.407  0.00  0.00    +0.000 C 
ATOM      9  C   UNL     1       0.111   9.896  20.300  0.00  0.00    +0.000 C 
ENDROOT
BRANCH   1  15
ATOM     10  C   UNL     1       6.081   5.799  16.762  0.00  0.00    +0.000 A 
ATOM     11  C   UNL     1       5.676   4.501  16.468  0.00  0.00    +0.000 A 
ATOM     12  C   UNL     1       4.379   4.100  16.780  0.00  0.00    +0.000 A 
ATOM     13  C   UNL     1       3.494   4.994  17.383  0.00  0.00    +0.000 A 
ATOM     14  F   UNL     1       2.271   4.531  17.686  0.00  0.00    +0.000 F 
ATOM     15  C   UNL     1       3.859   6.315  17.689  0.00  0.00    +0.000 A 
ATOM     16  C   UNL     1       5.183   6.686  17.371  0.00  0.00    +0.000 A 
BRANCH  10  18
ATOM     17  C   UNL     1       7.687   7.438  17.327  0.00  0.00    +0.000 C 
ATOM     18  O   UNL     1       7.334   6.304  16.544  0.00  0.00    +0.000 OA
ENDBRANCH  10  18
ENDBRANCH   1  15
BRANCH   9  19
ATOM     19  O   UNL     1       0.703  11.106  20.792  0.00  0.00    +0.000 OA
BRANCH  19  20
ATOM     20  C   UNL     1      -0.058  12.244  20.652  0.00  0.00    +0.000 A 
ATOM     21  C   UNL     1       0.326  13.351  19.897  0.00  0.00    +0.000 A 
ATOM     22  C   UNL     1      -0.504  14.459  19.797  0.00  0.00    +0.000 A 
ATOM     23  C   UNL     1      -1.726  14.487  20.463  0.00  0.00    +0.000 A 
ATOM     24  C   UNL     1      -2.169  13.389  21.213  0.00  0.00    +0.000 A 
ATOM     25  C   UNL     1      -1.317  12.256  21.281  0.00  0.00    +0.000 A 
BRANCH  24  26
ATOM     26  C   UNL     1      -3.536  13.384  21.906  0.00  0.00    +0.000 C 
BRANCH  26  27
ATOM     27  C   UNL     1      -4.723  13.467  20.948  0.00  0.00    +0.000 C 
ATOM     28  C   UNL     1      -4.823  12.623  19.696  0.00  0.00    +0.000 C 
ATOM     29  C   UNL     1      -5.709  12.321  20.868  0.00  0.00    +0.000 C 
ENDBRANCH  26  27
BRANCH  26  30
ATOM     30  C   UNL     1      -3.667  14.465  22.994  0.00  0.00    +0.000 C 
BRANCH  30  31
ATOM     31  C   UNL     1      -4.926  14.343  23.828  0.00  0.00    +0.000 C 
ATOM     32  O   UNL     1      -5.823  15.167  23.828  0.00  0.00    +0.000 OA
BRANCH  31  33
ATOM     33  O   UNL     1      -4.986  13.214  24.567  0.00  0.00    +0.000 OA
ATOM     34  H   UNL     1      -4.558  12.442  24.154  0.00  0.00    +0.000 HD
ENDBRANCH  31  33
ENDBRANCH  30  31
ENDBRANCH  26  30
ENDBRANCH  24  26
ENDBRANCH  19  20
ENDBRANCH   9  19
TORSDOF 9
ENDMDL
MODEL 6
REMARK VINA RESULT:      -7.9      1.862      2.717
REMARK  Name = 
REMARK  10 active torsions:
REMARK  status: ('A' for Active; 'I' for Inactive)
REMARK    1  A    between atoms: C_1  and  O_2
REMARK    2  A    between atoms: O_2  and  C_3
REMARK    3  A    between atoms: C_8  and  C_9
REMARK    4  A    between atoms: C_17  and  O_18
REMARK    5  A    between atoms: O_18  and  C_19
REMARK    6  A    between atoms: C_23  and  C_24
REMARK    7  A    between atoms: C_24  and  C_25
REMARK    8  A    between atoms: C_24  and  C_29
REMARK    9  A    between atoms: C_25  and  C_26
REMARK   10  A    between atoms: C_26  and  O_28
REMARK                            x       y       z     vdW  Elec       q    Type
REMARK                         _______ _______ _______ _____ _____    ______ ____
ROOT
ATOM      1  C   UNL     1       2.464   7.293  18.530  0.00  0.00    +0.000 A 
ATOM      2  C   UNL     1       1.975   8.393  17.780  0.00  0.00    +0.000 A 
ATOM      3  C   UNL     1       1.219   9.425  18.359  0.00  0.00    +0.000 A 
ATOM      4  C   UNL     1       0.953   9.367  19.714  0.00  0.00    +0.000 A 
ATOM      5  C   UNL     1       1.443   8.306  20.477  0.00  0.00    +0.000 A 
ATOM      6  C   UNL     1       2.185   7.279  19.910  0.00  0.00    +0.000 A 
ATOM      7  C   UNL     1       1.062   8.459  21.910  0.00  0.00    +0.000 C 
ATOM      8  C   UNL     1      -0.138   9.399  21.782  0.00  0.00    +0.000 C 
ATOM      9  C   UNL     1       0.113  10.305  20.549  0.00  0.00    +0.000 C 
ENDROOT
BRANCH   1  15
ATOM     10  C   UNL     1       3.471   3.820  17.301  0.00  0.00    +0.000 A 
ATOM     11  C   UNL     1       4.711   4.069  16.718  0.00  0.00    +0.000 A 
ATOM     12  C   UNL     1       5.220   5.365  16.716  0.00  0.00    +0.000 A 
ATOM     13  C   UNL     1       4.492   6.406  17.293  0.00  0.00    +0.000 A 
ATOM     14  F   UNL     1       5.028   7.636  17.227  0.00  0.00    +0.000 F 
ATOM     15  C   UNL     1       3.242   6.198  17.899  0.00  0.00    +0.000 A 
ATOM     16  C   UNL     1       2.749   4.876  17.874  0.00  0.00    +0.000 A 
BRANCH  10  18
ATOM     17  C   UNL     1       3.442   1.624  18.174  0.00  0.00    +0.000 C 
ATOM     18  O   UNL     1       2.844   2.605  17.334  0.00  0.00    +0.000 OA
ENDBRANCH  10  18
ENDBRANCH   1  15
BRANCH   9  19
ATOM     19  O   UNL     1       0.848  11.500  20.848  0.00  0.00    +0.000 OA
BRANCH  19  20
ATOM     20  C   UNL     1       0.102  12.564  21.300  0.00  0.00    +0.000 A 
ATOM     21  C   UNL     1       0.611  13.847  21.493  0.00  0.00    +0.000 A 
ATOM     22  C   UNL     1      -0.209  14.872  21.943  0.00  0.00    +0.000 A 
ATOM     23  C   UNL     1      -1.551  14.629  22.224  0.00  0.00    +0.000 A 
ATOM     24  C   UNL     1      -2.118  13.363  22.020  0.00  0.00    +0.000 A 
ATOM     25  C   UNL     1      -1.266  12.336  21.535  0.00  0.00    +0.000 A 
BRANCH  24  26
ATOM     26  C   UNL     1      -3.605  13.095  22.272  0.00  0.00    +0.000 C 
BRANCH  26  27
ATOM     27  C   UNL     1      -4.509  13.428  21.086  0.00  0.00    +0.000 C 
ATOM     28  C   UNL     1      -4.419  12.705  19.760  0.00  0.00    +0.000 C 
ATOM     29  C   UNL     1      -5.589  12.455  20.664  0.00  0.00    +0.000 C 
ENDBRANCH  26  27
BRANCH  26  30
ATOM     30  C   UNL     1      -4.138  13.781  23.544  0.00  0.00    +0.000 C 
BRANCH  30  31
ATOM     31  C   UNL     1      -5.209  12.987  24.262  0.00  0.00    +0.000 C 
ATOM     32  O   UNL     1      -5.039  11.866  24.709  0.00  0.00    +0.000 OA
BRANCH  31  33
ATOM     33  O   UNL     1      -6.383  13.642  24.392  0.00  0.00    +0.000 OA
ATOM     34  H   UNL     1      -6.779  13.924  23.547  0.00  0.00    +0.000 HD
ENDBRANCH  31  33
ENDBRANCH  30  31
ENDBRANCH  26  30
ENDBRANCH  24  26
ENDBRANCH  19  20
ENDBRANCH   9  19
TORSDOF 9
ENDMDL
MODEL 7
REMARK VINA RESULT:      -7.9      1.151      1.776
REMARK  Name = 
REMARK  10 active torsions:
REMARK  status: ('A' for Active; 'I' for Inactive)
REMARK    1  A    between atoms: C_1  and  O_2
REMARK    2  A    between atoms: O_2  and  C_3
REMARK    3  A    between atoms: C_8  and  C_9
REMARK    4  A    between atoms: C_17  and  O_18
REMARK    5  A    between atoms: O_18  and  C_19
REMARK    6  A    between atoms: C_23  and  C_24
REMARK    7  A    between atoms: C_24  and  C_25
REMARK    8  A    between atoms: C_24  and  C_29
REMARK    9  A    between atoms: C_25  and  C_26
REMARK   10  A    between atoms: C_26  and  O_28
REMARK                            x       y       z     vdW  Elec       q    Type
REMARK                         _______ _______ _______ _____ _____    ______ ____
ROOT
ATOM      1  C   UNL     1       2.532   7.355  18.464  0.00  0.00    +0.000 A 
ATOM      2  C   UNL     1       2.016   8.432  17.699  0.00  0.00    +0.000 A 
ATOM      3  C   UNL     1       1.226   9.447  18.263  0.00  0.00    +0.000 A 
ATOM      4  C   UNL     1       0.952   9.394  19.616  0.00  0.00    +0.000 A 
ATOM      5  C   UNL     1       1.467   8.355  20.393  0.00  0.00    +0.000 A 
ATOM      6  C   UNL     1       2.244   7.346  19.841  0.00  0.00    +0.000 A 
ATOM      7  C   UNL     1       1.072   8.510  21.822  0.00  0.00    +0.000 C 
ATOM      8  C   UNL     1      -0.154   9.413  21.676  0.00  0.00    +0.000 C 
ATOM      9  C   UNL     1       0.078  10.314  20.436  0.00  0.00    +0.000 C 
ENDROOT
BRANCH   1  15
ATOM     10  C   UNL     1       5.429   5.544  16.755  0.00  0.00    +0.000 A 
ATOM     11  C   UNL     1       4.935   4.247  16.646  0.00  0.00    +0.000 A 
ATOM     12  C   UNL     1       3.664   3.955  17.133  0.00  0.00    +0.000 A 
ATOM     13  C   UNL     1       2.892   4.955  17.726  0.00  0.00    +0.000 A 
ATOM     14  F   UNL     1       1.689   4.596  18.203  0.00  0.00    +0.000 F 
ATOM     15  C   UNL     1       3.348   6.277  17.848  0.00  0.00    +0.000 A 
ATOM     16  C   UNL     1       4.644   6.538  17.356  0.00  0.00    +0.000 A 
BRANCH  10  18
ATOM     17  C   UNL     1       7.352   6.827  17.247  0.00  0.00    +0.000 C 
ATOM     18  O   UNL     1       6.673   5.951  16.355  0.00  0.00    +0.000 OA
ENDBRANCH  10  18
ENDBRANCH   1  15
BRANCH   9  19
ATOM     19  O   UNL     1       0.775  11.533  20.729  0.00  0.00    +0.000 OA
BRANCH  19  20
ATOM     20  C   UNL     1       0.018  12.681  20.682  0.00  0.00    +0.000 A 
ATOM     21  C   UNL     1       0.117  13.639  19.673  0.00  0.00    +0.000 A 
ATOM     22  C   UNL     1      -0.691  14.768  19.691  0.00  0.00    +0.000 A 
ATOM     23  C   UNL     1      -1.602  14.967  20.724  0.00  0.00    +0.000 A 
ATOM     24  C   UNL     1      -1.759  14.021  21.746  0.00  0.00    +0.000 A 
ATOM     25  C   UNL     1      -0.941  12.861  21.695  0.00  0.00    +0.000 A 
BRANCH  24  26
ATOM     26  C   UNL     1      -2.796  14.200  22.859  0.00  0.00    +0.000 C 
BRANCH  26  27
ATOM     27  C   UNL     1      -4.244  14.064  22.393  0.00  0.00    +0.000 C 
ATOM     28  C   UNL     1      -4.696  12.985  21.434  0.00  0.00    +0.000 C 
ATOM     29  C   UNL     1      -5.088  12.906  22.879  0.00  0.00    +0.000 C 
ENDBRANCH  26  27
BRANCH  26  30
ATOM     30  C   UNL     1      -2.621  15.513  23.644  0.00  0.00    +0.000 C 
BRANCH  30  31
ATOM     31  C   UNL     1      -3.473  15.596  24.894  0.00  0.00    +0.000 C 
ATOM     32  O   UNL     1      -4.335  16.438  25.075  0.00  0.00    +0.000 OA
BRANCH  31  33
ATOM     33  O   UNL     1      -3.211  14.628  25.800  0.00  0.00    +0.000 OA
ATOM     34  H   UNL     1      -3.198  13.727  25.430  0.00  0.00    +0.000 HD
ENDBRANCH  31  33
ENDBRANCH  30  31
ENDBRANCH  26  30
ENDBRANCH  24  26
ENDBRANCH  19  20
ENDBRANCH   9  19
TORSDOF 9
ENDMDL
MODEL 8
REMARK VINA RESULT:      -7.9      1.589      2.289
REMARK  Name = 
REMARK  10 active torsions:
REMARK  status: ('A' for Active; 'I' for Inactive)
REMARK    1  A    between atoms: C_1  and  O_2
REMARK    2  A    between atoms: O_2  and  C_3
REMARK    3  A    between atoms: C_8  and  C_9
REMARK    4  A    between atoms: C_17  and  O_18
REMARK    5  A    between atoms: O_18  and  C_19
REMARK    6  A    between atoms: C_23  and  C_24
REMARK    7  A    between atoms: C_24  and  C_25
REMARK    8  A    between atoms: C_24  and  C_29
REMARK    9  A    between atoms: C_25  and  C_26
REMARK   10  A    between atoms: C_26  and  O_28
REMARK                            x       y       z     vdW  Elec       q    Type
REMARK                         _______ _______ _______ _____ _____    ______ ____
ROOT
ATOM      1  C   UNL     1       2.797   7.400  18.339  0.00  0.00    +0.000 A 
ATOM      2  C   UNL     1       2.263   8.464  17.569  0.00  0.00    +0.000 A 
ATOM      3  C   UNL     1       1.375   9.411  18.104  0.00  0.00    +0.000 A 
ATOM      4  C   UNL     1       1.019   9.303  19.435  0.00  0.00    +0.000 A 
ATOM      5  C   UNL     1       1.549   8.276  20.219  0.00  0.00    +0.000 A 
ATOM      6  C   UNL     1       2.423   7.334  19.694  0.00  0.00    +0.000 A 
ATOM      7  C   UNL     1       1.054   8.366  21.622  0.00  0.00    +0.000 C 
ATOM      8  C   UNL     1      -0.215   9.195  21.418  0.00  0.00    +0.000 C 
ATOM      9  C   UNL     1       0.038  10.143  20.219  0.00  0.00    +0.000 C 
ENDROOT
BRANCH   1  15
ATOM     10  C   UNL     1       5.924   5.811  16.827  0.00  0.00    +0.000 A 
ATOM     11  C   UNL     1       5.506   4.501  16.610  0.00  0.00    +0.000 A 
ATOM     12  C   UNL     1       4.211   4.128  16.960  0.00  0.00    +0.000 A 
ATOM     13  C   UNL     1       3.340   5.060  17.525  0.00  0.00    +0.000 A 
ATOM     14  F   UNL     1       2.117   4.624  17.868  0.00  0.00    +0.000 F 
ATOM     15  C   UNL     1       3.718   6.394  17.753  0.00  0.00    +0.000 A 
ATOM     16  C   UNL     1       5.040   6.737  17.398  0.00  0.00    +0.000 A 
BRANCH  10  18
ATOM     17  C   UNL     1       7.577   7.422  17.335  0.00  0.00    +0.000 C 
ATOM     18  O   UNL     1       7.178   6.293  16.566  0.00  0.00    +0.000 OA
ENDBRANCH  10  18
ENDBRANCH   1  15
BRANCH   9  19
ATOM     19  O   UNL     1       0.635  11.395  20.586  0.00  0.00    +0.000 OA
BRANCH  19  20
ATOM     20  C   UNL     1      -0.217  12.325  21.136  0.00  0.00    +0.000 A 
ATOM     21  C   UNL     1       0.209  13.463  21.820  0.00  0.00    +0.000 A 
ATOM     22  C   UNL     1      -0.713  14.361  22.338  0.00  0.00    +0.000 A 
ATOM     23  C   UNL     1      -2.078  14.132  22.194  0.00  0.00    +0.000 A 
ATOM     24  C   UNL     1      -2.557  13.018  21.491  0.00  0.00    +0.000 A 
ATOM     25  C   UNL     1      -1.596  12.125  20.947  0.00  0.00    +0.000 A 
BRANCH  24  26
ATOM     26  C   UNL     1      -4.056  12.782  21.277  0.00  0.00    +0.000 C 
BRANCH  26  27
ATOM     27  C   UNL     1      -4.501  12.869  19.818  0.00  0.00    +0.000 C 
ATOM     28  C   UNL     1      -4.150  11.814  18.792  0.00  0.00    +0.000 C 
ATOM     29  C   UNL     1      -5.560  11.923  19.294  0.00  0.00    +0.000 C 
ENDBRANCH  26  27
BRANCH  26  30
ATOM     30  C   UNL     1      -4.943  13.690  22.148  0.00  0.00    +0.000 C 
BRANCH  30  31
ATOM     31  C   UNL     1      -5.739  12.941  23.197  0.00  0.00    +0.000 C 
ATOM     32  O   UNL     1      -6.513  12.034  22.944  0.00  0.00    +0.000 OA
BRANCH  31  33
ATOM     33  O   UNL     1      -5.500  13.351  24.462  0.00  0.00    +0.000 OA
ATOM     34  H   UNL     1      -4.650  13.813  24.580  0.00  0.00    +0.000 HD
ENDBRANCH  31  33
ENDBRANCH  30  31
ENDBRANCH  26  30
ENDBRANCH  24  26
ENDBRANCH  19  20
ENDBRANCH   9  19
TORSDOF 9
ENDMDL
MODEL 9
REMARK VINA RESULT:      -7.9      3.270      4.557
REMARK  Name = 
REMARK  10 active torsions:
REMARK  status: ('A' for Active; 'I' for Inactive)
REMARK    1  A    between atoms: C_1  and  O_2
REMARK    2  A    between atoms: O_2  and  C_3
REMARK    3  A    between atoms: C_8  and  C_9
REMARK    4  A    between atoms: C_17  and  O_18
REMARK    5  A    between atoms: O_18  and  C_19
REMARK    6  A    between atoms: C_23  and  C_24
REMARK    7  A    between atoms: C_24  and  C_25
REMARK    8  A    between atoms: C_24  and  C_29
REMARK    9  A    between atoms: C_25  and  C_26
REMARK   10  A    between atoms: C_26  and  O_28
REMARK                            x       y       z     vdW  Elec       q    Type
REMARK                         _______ _______ _______ _____ _____    ______ ____
ROOT
ATOM      1  C   UNL     1       4.329   5.949  17.441  0.00  0.00    +0.000 A 
ATOM      2  C   UNL     1       3.611   7.163  17.293  0.00  0.00    +0.000 A 
ATOM      3  C   UNL     1       2.632   7.577  18.211  0.00  0.00    +0.000 A 
ATOM      4  C   UNL     1       2.368   6.771  19.301  0.00  0.00    +0.000 A 
ATOM      5  C   UNL     1       3.077   5.581  19.479  0.00  0.00    +0.000 A 
ATOM      6  C   UNL     1       4.042   5.164  18.573  0.00  0.00    +0.000 A 
ATOM      7  C   UNL     1       2.652   4.888  20.728  0.00  0.00    +0.000 C 
ATOM      8  C   UNL     1       1.272   5.511  20.939  0.00  0.00    +0.000 C 
ATOM      9  C   UNL     1       1.325   6.956  20.379  0.00  0.00    +0.000 C 
ENDROOT
BRANCH   1  15
ATOM     10  C   UNL     1       5.915   4.363  14.348  0.00  0.00    +0.000 A 
ATOM     11  C   UNL     1       7.264   4.647  14.538  0.00  0.00    +0.000 A 
ATOM     12  C   UNL     1       7.662   5.360  15.666  0.00  0.00    +0.000 A 
ATOM     13  C   UNL     1       6.716   5.787  16.598  0.00  0.00    +0.000 A 
ATOM     14  F   UNL     1       7.166   6.498  17.645  0.00  0.00    +0.000 F 
ATOM     15  C   UNL     1       5.346   5.514  16.450  0.00  0.00    +0.000 A 
ATOM     16  C   UNL     1       4.974   4.800  15.291  0.00  0.00    +0.000 A 
BRANCH  10  18
ATOM     17  C   UNL     1       6.304   3.430  12.212  0.00  0.00    +0.000 C 
ATOM     18  O   UNL     1       5.390   3.708  13.268  0.00  0.00    +0.000 OA
ENDBRANCH  10  18
ENDBRANCH   1  15
BRANCH   9  19
ATOM     19  O   UNL     1       1.763   7.932  21.334  0.00  0.00    +0.000 OA
BRANCH  19  20
ATOM     20  C   UNL     1       0.896   8.975  21.564  0.00  0.00    +0.000 A 
ATOM     21  C   UNL     1       0.347   9.272  22.811  0.00  0.00    +0.000 A 
ATOM     22  C   UNL     1      -0.514  10.349  22.964  0.00  0.00    +0.000 A 
ATOM     23  C   UNL     1      -0.854  11.142  21.872  0.00  0.00    +0.000 A 
ATOM     24  C   UNL     1      -0.307  10.902  20.603  0.00  0.00    +0.000 A 
ATOM     25  C   UNL     1       0.591   9.810  20.474  0.00  0.00    +0.000 A 
BRANCH  24  26
ATOM     26  C   UNL     1      -0.629  11.799  19.403  0.00  0.00    +0.000 C 
BRANCH  26  27
ATOM     27  C   UNL     1      -0.160  13.244  19.560  0.00  0.00    +0.000 C 
ATOM     28  C   UNL     1       1.210  13.607  20.088  0.00  0.00    +0.000 C 
ATOM     29  C   UNL     1       0.900  13.799  18.633  0.00  0.00    +0.000 C 
ENDBRANCH  26  27
BRANCH  26  30
ATOM     30  C   UNL     1      -2.117  11.772  19.008  0.00  0.00    +0.000 C 
BRANCH  30  31
ATOM     31  C   UNL     1      -2.399  10.982  17.747  0.00  0.00    +0.000 C 
ATOM     32  O   UNL     1      -2.390  11.462  16.627  0.00  0.00    +0.000 OA
BRANCH  31  33
ATOM     33  O   UNL     1      -2.645   9.671  17.965  0.00  0.00    +0.000 OA
ATOM     34  H   UNL     1      -2.745   9.142  17.153  0.00  0.00    +0.000 HD
ENDBRANCH  31  33
ENDBRANCH  30  31
ENDBRANCH  26  30
ENDBRANCH  24  26
ENDBRANCH  19  20
ENDBRANCH   9  19
TORSDOF 9
ENDMDL
