MODEL 1
REMARK VINA RESULT:      -8.6      0.000      0.000
REMARK  Name = 
REMARK  6 active torsions:
REMARK  status: ('A' for Active; 'I' for Inactive)
REMARK    1  A    between atoms: C_1  and  O_2
REMARK    2  A    between atoms: O_2  and  C_3
REMARK    3  A    between atoms: C_8  and  N_9
REMARK    4  A    between atoms: C_13  and  C_15
REMARK    5  A    between atoms: C_15  and  C_16
REMARK    6  A    between atoms: C_16  and  C_17
REMARK                            x       y       z     vdW  Elec       q    Type
REMARK                         _______ _______ _______ _____ _____    ______ ____
ROOT
ATOM      1  N   UNL     1       1.857   7.607  19.224  0.00  0.00    +0.000 N 
ATOM      2  C   UNL     1       1.976   6.835  20.472  0.00  0.00    +0.000 C 
ATOM      3  C   UNL     1       1.323   5.457  20.280  0.00  0.00    +0.000 C 
ATOM      4  N   UNL     1       1.852   4.749  19.106  0.00  0.00    +0.000 N 
ATOM      5  C   UNL     1       1.909   3.365  19.158  0.00  0.00    +0.000 C 
ATOM      6  O   UNL     1       1.643   2.738  20.185  0.00  0.00    +0.000 OA
ATOM      7  C   UNL     1       1.863   5.554  17.865  0.00  0.00    +0.000 C 
ATOM      8  C   UNL     1       2.481   6.949  18.067  0.00  0.00    +0.000 C 
ENDROOT
BRANCH   1  14
ATOM      9  C   UNL     1       0.695   9.564  20.192  0.00  0.00    +0.000 A 
ATOM     10  C   UNL     1       0.443  10.947  20.154  0.00  0.00    +0.000 A 
ATOM     11  C   UNL     1       1.030  11.755  19.185  0.00  0.00    +0.000 A 
ATOM     12  C   UNL     1       1.853  11.187  18.229  0.00  0.00    +0.000 A 
ATOM     13  C   UNL     1       2.085   9.810  18.241  0.00  0.00    +0.000 A 
ATOM     14  C   UNL     1       1.528   8.956  19.215  0.00  0.00    +0.000 A 
BRANCH   9  16
ATOM     15  C   UNL     1       0.202   9.254  22.507  0.00  0.00    +0.000 C 
ATOM     16  O   UNL     1       0.162   8.757  21.175  0.00  0.00    +0.000 OA
ENDBRANCH   9  16
ENDBRANCH   1  14
BRANCH   5  17
ATOM     17  C   UNL     1       2.422   2.644  17.929  0.00  0.00    +0.000 C 
BRANCH  17  18
ATOM     18  C   UNL     1       3.834   2.112  18.137  0.00  0.00    +0.000 C 
BRANCH  18  19
ATOM     19  C   UNL     1       4.740   3.233  18.490  0.00  0.00    +0.000 A 
ATOM     20  N   UNL     1       5.053   3.633  19.709  0.00  0.00    +0.000 NA
ATOM     21  N   UNL     1       6.000   4.623  19.600  0.00  0.00    +0.000 NA
ATOM     22  C   UNL     1       6.243   4.802  18.322  0.00  0.00    +0.000 A 
ATOM     23  C   UNL     1       7.123   5.645  17.636  0.00  0.00    +0.000 A 
ATOM     24  C   UNL     1       7.163   5.578  16.297  0.00  0.00    +0.000 A 
ATOM     25  C   UNL     1       6.282   4.597  15.567  0.00  0.00    +0.000 A 
ATOM     26  N   UNL     1       6.364   4.518  14.187  0.00  0.00    +0.000 N 
ATOM     27  C   UNL     1       5.567   3.604  13.373  0.00  0.00    +0.000 C 
ATOM     28  C   UNL     1       6.500   3.247  12.224  0.00  0.00    +0.000 C 
ATOM     29  C   UNL     1       7.258   4.539  11.979  0.00  0.00    +0.000 C 
ATOM     30  C   UNL     1       7.383   5.168  13.364  0.00  0.00    +0.000 C 
ATOM     31  N   UNL     1       5.448   3.814  16.207  0.00  0.00    +0.000 NA
ATOM     32  N   UNL     1       5.463   3.952  17.568  0.00  0.00    +0.000 N 
ENDBRANCH  18  19
ENDBRANCH  17  18
ENDBRANCH   5  17
TORSDOF 5
ENDMDL
MODEL 2
REMARK VINA RESULT:      -8.5      0.997      1.701
REMARK  Name = 
REMARK  6 active torsions:
REMARK  status: ('A' for Active; 'I' for Inactive)
REMARK    1  A    between atoms: C_1  and  O_2
REMARK    2  A    between atoms: O_2  and  C_3
REMARK    3  A    between atoms: C_8  and  N_9
REMARK    4  A    between atoms: C_13  and  C_15
REMARK    5  A    between atoms: C_15  and  C_16
REMARK    6  A    between atoms: C_16  and  C_17
REMARK                            x       y       z     vdW  Elec       q    Type
REMARK                         _______ _______ _______ _____ _____    ______ ____
ROOT
ATOM      1  N   UNL     1       1.703   6.833  20.236  0.00  0.00    +0.000 N 
ATOM      2  C   UNL     1       1.464   5.681  21.121  0.00  0.00    +0.000 C 
ATOM      3  C   UNL     1       0.879   4.522  20.298  0.00  0.00    +0.000 C 
ATOM      4  N   UNL     1       1.706   4.196  19.128  0.00  0.00    +0.000 N 
ATOM      5  C   UNL     1       1.735   2.876  18.705  0.00  0.00    +0.000 C 
ATOM      6  O   UNL     1       1.190   1.973  19.344  0.00  0.00    +0.000 OA
ATOM      7  C   UNL     1       2.067   5.363  18.294  0.00  0.00    +0.000 C 
ATOM      8  C   UNL     1       2.617   6.539  19.123  0.00  0.00    +0.000 C 
ENDROOT
BRANCH   1  14
ATOM      9  C   UNL     1       1.238   9.200  19.689  0.00  0.00    +0.000 A 
ATOM     10  C   UNL     1       0.880  10.485  20.136  0.00  0.00    +0.000 A 
ATOM     11  C   UNL     1       0.641  10.733  21.484  0.00  0.00    +0.000 A 
ATOM     12  C   UNL     1       0.783   9.708  22.403  0.00  0.00    +0.000 A 
ATOM     13  C   UNL     1       1.167   8.436  21.972  0.00  0.00    +0.000 A 
ATOM     14  C   UNL     1       1.400   8.134  20.615  0.00  0.00    +0.000 A 
BRANCH   9  16
ATOM     15  C   UNL     1       0.434   9.394  17.450  0.00  0.00    +0.000 C 
ATOM     16  O   UNL     1       1.430   8.927  18.352  0.00  0.00    +0.000 OA
ENDBRANCH   9  16
ENDBRANCH   1  14
BRANCH   5  17
ATOM     17  C   UNL     1       2.562   2.558  17.478  0.00  0.00    +0.000 C 
BRANCH  17  18
ATOM     18  C   UNL     1       3.937   2.017  17.850  0.00  0.00    +0.000 C 
BRANCH  18  19
ATOM     19  C   UNL     1       4.818   3.140  18.255  0.00  0.00    +0.000 A 
ATOM     20  N   UNL     1       5.099   3.508  19.492  0.00  0.00    +0.000 NA
ATOM     21  N   UNL     1       6.034   4.514  19.433  0.00  0.00    +0.000 NA
ATOM     22  C   UNL     1       6.302   4.734  18.166  0.00  0.00    +0.000 A 
ATOM     23  C   UNL     1       7.184   5.609  17.525  0.00  0.00    +0.000 A 
ATOM     24  C   UNL     1       7.254   5.583  16.185  0.00  0.00    +0.000 A 
ATOM     25  C   UNL     1       6.403   4.611  15.408  0.00  0.00    +0.000 A 
ATOM     26  N   UNL     1       6.517   4.574  14.028  0.00  0.00    +0.000 N 
ATOM     27  C   UNL     1       5.750   3.674  13.171  0.00  0.00    +0.000 C 
ATOM     28  C   UNL     1       6.713   3.364  12.032  0.00  0.00    +0.000 C 
ATOM     29  C   UNL     1       7.458   4.674  11.842  0.00  0.00    +0.000 C 
ATOM     30  C   UNL     1       7.543   5.262  13.248  0.00  0.00    +0.000 C 
ATOM     31  N   UNL     1       5.567   3.799  16.007  0.00  0.00    +0.000 NA
ATOM     32  N   UNL     1       5.551   3.897  17.371  0.00  0.00    +0.000 N 
ENDBRANCH  18  19
ENDBRANCH  17  18
ENDBRANCH   5  17
TORSDOF 5
ENDMDL
MODEL 3
REMARK VINA RESULT:      -8.5      3.281      5.552
REMARK  Name = 
REMARK  6 active torsions:
REMARK  status: ('A' for Active; 'I' for Inactive)
REMARK    1  A    between atoms: C_1  and  O_2
REMARK    2  A    between atoms: O_2  and  C_3
REMARK    3  A    between atoms: C_8  and  N_9
REMARK    4  A    between atoms: C_13  and  C_15
REMARK    5  A    between atoms: C_15  and  C_16
REMARK    6  A    between atoms: C_16  and  C_17
REMARK                            x       y       z     vdW  Elec       q    Type
REMARK                         _______ _______ _______ _____ _____    ______ ____
ROOT
ATOM      1  N   UNL     1      -1.285  11.931  22.463  0.00  0.00    +0.000 N 
ATOM      2  C   UNL     1      -1.361  11.921  20.992  0.00  0.00    +0.000 C 
ATOM      3  C   UNL     1      -0.057  11.341  20.422  0.00  0.00    +0.000 C 
ATOM      4  N   UNL     1       0.266  10.027  20.997  0.00  0.00    +0.000 N 
ATOM      5  C   UNL     1       0.937   9.118  20.193  0.00  0.00    +0.000 C 
ATOM      6  O   UNL     1       1.157   9.337  19.000  0.00  0.00    +0.000 OA
ATOM      7  C   UNL     1       0.220   9.983  22.474  0.00  0.00    +0.000 C 
ATOM      8  C   UNL     1      -1.069  10.601  23.048  0.00  0.00    +0.000 C 
ENDROOT
BRANCH   1  14
ATOM      9  C   UNL     1      -0.992  14.203  23.397  0.00  0.00    +0.000 A 
ATOM     10  C   UNL     1      -1.529  15.272  24.136  0.00  0.00    +0.000 A 
ATOM     11  C   UNL     1      -2.809  15.198  24.678  0.00  0.00    +0.000 A 
ATOM     12  C   UNL     1      -3.555  14.044  24.511  0.00  0.00    +0.000 A 
ATOM     13  C   UNL     1      -3.018  12.965  23.804  0.00  0.00    +0.000 A 
ATOM     14  C   UNL     1      -1.735  13.004  23.221  0.00  0.00    +0.000 A 
BRANCH   9  16
ATOM     15  C   UNL     1       0.677  15.563  22.367  0.00  0.00    +0.000 C 
ATOM     16  O   UNL     1       0.253  14.280  22.812  0.00  0.00    +0.000 OA
ENDBRANCH   9  16
ENDBRANCH   1  14
BRANCH   5  17
ATOM     17  C   UNL     1       1.296   7.782  20.808  0.00  0.00    +0.000 C 
BRANCH  17  18
ATOM     18  C   UNL     1       2.405   7.084  20.029  0.00  0.00    +0.000 C 
BRANCH  18  19
ATOM     19  C   UNL     1       2.137   5.625  19.986  0.00  0.00    +0.000 A 
ATOM     20  N   UNL     1       1.208   4.979  20.664  0.00  0.00    +0.000 NA
ATOM     21  N   UNL     1       1.221   3.666  20.258  0.00  0.00    +0.000 NA
ATOM     22  C   UNL     1       2.154   3.543  19.342  0.00  0.00    +0.000 A 
ATOM     23  C   UNL     1       2.584   2.459  18.571  0.00  0.00    +0.000 A 
ATOM     24  C   UNL     1       3.566   2.656  17.678  0.00  0.00    +0.000 A 
ATOM     25  C   UNL     1       4.168   4.028  17.514  0.00  0.00    +0.000 A 
ATOM     26  N   UNL     1       5.155   4.218  16.562  0.00  0.00    +0.000 N 
ATOM     27  C   UNL     1       5.807   5.501  16.308  0.00  0.00    +0.000 C 
ATOM     28  C   UNL     1       6.082   5.468  14.811  0.00  0.00    +0.000 C 
ATOM     29  C   UNL     1       6.416   4.010  14.551  0.00  0.00    +0.000 C 
ATOM     30  C   UNL     1       5.544   3.245  15.543  0.00  0.00    +0.000 C 
ATOM     31  N   UNL     1       3.774   5.043  18.244  0.00  0.00    +0.000 NA
ATOM     32  N   UNL     1       2.777   4.754  19.135  0.00  0.00    +0.000 N 
ENDBRANCH  18  19
ENDBRANCH  17  18
ENDBRANCH   5  17
TORSDOF 5
ENDMDL
MODEL 4
REMARK VINA RESULT:      -8.4      2.494      4.694
REMARK  Name = 
REMARK  6 active torsions:
REMARK  status: ('A' for Active; 'I' for Inactive)
REMARK    1  A    between atoms: C_1  and  O_2
REMARK    2  A    between atoms: O_2  and  C_3
REMARK    3  A    between atoms: C_8  and  N_9
REMARK    4  A    between atoms: C_13  and  C_15
REMARK    5  A    between atoms: C_15  and  C_16
REMARK    6  A    between atoms: C_16  and  C_17
REMARK                            x       y       z     vdW  Elec       q    Type
REMARK                         _______ _______ _______ _____ _____    ______ ____
ROOT
ATOM      1  N   UNL     1      -0.348  10.707  21.511  0.00  0.00    +0.000 N 
ATOM      2  C   UNL     1      -0.538  10.533  20.061  0.00  0.00    +0.000 C 
ATOM      3  C   UNL     1       0.771  10.026  19.435  0.00  0.00    +0.000 C 
ATOM      4  N   UNL     1       1.278   8.820  20.104  0.00  0.00    +0.000 N 
ATOM      5  C   UNL     1       1.977   7.901  19.337  0.00  0.00    +0.000 C 
ATOM      6  O   UNL     1       2.077   8.012  18.114  0.00  0.00    +0.000 OA
ATOM      7  C   UNL     1       1.354   8.929  21.577  0.00  0.00    +0.000 C 
ATOM      8  C   UNL     1       0.056   9.474  22.201  0.00  0.00    +0.000 C 
ENDROOT
BRANCH   1  14
ATOM      9  C   UNL     1      -0.212  13.075  22.211  0.00  0.00    +0.000 A 
ATOM     10  C   UNL     1      -0.801  14.160  22.885  0.00  0.00    +0.000 A 
ATOM     11  C   UNL     1      -2.032  14.027  23.520  0.00  0.00    +0.000 A 
ATOM     12  C   UNL     1      -2.676  12.802  23.511  0.00  0.00    +0.000 A 
ATOM     13  C   UNL     1      -2.085  11.711  22.870  0.00  0.00    +0.000 A 
ATOM     14  C   UNL     1      -0.849  11.805  22.198  0.00  0.00    +0.000 A 
BRANCH   9  16
ATOM     15  C   UNL     1       0.951  13.914  20.303  0.00  0.00    +0.000 C 
ATOM     16  O   UNL     1       0.982  13.204  21.536  0.00  0.00    +0.000 OA
ENDBRANCH   9  16
ENDBRANCH   1  14
BRANCH   5  17
ATOM     17  C   UNL     1       2.525   6.680  20.044  0.00  0.00    +0.000 C 
BRANCH  17  18
ATOM     18  C   UNL     1       1.415   5.850  20.678  0.00  0.00    +0.000 C 
BRANCH  18  19
ATOM     19  C   UNL     1       1.665   4.411  20.422  0.00  0.00    +0.000 A 
ATOM     20  N   UNL     1       1.036   3.394  20.983  0.00  0.00    +0.000 NA
ATOM     21  N   UNL     1       1.488   2.238  20.393  0.00  0.00    +0.000 NA
ATOM     22  C   UNL     1       2.378   2.575  19.488  0.00  0.00    +0.000 A 
ATOM     23  C   UNL     1       3.132   1.826  18.578  0.00  0.00    +0.000 A 
ATOM     24  C   UNL     1       3.958   2.474  17.743  0.00  0.00    +0.000 A 
ATOM     25  C   UNL     1       4.044   3.978  17.789  0.00  0.00    +0.000 A 
ATOM     26  N   UNL     1       4.876   4.630  16.892  0.00  0.00    +0.000 N 
ATOM     27  C   UNL     1       5.038   6.080  16.838  0.00  0.00    +0.000 C 
ATOM     28  C   UNL     1       5.261   6.356  15.357  0.00  0.00    +0.000 C 
ATOM     29  C   UNL     1       6.068   5.154  14.898  0.00  0.00    +0.000 C 
ATOM     30  C   UNL     1       5.544   4.004  15.753  0.00  0.00    +0.000 C 
ATOM     31  N   UNL     1       3.348   4.680  18.648  0.00  0.00    +0.000 NA
ATOM     32  N   UNL     1       2.539   3.943  19.468  0.00  0.00    +0.000 N 
ENDBRANCH  18  19
ENDBRANCH  17  18
ENDBRANCH   5  17
TORSDOF 5
ENDMDL
MODEL 5
REMARK VINA RESULT:      -8.1      4.279     10.337
REMARK  Name = 
REMARK  6 active torsions:
REMARK  status: ('A' for Active; 'I' for Inactive)
REMARK    1  A    between atoms: C_1  and  O_2
REMARK    2  A    between atoms: O_2  and  C_3
REMARK    3  A    between atoms: C_8  and  N_9
REMARK    4  A    between atoms: C_13  and  C_15
REMARK    5  A    between atoms: C_15  and  C_16
REMARK    6  A    between atoms: C_16  and  C_17
REMARK                            x       y       z     vdW  Elec       q    Type
REMARK                         _______ _______ _______ _____ _____    ______ ____
ROOT
ATOM      1  N   UNL     1       2.514   6.732  18.629  0.00  0.00    +0.000 N 
ATOM      2  C   UNL     1       2.796   7.858  17.722  0.00  0.00    +0.000 C 
ATOM      3  C   UNL     1       1.654   8.882  17.815  0.00  0.00    +0.000 C 
ATOM      4  N   UNL     1       1.393   9.301  19.198  0.00  0.00    +0.000 N 
ATOM      5  C   UNL     1       0.941  10.595  19.407  0.00  0.00    +0.000 C 
ATOM      6  O   UNL     1       0.869  11.418  18.492  0.00  0.00    +0.000 OA
ATOM      7  C   UNL     1       1.235   8.182  20.153  0.00  0.00    +0.000 C 
ATOM      8  C   UNL     1       2.358   7.136  20.033  0.00  0.00    +0.000 C 
ENDROOT
BRANCH   1  14
ATOM      9  C   UNL     1       4.033   4.873  18.032  0.00  0.00    +0.000 A 
ATOM     10  C   UNL     1       4.193   3.512  17.715  0.00  0.00    +0.000 A 
ATOM     11  C   UNL     1       3.098   2.657  17.656  0.00  0.00    +0.000 A 
ATOM     12  C   UNL     1       1.828   3.156  17.886  0.00  0.00    +0.000 A 
ATOM     13  C   UNL     1       1.656   4.513  18.173  0.00  0.00    +0.000 A 
ATOM     14  C   UNL     1       2.738   5.412  18.263  0.00  0.00    +0.000 A 
BRANCH   9  16
ATOM     15  C   UNL     1       6.089   5.398  19.126  0.00  0.00    +0.000 C 
ATOM     16  O   UNL     1       5.113   5.723  18.144  0.00  0.00    +0.000 OA
ENDBRANCH   9  16
ENDBRANCH   1  14
BRANCH   5  17
ATOM     17  C   UNL     1       0.641  11.004  20.833  0.00  0.00    +0.000 C 
BRANCH  17  18
ATOM     18  C   UNL     1       0.632  12.520  20.995  0.00  0.00    +0.000 C 
BRANCH  18  19
ATOM     19  C   UNL     1      -0.451  12.912  21.929  0.00  0.00    +0.000 A 
ATOM     20  N   UNL     1      -0.299  13.477  23.112  0.00  0.00    +0.000 NA
ATOM     21  N   UNL     1      -1.547  13.777  23.603  0.00  0.00    +0.000 NA
ATOM     22  C   UNL     1      -2.429  13.391  22.710  0.00  0.00    +0.000 A 
ATOM     23  C   UNL     1      -3.825  13.471  22.663  0.00  0.00    +0.000 A 
ATOM     24  C   UNL     1      -4.458  13.002  21.578  0.00  0.00    +0.000 A 
ATOM     25  C   UNL     1      -3.663  12.420  20.437  0.00  0.00    +0.000 A 
ATOM     26  N   UNL     1      -4.334  11.974  19.310  0.00  0.00    +0.000 N 
ATOM     27  C   UNL     1      -3.672  11.397  18.142  0.00  0.00    +0.000 C 
ATOM     28  C   UNL     1      -4.545  11.852  16.981  0.00  0.00    +0.000 C 
ATOM     29  C   UNL     1      -5.946  11.816  17.564  0.00  0.00    +0.000 C 
ATOM     30  C   UNL     1      -5.751  12.195  19.029  0.00  0.00    +0.000 C 
ATOM     31  N   UNL     1      -2.356  12.333  20.484  0.00  0.00    +0.000 NA
ATOM     32  N   UNL     1      -1.791  12.825  21.628  0.00  0.00    +0.000 N 
ENDBRANCH  18  19
ENDBRANCH  17  18
ENDBRANCH   5  17
TORSDOF 5
ENDMDL
MODEL 6
REMARK VINA RESULT:      -8.1      6.220      8.277
REMARK  Name = 
REMARK  6 active torsions:
REMARK  status: ('A' for Active; 'I' for Inactive)
REMARK    1  A    between atoms: C_1  and  O_2
REMARK    2  A    between atoms: O_2  and  C_3
REMARK    3  A    between atoms: C_8  and  N_9
REMARK    4  A    between atoms: C_13  and  C_15
REMARK    5  A    between atoms: C_15  and  C_16
REMARK    6  A    between atoms: C_16  and  C_17
REMARK                            x       y       z     vdW  Elec       q    Type
REMARK                         _______ _______ _______ _____ _____    ______ ____
ROOT
ATOM      1  N   UNL     1      10.038  13.175  18.752  0.00  0.00    +0.000 N 
ATOM      2  C   UNL     1      10.764  12.093  19.438  0.00  0.00    +0.000 C 
ATOM      3  C   UNL     1       9.785  10.955  19.766  0.00  0.00    +0.000 C 
ATOM      4  N   UNL     1       9.043  10.499  18.583  0.00  0.00    +0.000 N 
ATOM      5  C   UNL     1       8.676   9.163  18.526  0.00  0.00    +0.000 C 
ATOM      6  O   UNL     1       9.051   8.345  19.367  0.00  0.00    +0.000 OA
ATOM      7  C   UNL     1       8.412  11.587  17.805  0.00  0.00    +0.000 C 
ATOM      8  C   UNL     1       9.382  12.746  17.509  0.00  0.00    +0.000 C 
ENDROOT
BRANCH   1  14
ATOM      9  C   UNL     1       9.544  15.221  20.052  0.00  0.00    +0.000 A 
ATOM     10  C   UNL     1       9.851  16.564  20.333  0.00  0.00    +0.000 A 
ATOM     11  C   UNL     1      10.877  17.221  19.660  0.00  0.00    +0.000 A 
ATOM     12  C   UNL     1      11.590  16.551  18.681  0.00  0.00    +0.000 A 
ATOM     13  C   UNL     1      11.273  15.225  18.375  0.00  0.00    +0.000 A 
ATOM     14  C   UNL     1      10.256  14.515  19.044  0.00  0.00    +0.000 A 
BRANCH   9  16
ATOM     15  C   UNL     1       7.324  15.212  20.928  0.00  0.00    +0.000 C 
ATOM     16  O   UNL     1       8.565  14.542  20.744  0.00  0.00    +0.000 OA
ENDBRANCH   9  16
ENDBRANCH   1  14
BRANCH   5  17
ATOM     17  C   UNL     1       7.880   8.713  17.319  0.00  0.00    +0.000 C 
BRANCH  17  18
ATOM     18  C   UNL     1       6.650   7.909  17.723  0.00  0.00    +0.000 C 
BRANCH  18  19
ATOM     19  C   UNL     1       6.615   6.638  16.959  0.00  0.00    +0.000 A 
ATOM     20  N   UNL     1       7.536   6.203  16.120  0.00  0.00    +0.000 NA
ATOM     21  N   UNL     1       7.177   4.942  15.711  0.00  0.00    +0.000 NA
ATOM     22  C   UNL     1       6.049   4.636  16.310  0.00  0.00    +0.000 A 
ATOM     23  C   UNL     1       5.250   3.489  16.292  0.00  0.00    +0.000 A 
ATOM     24  C   UNL     1       4.142   3.466  17.048  0.00  0.00    +0.000 A 
ATOM     25  C   UNL     1       3.793   4.657  17.904  0.00  0.00    +0.000 A 
ATOM     26  N   UNL     1       2.665   4.600  18.706  0.00  0.00    +0.000 N 
ATOM     27  C   UNL     1       2.230   5.686  19.580  0.00  0.00    +0.000 C 
ATOM     28  C   UNL     1       1.610   4.959  20.766  0.00  0.00    +0.000 C 
ATOM     29  C   UNL     1       0.952   3.750  20.126  0.00  0.00    +0.000 C 
ATOM     30  C   UNL     1       1.869   3.400  18.957  0.00  0.00    +0.000 C 
ATOM     31  N   UNL     1       4.534   5.738  17.913  0.00  0.00    +0.000 NA
ATOM     32  N   UNL     1       5.638   5.681  17.108  0.00  0.00    +0.000 N 
ENDBRANCH  18  19
ENDBRANCH  17  18
ENDBRANCH   5  17
TORSDOF 5
ENDMDL
MODEL 7
REMARK VINA RESULT:      -8.1      6.071      8.195
REMARK  Name = 
REMARK  6 active torsions:
REMARK  status: ('A' for Active; 'I' for Inactive)
REMARK    1  A    between atoms: C_1  and  O_2
REMARK    2  A    between atoms: O_2  and  C_3
REMARK    3  A    between atoms: C_8  and  N_9
REMARK    4  A    between atoms: C_13  and  C_15
REMARK    5  A    between atoms: C_15  and  C_16
REMARK    6  A    between atoms: C_16  and  C_17
REMARK                            x       y       z     vdW  Elec       q    Type
REMARK                         _______ _______ _______ _____ _____    ______ ____
ROOT
ATOM      1  N   UNL     1       9.239  13.985  18.057  0.00  0.00    +0.000 N 
ATOM      2  C   UNL     1      10.225  13.197  18.816  0.00  0.00    +0.000 C 
ATOM      3  C   UNL     1       9.535  11.957  19.407  0.00  0.00    +0.000 C 
ATOM      4  N   UNL     1       8.827  11.174  18.385  0.00  0.00    +0.000 N 
ATOM      5  C   UNL     1       8.750   9.801  18.563  0.00  0.00    +0.000 C 
ATOM      6  O   UNL     1       9.348   9.224  19.473  0.00  0.00    +0.000 OA
ATOM      7  C   UNL     1       7.927  11.971  17.524  0.00  0.00    +0.000 C 
ATOM      8  C   UNL     1       8.606  13.234  16.964  0.00  0.00    +0.000 C 
ENDROOT
BRANCH   1  14
ATOM      9  C   UNL     1       7.978  16.100  18.294  0.00  0.00    +0.000 A 
ATOM     10  C   UNL     1       8.001  17.501  18.407  0.00  0.00    +0.000 A 
ATOM     11  C   UNL     1       9.203  18.202  18.395  0.00  0.00    +0.000 A 
ATOM     12  C   UNL     1      10.394  17.512  18.241  0.00  0.00    +0.000 A 
ATOM     13  C   UNL     1      10.379  16.123  18.098  0.00  0.00    +0.000 A 
ATOM     14  C   UNL     1       9.187  15.371  18.125  0.00  0.00    +0.000 A 
BRANCH   9  16
ATOM     15  C   UNL     1       6.028  15.520  19.542  0.00  0.00    +0.000 C 
ATOM     16  O   UNL     1       6.800  15.387  18.355  0.00  0.00    +0.000 OA
ENDBRANCH   9  16
ENDBRANCH   1  14
BRANCH   5  17
ATOM     17  C   UNL     1       7.987   9.008  17.523  0.00  0.00    +0.000 C 
BRANCH  17  18
ATOM     18  C   UNL     1       7.198   7.866  18.152  0.00  0.00    +0.000 C 
BRANCH  18  19
ATOM     19  C   UNL     1       6.958   6.811  17.137  0.00  0.00    +0.000 A 
ATOM     20  N   UNL     1       7.775   6.464  16.160  0.00  0.00    +0.000 NA
ATOM     21  N   UNL     1       7.230   5.380  15.516  0.00  0.00    +0.000 NA
ATOM     22  C   UNL     1       6.097   5.090  16.114  0.00  0.00    +0.000 A 
ATOM     23  C   UNL     1       5.150   4.082  15.907  0.00  0.00    +0.000 A 
ATOM     24  C   UNL     1       4.083   4.029  16.719  0.00  0.00    +0.000 A 
ATOM     25  C   UNL     1       3.936   5.033  17.833  0.00  0.00    +0.000 A 
ATOM     26  N   UNL     1       2.846   4.938  18.683  0.00  0.00    +0.000 N 
ATOM     27  C   UNL     1       2.600   5.847  19.799  0.00  0.00    +0.000 C 
ATOM     28  C   UNL     1       1.938   4.957  20.842  0.00  0.00    +0.000 C 
ATOM     29  C   UNL     1       1.095   4.011  20.006  0.00  0.00    +0.000 C 
ATOM     30  C   UNL     1       1.905   3.820  18.727  0.00  0.00    +0.000 C 
ATOM     31  N   UNL     1       4.817   5.984  18.021  0.00  0.00    +0.000 NA
ATOM     32  N   UNL     1       5.867   5.973  17.146  0.00  0.00    +0.000 N 
ENDBRANCH  18  19
ENDBRANCH  17  18
ENDBRANCH   5  17
TORSDOF 5
ENDMDL
MODEL 8
REMARK VINA RESULT:      -8.0      3.136      9.170
REMARK  Name = 
REMARK  6 active torsions:
REMARK  status: ('A' for Active; 'I' for Inactive)
REMARK    1  A    between atoms: C_1  and  O_2
REMARK    2  A    between atoms: O_2  and  C_3
REMARK    3  A    between atoms: C_8  and  N_9
REMARK    4  A    between atoms: C_13  and  C_15
REMARK    5  A    between atoms: C_15  and  C_16
REMARK    6  A    between atoms: C_16  and  C_17
REMARK                            x       y       z     vdW  Elec       q    Type
REMARK                         _______ _______ _______ _____ _____    ______ ____
ROOT
ATOM      1  N   UNL     1       4.195   6.379  17.835  0.00  0.00    +0.000 N 
ATOM      2  C   UNL     1       3.917   7.770  17.440  0.00  0.00    +0.000 C 
ATOM      3  C   UNL     1       2.449   8.102  17.752  0.00  0.00    +0.000 C 
ATOM      4  N   UNL     1       2.098   7.813  19.149  0.00  0.00    +0.000 N 
ATOM      5  C   UNL     1       1.139   8.613  19.753  0.00  0.00    +0.000 C 
ATOM      6  O   UNL     1       0.674   9.609  19.196  0.00  0.00    +0.000 OA
ATOM      7  C   UNL     1       2.487   6.461  19.607  0.00  0.00    +0.000 C 
ATOM      8  C   UNL     1       3.946   6.113  19.259  0.00  0.00    +0.000 C 
ENDROOT
BRANCH   1  14
ATOM      9  C   UNL     1       4.483   4.260  16.591  0.00  0.00    +0.000 A 
ATOM     10  C   UNL     1       5.283   3.463  15.753  0.00  0.00    +0.000 A 
ATOM     11  C   UNL     1       6.530   3.903  15.322  0.00  0.00    +0.000 A 
ATOM     12  C   UNL     1       7.004   5.133  15.746  0.00  0.00    +0.000 A 
ATOM     13  C   UNL     1       6.230   5.919  16.603  0.00  0.00    +0.000 A 
ATOM     14  C   UNL     1       4.952   5.522  17.048  0.00  0.00    +0.000 A 
BRANCH   9  16
ATOM     15  C   UNL     1       3.142   2.688  17.786  0.00  0.00    +0.000 C 
ATOM     16  O   UNL     1       3.224   3.861  16.986  0.00  0.00    +0.000 OA
ENDBRANCH   9  16
ENDBRANCH   1  14
BRANCH   5  17
ATOM     17  C   UNL     1       0.759   8.283  21.181  0.00  0.00    +0.000 C 
BRANCH  17  18
ATOM     18  C   UNL     1       1.285   9.326  22.159  0.00  0.00    +0.000 C 
BRANCH  18  19
ATOM     19  C   UNL     1       0.206  10.291  22.482  0.00  0.00    +0.000 A 
ATOM     20  N   UNL     1      -0.753  10.124  23.374  0.00  0.00    +0.000 NA
ATOM     21  N   UNL     1      -1.476  11.290  23.443  0.00  0.00    +0.000 NA
ATOM     22  C   UNL     1      -0.943  12.140  22.596  0.00  0.00    +0.000 A 
ATOM     23  C   UNL     1      -1.244  13.467  22.271  0.00  0.00    +0.000 A 
ATOM     24  C   UNL     1      -0.482  14.093  21.361  0.00  0.00    +0.000 A 
ATOM     25  C   UNL     1       0.677  13.369  20.726  0.00  0.00    +0.000 A 
ATOM     26  N   UNL     1       1.473  14.046  19.816  0.00  0.00    +0.000 N 
ATOM     27  C   UNL     1       2.625  13.453  19.142  0.00  0.00    +0.000 C 
ATOM     28  C   UNL     1       3.590  14.622  18.995  0.00  0.00    +0.000 C 
ATOM     29  C   UNL     1       2.669  15.801  18.738  0.00  0.00    +0.000 C 
ATOM     30  C   UNL     1       1.417  15.482  19.551  0.00  0.00    +0.000 C 
ATOM     31  N   UNL     1       0.953  12.123  21.020  0.00  0.00    +0.000 NA
ATOM     32  N   UNL     1       0.124  11.556  21.948  0.00  0.00    +0.000 N 
ENDBRANCH  18  19
ENDBRANCH  17  18
ENDBRANCH   5  17
TORSDOF 5
ENDMDL
MODEL 9
REMARK VINA RESULT:      -7.9      3.649      7.072
REMARK  Name = 
REMARK  6 active torsions:
REMARK  status: ('A' for Active; 'I' for Inactive)
REMARK    1  A    between atoms: C_1  and  O_2
REMARK    2  A    between atoms: O_2  and  C_3
REMARK    3  A    between atoms: C_8  and  N_9
REMARK    4  A    between atoms: C_13  and  C_15
REMARK    5  A    between atoms: C_15  and  C_16
REMARK    6  A    between atoms: C_16  and  C_17
REMARK                            x       y       z     vdW  Elec       q    Type
REMARK                         _______ _______ _______ _____ _____    ______ ____
ROOT
ATOM      1  N   UNL     1       0.728  14.486  19.421  0.00  0.00    +0.000 N 
ATOM      2  C   UNL     1       1.245  14.284  20.785  0.00  0.00    +0.000 C 
ATOM      3  C   UNL     1       0.316  13.322  21.542  0.00  0.00    +0.000 C 
ATOM      4  N   UNL     1       0.100  12.066  20.810  0.00  0.00    +0.000 N 
ATOM      5  C   UNL     1      -0.103  10.912  21.552  0.00  0.00    +0.000 C 
ATOM      6  O   UNL     1       0.010  10.896  22.779  0.00  0.00    +0.000 OA
ATOM      7  C   UNL     1      -0.296  12.247  19.396  0.00  0.00    +0.000 C 
ATOM      8  C   UNL     1       0.611  13.242  18.648  0.00  0.00    +0.000 C 
ENDROOT
BRANCH   1  14
ATOM      9  C   UNL     1       1.876  16.407  18.368  0.00  0.00    +0.000 A 
ATOM     10  C   UNL     1       1.780  17.648  17.713  0.00  0.00    +0.000 A 
ATOM     11  C   UNL     1       0.541  18.227  17.453  0.00  0.00    +0.000 A 
ATOM     12  C   UNL     1      -0.613  17.586  17.870  0.00  0.00    +0.000 A 
ATOM     13  C   UNL     1      -0.525  16.367  18.547  0.00  0.00    +0.000 A 
ATOM     14  C   UNL     1       0.706  15.735  18.814  0.00  0.00    +0.000 A 
BRANCH   9  16
ATOM     15  C   UNL     1       4.257  16.549  18.271  0.00  0.00    +0.000 C 
ATOM     16  O   UNL     1       3.093  15.797  18.587  0.00  0.00    +0.000 OA
ENDBRANCH   9  16
ENDBRANCH   1  14
BRANCH   5  17
ATOM     17  C   UNL     1      -0.361   9.632  20.787  0.00  0.00    +0.000 C 
BRANCH  17  18
ATOM     18  C   UNL     1       0.830   8.683  20.858  0.00  0.00    +0.000 C 
BRANCH  18  19
ATOM     19  C   UNL     1       1.547   8.691  19.559  0.00  0.00    +0.000 A 
ATOM     20  N   UNL     1       1.757   9.740  18.786  0.00  0.00    +0.000 NA
ATOM     21  N   UNL     1       2.550   9.342  17.737  0.00  0.00    +0.000 NA
ATOM     22  C   UNL     1       2.806   8.064  17.894  0.00  0.00    +0.000 A 
ATOM     23  C   UNL     1       3.573   7.155  17.158  0.00  0.00    +0.000 A 
ATOM     24  C   UNL     1       3.666   5.891  17.596  0.00  0.00    +0.000 A 
ATOM     25  C   UNL     1       2.965   5.483  18.866  0.00  0.00    +0.000 A 
ATOM     26  N   UNL     1       3.104   4.181  19.321  0.00  0.00    +0.000 N 
ATOM     27  C   UNL     1       2.478   3.672  20.539  0.00  0.00    +0.000 C 
ATOM     28  C   UNL     1       3.491   2.663  21.062  0.00  0.00    +0.000 C 
ATOM     29  C   UNL     1       4.057   2.050  19.793  0.00  0.00    +0.000 C 
ATOM     30  C   UNL     1       4.041   3.196  18.786  0.00  0.00    +0.000 C 
ATOM     31  N   UNL     1       2.235   6.329  19.551  0.00  0.00    +0.000 NA
ATOM     32  N   UNL     1       2.186   7.593  19.031  0.00  0.00    +0.000 N 
ENDBRANCH  18  19
ENDBRANCH  17  18
ENDBRANCH   5  17
TORSDOF 5
ENDMDL
