MODEL 1
REMARK VINA RESULT:      -8.4      0.000      0.000
REMARK  Name = 
REMARK  3 active torsions:
REMARK  status: ('A' for Active; 'I' for Inactive)
REMARK    1  A    between atoms: C_2  and  C_3
REMARK    2  A    between atoms: C_3  and  N_4
REMARK    3  A    between atoms: N_15  and  C_16
REMARK                            x       y       z     vdW  Elec       q    Type
REMARK                         _______ _______ _______ _____ _____    ______ ____
ROOT
ATOM      1  C   UNL     1       6.304   5.419  18.529  0.00  0.00    +0.000 C 
ENDROOT
BRANCH   1   2
ATOM      2  N   UNL     1       4.882   5.158  18.503  0.00  0.00    +0.000 N 
ATOM      3  C   UNL     1       3.940   6.042  18.084  0.00  0.00    +0.000 C 
ATOM      4  O   UNL     1       4.112   7.159  17.631  0.00  0.00    +0.000 OA
ATOM      5  N   UNL     1       2.695   5.503  18.322  0.00  0.00    +0.000 N 
ATOM      6  C   UNL     1       2.762   4.246  19.024  0.00  0.00    +0.000 C 
ATOM      7  C   UNL     1       2.101   4.301  20.408  0.00  0.00    +0.000 C 
ATOM      8  C   UNL     1       0.941   3.311  20.331  0.00  0.00    +0.000 C 
ATOM      9  C   UNL     1       1.416   2.270  19.330  0.00  0.00    +0.000 C 
ATOM     10  C   UNL     1       2.097   3.105  18.255  0.00  0.00    +0.000 C 
ATOM     11  C   UNL     1       4.292   4.086  19.112  0.00  0.00    +0.000 C 
ATOM     12  O   UNL     1       4.898   3.168  19.654  0.00  0.00    +0.000 OA
ATOM     13  H   UNL     1       1.859   6.050  18.153  0.00  0.00    +0.000 HD
ENDBRANCH   1   2
BRANCH   1  15
ATOM     14  O   UNL     1       8.055   4.343  17.273  0.00  0.00    +0.000 OA
ATOM     15  C   UNL     1       6.989   4.953  17.242  0.00  0.00    +0.000 C 
ATOM     16  N   UNL     1       6.320   5.347  16.089  0.00  0.00    +0.000 N 
ATOM     17  H   UNL     1       5.665   6.120  16.190  0.00  0.00    +0.000 HD
BRANCH  16  18
ATOM     18  C   UNL     1       6.607   4.931  14.770  0.00  0.00    +0.000 A 
ATOM     19  C   UNL     1       7.638   5.478  13.997  0.00  0.00    +0.000 A 
ATOM     20  C   UNL     1       7.859   5.033  12.688  0.00  0.00    +0.000 A 
ATOM     21  C   UNL     1       7.053   4.037  12.155  0.00  0.00    +0.000 A 
ATOM     22  F   UNL     1       7.252   3.626  10.896  0.00  0.00    +0.000 F 
ATOM     23  C   UNL     1       6.044   3.460  12.915  0.00  0.00    +0.000 A 
ATOM     24  C   UNL     1       5.827   3.899  14.226  0.00  0.00    +0.000 A 
ENDBRANCH  16  18
ENDBRANCH   1  15
TORSDOF 3
ENDMDL
MODEL 2
REMARK VINA RESULT:      -8.4      0.115      1.033
REMARK  Name = 
REMARK  3 active torsions:
REMARK  status: ('A' for Active; 'I' for Inactive)
REMARK    1  A    between atoms: C_2  and  C_3
REMARK    2  A    between atoms: C_3  and  N_4
REMARK    3  A    between atoms: N_15  and  C_16
REMARK                            x       y       z     vdW  Elec       q    Type
REMARK                         _______ _______ _______ _____ _____    ______ ____
ROOT
ATOM      1  C   UNL     1       6.353   5.326  18.499  0.00  0.00    +0.000 C 
ENDROOT
BRANCH   1   2
ATOM      2  N   UNL     1       4.921   5.128  18.491  0.00  0.00    +0.000 N 
ATOM      3  C   UNL     1       4.014   6.053  18.085  0.00  0.00    +0.000 C 
ATOM      4  O   UNL     1       4.229   7.163  17.631  0.00  0.00    +0.000 OA
ATOM      5  N   UNL     1       2.749   5.570  18.339  0.00  0.00    +0.000 N 
ATOM      6  C   UNL     1       2.770   4.310  19.039  0.00  0.00    +0.000 C 
ATOM      7  C   UNL     1       2.129   4.392  20.431  0.00  0.00    +0.000 C 
ATOM      8  C   UNL     1       0.926   3.455  20.369  0.00  0.00    +0.000 C 
ATOM      9  C   UNL     1       1.341   2.395  19.361  0.00  0.00    +0.000 C 
ATOM     10  C   UNL     1       2.045   3.200  18.278  0.00  0.00    +0.000 C 
ATOM     11  C   UNL     1       4.292   4.082  19.107  0.00  0.00    +0.000 C 
ATOM     12  O   UNL     1       4.864   3.138  19.641  0.00  0.00    +0.000 OA
ATOM     13  H   UNL     1       1.936   6.153  18.182  0.00  0.00    +0.000 HD
ENDBRANCH   1   2
BRANCH   1  15
ATOM     14  O   UNL     1       8.081   4.302  17.170  0.00  0.00    +0.000 OA
ATOM     15  C   UNL     1       6.995   4.875  17.184  0.00  0.00    +0.000 C 
ATOM     16  N   UNL     1       6.260   5.238  16.062  0.00  0.00    +0.000 N 
ATOM     17  H   UNL     1       5.584   5.988  16.188  0.00  0.00    +0.000 HD
BRANCH  16  18
ATOM     18  C   UNL     1       6.501   4.823  14.733  0.00  0.00    +0.000 A 
ATOM     19  C   UNL     1       5.720   3.869  14.069  0.00  0.00    +0.000 A 
ATOM     20  C   UNL     1       6.023   3.489  12.757  0.00  0.00    +0.000 A 
ATOM     21  C   UNL     1       7.103   4.068  12.105  0.00  0.00    +0.000 A 
ATOM     22  F   UNL     1       7.405   3.689  10.856  0.00  0.00    +0.000 F 
ATOM     23  C   UNL     1       7.873   5.038  12.734  0.00  0.00    +0.000 A 
ATOM     24  C   UNL     1       7.565   5.424  14.044  0.00  0.00    +0.000 A 
ENDBRANCH  16  18
ENDBRANCH   1  15
TORSDOF 3
ENDMDL
MODEL 3
REMARK VINA RESULT:      -8.0      1.149      2.347
REMARK  Name = 
REMARK  3 active torsions:
REMARK  status: ('A' for Active; 'I' for Inactive)
REMARK    1  A    between atoms: C_2  and  C_3
REMARK    2  A    between atoms: C_3  and  N_4
REMARK    3  A    between atoms: N_15  and  C_16
REMARK                            x       y       z     vdW  Elec       q    Type
REMARK                         _______ _______ _______ _____ _____    ______ ____
ROOT
ATOM      1  C   UNL     1       5.269   6.680  17.741  0.00  0.00    +0.000 C 
ENDROOT
BRANCH   1   2
ATOM      2  N   UNL     1       4.650   5.590  18.459  0.00  0.00    +0.000 N 
ATOM      3  C   UNL     1       5.309   4.502  18.934  0.00  0.00    +0.000 C 
ATOM      4  O   UNL     1       6.503   4.269  18.882  0.00  0.00    +0.000 OA
ATOM      5  N   UNL     1       4.385   3.616  19.445  0.00  0.00    +0.000 N 
ATOM      6  C   UNL     1       3.028   4.049  19.229  0.00  0.00    +0.000 C 
ATOM      7  C   UNL     1       2.232   3.092  18.331  0.00  0.00    +0.000 C 
ATOM      8  C   UNL     1       1.105   2.565  19.215  0.00  0.00    +0.000 C 
ATOM      9  C   UNL     1       0.843   3.702  20.189  0.00  0.00    +0.000 C 
ATOM     10  C   UNL     1       2.242   4.197  20.532  0.00  0.00    +0.000 C 
ATOM     11  C   UNL     1       3.298   5.404  18.546  0.00  0.00    +0.000 C 
ATOM     12  O   UNL     1       2.455   6.188  18.124  0.00  0.00    +0.000 OA
ATOM     13  H   UNL     1       4.676   2.703  19.771  0.00  0.00    +0.000 HD
ENDBRANCH   1   2
BRANCH   1  15
ATOM     14  O   UNL     1       4.833   7.189  15.428  0.00  0.00    +0.000 OA
ATOM     15  C   UNL     1       5.328   6.407  16.236  0.00  0.00    +0.000 C 
ATOM     16  N   UNL     1       5.924   5.192  15.921  0.00  0.00    +0.000 N 
ATOM     17  H   UNL     1       5.971   4.506  16.671  0.00  0.00    +0.000 HD
BRANCH  16  18
ATOM     18  C   UNL     1       6.274   4.741  14.628  0.00  0.00    +0.000 A 
ATOM     19  C   UNL     1       5.522   3.804  13.909  0.00  0.00    +0.000 A 
ATOM     20  C   UNL     1       5.933   3.386  12.638  0.00  0.00    +0.000 A 
ATOM     21  C   UNL     1       7.093   3.909  12.084  0.00  0.00    +0.000 A 
ATOM     22  F   UNL     1       7.498   3.492  10.877  0.00  0.00    +0.000 F 
ATOM     23  C   UNL     1       7.838   4.861  12.768  0.00  0.00    +0.000 A 
ATOM     24  C   UNL     1       7.423   5.285  14.035  0.00  0.00    +0.000 A 
ENDBRANCH  16  18
ENDBRANCH   1  15
TORSDOF 3
ENDMDL
MODEL 4
REMARK VINA RESULT:      -7.9      1.148      2.112
REMARK  Name = 
REMARK  3 active torsions:
REMARK  status: ('A' for Active; 'I' for Inactive)
REMARK    1  A    between atoms: C_2  and  C_3
REMARK    2  A    between atoms: C_3  and  N_4
REMARK    3  A    between atoms: N_15  and  C_16
REMARK                            x       y       z     vdW  Elec       q    Type
REMARK                         _______ _______ _______ _____ _____    ______ ____
ROOT
ATOM      1  C   UNL     1       5.177   6.688  17.731  0.00  0.00    +0.000 C 
ENDROOT
BRANCH   1   2
ATOM      2  N   UNL     1       4.575   5.570  18.421  0.00  0.00    +0.000 N 
ATOM      3  C   UNL     1       5.256   4.495  18.895  0.00  0.00    +0.000 C 
ATOM      4  O   UNL     1       6.458   4.299  18.866  0.00  0.00    +0.000 OA
ATOM      5  N   UNL     1       4.349   3.575  19.372  0.00  0.00    +0.000 N 
ATOM      6  C   UNL     1       2.984   3.970  19.131  0.00  0.00    +0.000 C 
ATOM      7  C   UNL     1       2.238   3.002  18.202  0.00  0.00    +0.000 C 
ATOM      8  C   UNL     1       1.108   2.430  19.053  0.00  0.00    +0.000 C 
ATOM      9  C   UNL     1       0.790   3.544  20.036  0.00  0.00    +0.000 C 
ATOM     10  C   UNL     1       2.165   4.075  20.418  0.00  0.00    +0.000 C 
ATOM     11  C   UNL     1       3.228   5.342  18.474  0.00  0.00    +0.000 C 
ATOM     12  O   UNL     1       2.372   6.106  18.043  0.00  0.00    +0.000 OA
ATOM     13  H   UNL     1       4.660   2.665  19.693  0.00  0.00    +0.000 HD
ENDBRANCH   1   2
BRANCH   1  15
ATOM     14  O   UNL     1       4.798   7.196  15.408  0.00  0.00    +0.000 OA
ATOM     15  C   UNL     1       5.298   6.430  16.228  0.00  0.00    +0.000 C 
ATOM     16  N   UNL     1       5.956   5.244  15.925  0.00  0.00    +0.000 N 
ATOM     17  H   UNL     1       6.008   4.554  16.672  0.00  0.00    +0.000 HD
BRANCH  16  18
ATOM     18  C   UNL     1       6.368   4.818  14.643  0.00  0.00    +0.000 A 
ATOM     19  C   UNL     1       7.491   5.333  13.984  0.00  0.00    +0.000 A 
ATOM     20  C   UNL     1       7.836   4.880  12.705  0.00  0.00    +0.000 A 
ATOM     21  C   UNL     1       7.061   3.907  12.088  0.00  0.00    +0.000 A 
ATOM     22  F   UNL     1       7.380   3.489  10.856  0.00  0.00    +0.000 F 
ATOM     23  C   UNL     1       5.961   3.362  12.735  0.00  0.00    +0.000 A 
ATOM     24  C   UNL     1       5.620   3.809  14.018  0.00  0.00    +0.000 A 
ENDBRANCH  16  18
ENDBRANCH   1  15
TORSDOF 3
ENDMDL
MODEL 5
REMARK VINA RESULT:      -7.8      4.963      6.463
REMARK  Name = 
REMARK  3 active torsions:
REMARK  status: ('A' for Active; 'I' for Inactive)
REMARK    1  A    between atoms: C_2  and  C_3
REMARK    2  A    between atoms: C_3  and  N_4
REMARK    3  A    between atoms: N_15  and  C_16
REMARK                            x       y       z     vdW  Elec       q    Type
REMARK                         _______ _______ _______ _____ _____    ______ ____
ROOT
ATOM      1  C   UNL     1       7.332   7.142  16.967  0.00  0.00    +0.000 C 
ENDROOT
BRANCH   1   2
ATOM      2  N   UNL     1       6.563   6.048  17.515  0.00  0.00    +0.000 N 
ATOM      3  C   UNL     1       7.029   4.784  17.686  0.00  0.00    +0.000 C 
ATOM      4  O   UNL     1       8.149   4.362  17.458  0.00  0.00    +0.000 OA
ATOM      5  N   UNL     1       5.989   3.984  18.106  0.00  0.00    +0.000 N 
ATOM      6  C   UNL     1       4.730   4.685  18.130  0.00  0.00    +0.000 C 
ATOM      7  C   UNL     1       3.703   4.102  17.150  0.00  0.00    +0.000 C 
ATOM      8  C   UNL     1       2.559   3.601  18.027  0.00  0.00    +0.000 C 
ATOM      9  C   UNL     1       2.591   4.526  19.233  0.00  0.00    +0.000 C 
ATOM     10  C   UNL     1       4.080   4.681  19.514  0.00  0.00    +0.000 C 
ATOM     11  C   UNL     1       5.211   6.087  17.709  0.00  0.00    +0.000 C 
ATOM     12  O   UNL     1       4.509   7.080  17.547  0.00  0.00    +0.000 OA
ATOM     13  H   UNL     1       6.118   2.985  18.208  0.00  0.00    +0.000 HD
ENDBRANCH   1   2
BRANCH   1  15
ATOM     14  O   UNL     1       8.553   7.289  19.038  0.00  0.00    +0.000 OA
ATOM     15  C   UNL     1       8.121   7.880  18.052  0.00  0.00    +0.000 C 
ATOM     16  N   UNL     1       8.224   9.247  17.822  0.00  0.00    +0.000 N 
ATOM     17  H   UNL     1       7.547   9.648  17.176  0.00  0.00    +0.000 HD
BRANCH  16  18
ATOM     18  C   UNL     1       9.025  10.160  18.544  0.00  0.00    +0.000 A 
ATOM     19  C   UNL     1       8.996  10.275  19.939  0.00  0.00    +0.000 A 
ATOM     20  C   UNL     1       9.804  11.213  20.592  0.00  0.00    +0.000 A 
ATOM     21  C   UNL     1      10.645  12.032  19.851  0.00  0.00    +0.000 A 
ATOM     22  F   UNL     1      11.403  12.943  20.476  0.00  0.00    +0.000 F 
ATOM     23  C   UNL     1      10.711  11.914  18.469  0.00  0.00    +0.000 A 
ATOM     24  C   UNL     1       9.909  10.971  17.816  0.00  0.00    +0.000 A 
ENDBRANCH  16  18
ENDBRANCH   1  15
TORSDOF 3
ENDMDL
MODEL 6
REMARK VINA RESULT:      -7.6      1.265      1.687
REMARK  Name = 
REMARK  3 active torsions:
REMARK  status: ('A' for Active; 'I' for Inactive)
REMARK    1  A    between atoms: C_2  and  C_3
REMARK    2  A    between atoms: C_3  and  N_4
REMARK    3  A    between atoms: N_15  and  C_16
REMARK                            x       y       z     vdW  Elec       q    Type
REMARK                         _______ _______ _______ _____ _____    ______ ____
ROOT
ATOM      1  C   UNL     1       5.255   6.294  17.846  0.00  0.00    +0.000 C 
ENDROOT
BRANCH   1   2
ATOM      2  N   UNL     1       3.970   5.839  18.327  0.00  0.00    +0.000 N 
ATOM      3  C   UNL     1       2.915   6.648  18.602  0.00  0.00    +0.000 C 
ATOM      4  O   UNL     1       2.842   7.856  18.461  0.00  0.00    +0.000 OA
ATOM      5  N   UNL     1       1.910   5.887  19.159  0.00  0.00    +0.000 N 
ATOM      6  C   UNL     1       2.311   4.520  19.378  0.00  0.00    +0.000 C 
ATOM      7  C   UNL     1       2.311   4.130  20.863  0.00  0.00    +0.000 C 
ATOM      8  C   UNL     1       1.261   3.029  20.983  0.00  0.00    +0.000 C 
ATOM      9  C   UNL     1       1.286   2.351  19.622  0.00  0.00    +0.000 C 
ATOM     10  C   UNL     1       1.412   3.519  18.653  0.00  0.00    +0.000 C 
ATOM     11  C   UNL     1       3.732   4.573  18.786  0.00  0.00    +0.000 C 
ATOM     12  O   UNL     1       4.539   3.651  18.745  0.00  0.00    +0.000 OA
ATOM     13  H   UNL     1       1.068   6.327  19.511  0.00  0.00    +0.000 HD
ENDBRANCH   1   2
BRANCH   1  15
ATOM     14  O   UNL     1       5.006   7.082  15.584  0.00  0.00    +0.000 OA
ATOM     15  C   UNL     1       5.367   6.171  16.325  0.00  0.00    +0.000 C 
ATOM     16  N   UNL     1       5.845   4.935  15.908  0.00  0.00    +0.000 N 
ATOM     17  H   UNL     1       5.776   4.174  16.581  0.00  0.00    +0.000 HD
BRANCH  16  18
ATOM     18  C   UNL     1       6.216   4.580  14.591  0.00  0.00    +0.000 A 
ATOM     19  C   UNL     1       5.473   3.706  13.790  0.00  0.00    +0.000 A 
ATOM     20  C   UNL     1       5.905   3.382  12.498  0.00  0.00    +0.000 A 
ATOM     21  C   UNL     1       7.078   3.938  12.006  0.00  0.00    +0.000 A 
ATOM     22  F   UNL     1       7.502   3.611  10.778  0.00  0.00    +0.000 F 
ATOM     23  C   UNL     1       7.815   4.830  12.773  0.00  0.00    +0.000 A 
ATOM     24  C   UNL     1       7.379   5.160  14.062  0.00  0.00    +0.000 A 
ENDBRANCH  16  18
ENDBRANCH   1  15
TORSDOF 3
ENDMDL
MODEL 7
REMARK VINA RESULT:      -7.6      3.085      7.107
REMARK  Name = 
REMARK  3 active torsions:
REMARK  status: ('A' for Active; 'I' for Inactive)
REMARK    1  A    between atoms: C_2  and  C_3
REMARK    2  A    between atoms: C_3  and  N_4
REMARK    3  A    between atoms: N_15  and  C_16
REMARK                            x       y       z     vdW  Elec       q    Type
REMARK                         _______ _______ _______ _____ _____    ______ ____
ROOT
ATOM      1  C   UNL     1       5.945   6.348  17.585  0.00  0.00    +0.000 C 
ENDROOT
BRANCH   1   2
ATOM      2  N   UNL     1       6.386   5.468  16.526  0.00  0.00    +0.000 N 
ATOM      3  C   UNL     1       7.420   4.595  16.625  0.00  0.00    +0.000 C 
ATOM      4  O   UNL     1       8.117   4.368  17.598  0.00  0.00    +0.000 OA
ATOM      5  N   UNL     1       7.633   4.023  15.390  0.00  0.00    +0.000 N 
ATOM      6  C   UNL     1       6.790   4.588  14.367  0.00  0.00    +0.000 C 
ATOM      7  C   UNL     1       7.585   5.300  13.265  0.00  0.00    +0.000 C 
ATOM      8  C   UNL     1       7.285   4.514  11.991  0.00  0.00    +0.000 C 
ATOM      9  C   UNL     1       5.886   3.967  12.220  0.00  0.00    +0.000 C 
ATOM     10  C   UNL     1       5.913   3.540  13.681  0.00  0.00    +0.000 C 
ATOM     11  C   UNL     1       5.971   5.570  15.227  0.00  0.00    +0.000 C 
ATOM     12  O   UNL     1       5.105   6.340  14.828  0.00  0.00    +0.000 OA
ATOM     13  H   UNL     1       8.421   3.403  15.240  0.00  0.00    +0.000 HD
ENDBRANCH   1   2
BRANCH   1  15
ATOM     14  O   UNL     1       6.029   5.486  19.832  0.00  0.00    +0.000 OA
ATOM     15  C   UNL     1       5.397   5.567  18.781  0.00  0.00    +0.000 C 
ATOM     16  N   UNL     1       4.187   4.937  18.518  0.00  0.00    +0.000 N 
ATOM     17  H   UNL     1       3.955   4.799  17.537  0.00  0.00    +0.000 HD
BRANCH  16  18
ATOM     18  C   UNL     1       3.357   4.290  19.460  0.00  0.00    +0.000 A 
ATOM     19  C   UNL     1       3.702   3.093  20.098  0.00  0.00    +0.000 A 
ATOM     20  C   UNL     1       2.826   2.494  21.011  0.00  0.00    +0.000 A 
ATOM     21  C   UNL     1       1.606   3.095  21.290  0.00  0.00    +0.000 A 
ATOM     22  F   UNL     1       0.759   2.511  22.147  0.00  0.00    +0.000 F 
ATOM     23  C   UNL     1       1.256   4.298  20.690  0.00  0.00    +0.000 A 
ATOM     24  C   UNL     1       2.136   4.901  19.784  0.00  0.00    +0.000 A 
ENDBRANCH  16  18
ENDBRANCH   1  15
TORSDOF 3
ENDMDL
MODEL 8
REMARK VINA RESULT:      -7.6      4.920      6.379
REMARK  Name = 
REMARK  3 active torsions:
REMARK  status: ('A' for Active; 'I' for Inactive)
REMARK    1  A    between atoms: C_2  and  C_3
REMARK    2  A    between atoms: C_3  and  N_4
REMARK    3  A    between atoms: N_15  and  C_16
REMARK                            x       y       z     vdW  Elec       q    Type
REMARK                         _______ _______ _______ _____ _____    ______ ____
ROOT
ATOM      1  C   UNL     1       7.354   7.028  16.982  0.00  0.00    +0.000 C 
ENDROOT
BRANCH   1   2
ATOM      2  N   UNL     1       6.566   5.969  17.569  0.00  0.00    +0.000 N 
ATOM      3  C   UNL     1       7.022   4.716  17.827  0.00  0.00    +0.000 C 
ATOM      4  O   UNL     1       8.147   4.280  17.657  0.00  0.00    +0.000 OA
ATOM      5  N   UNL     1       5.967   3.944  18.261  0.00  0.00    +0.000 N 
ATOM      6  C   UNL     1       4.710   4.648  18.208  0.00  0.00    +0.000 C 
ATOM      7  C   UNL     1       3.711   4.010  17.233  0.00  0.00    +0.000 C 
ATOM      8  C   UNL     1       2.539   3.564  18.103  0.00  0.00    +0.000 C 
ATOM      9  C   UNL     1       2.540   4.557  19.254  0.00  0.00    +0.000 C 
ATOM     10  C   UNL     1       4.020   4.725  19.570  0.00  0.00    +0.000 C 
ATOM     11  C   UNL     1       5.209   6.022  17.721  0.00  0.00    +0.000 C 
ATOM     12  O   UNL     1       4.516   7.005  17.481  0.00  0.00    +0.000 OA
ATOM     13  H   UNL     1       6.090   2.952  18.425  0.00  0.00    +0.000 HD
ENDBRANCH   1   2
BRANCH   1  15
ATOM     14  O   UNL     1       8.558   7.264  19.054  0.00  0.00    +0.000 OA
ATOM     15  C   UNL     1       8.129   7.814  18.042  0.00  0.00    +0.000 C 
ATOM     16  N   UNL     1       8.224   9.171  17.761  0.00  0.00    +0.000 N 
ATOM     17  H   UNL     1       7.549   9.542  17.095  0.00  0.00    +0.000 HD
BRANCH  16  18
ATOM     18  C   UNL     1       9.012  10.118  18.453  0.00  0.00    +0.000 A 
ATOM     19  C   UNL     1       9.876  11.016  17.814  0.00  0.00    +0.000 A 
ATOM     20  C   UNL     1      10.643  11.918  18.560  0.00  0.00    +0.000 A 
ATOM     21  C   UNL     1      10.543  11.926  19.945  0.00  0.00    +0.000 A 
ATOM     22  F   UNL     1      11.293  12.775  20.659  0.00  0.00    +0.000 F 
ATOM     23  C   UNL     1       9.672  11.063  20.597  0.00  0.00    +0.000 A 
ATOM     24  C   UNL     1       8.898  10.166  19.850  0.00  0.00    +0.000 A 
ENDBRANCH  16  18
ENDBRANCH   1  15
TORSDOF 3
ENDMDL
MODEL 9
REMARK VINA RESULT:      -7.6      2.978      6.595
REMARK  Name = 
REMARK  3 active torsions:
REMARK  status: ('A' for Active; 'I' for Inactive)
REMARK    1  A    between atoms: C_2  and  C_3
REMARK    2  A    between atoms: C_3  and  N_4
REMARK    3  A    between atoms: N_15  and  C_16
REMARK                            x       y       z     vdW  Elec       q    Type
REMARK                         _______ _______ _______ _____ _____    ______ ____
ROOT
ATOM      1  C   UNL     1       6.896   6.313  18.145  0.00  0.00    +0.000 C 
ENDROOT
BRANCH   1   2
ATOM      2  N   UNL     1       6.487   6.098  16.775  0.00  0.00    +0.000 N 
ATOM      3  C   UNL     1       5.395   6.661  16.196  0.00  0.00    +0.000 C 
ATOM      4  O   UNL     1       4.611   7.452  16.689  0.00  0.00    +0.000 OA
ATOM      5  N   UNL     1       5.245   6.132  14.933  0.00  0.00    +0.000 N 
ATOM      6  C   UNL     1       6.200   5.089  14.655  0.00  0.00    +0.000 C 
ATOM      7  C   UNL     1       5.539   3.724  14.416  0.00  0.00    +0.000 C 
ATOM      8  C   UNL     1       5.889   3.363  12.975  0.00  0.00    +0.000 C 
ATOM      9  C   UNL     1       7.229   4.041  12.743  0.00  0.00    +0.000 C 
ATOM     10  C   UNL     1       7.061   5.390  13.428  0.00  0.00    +0.000 C 
ATOM     11  C   UNL     1       7.007   5.127  15.966  0.00  0.00    +0.000 C 
ATOM     12  O   UNL     1       7.949   4.400  16.264  0.00  0.00    +0.000 OA
ATOM     13  H   UNL     1       4.434   6.365  14.372  0.00  0.00    +0.000 HD
ENDBRANCH   1   2
BRANCH   1  15
ATOM     14  O   UNL     1       6.713   4.899  20.085  0.00  0.00    +0.000 OA
ATOM     15  C   UNL     1       6.149   5.392  19.111  0.00  0.00    +0.000 C 
ATOM     16  N   UNL     1       4.836   5.144  18.730  0.00  0.00    +0.000 N 
ATOM     17  H   UNL     1       4.609   5.322  17.754  0.00  0.00    +0.000 HD
BRANCH  16  18
ATOM     18  C   UNL     1       3.852   4.478  19.496  0.00  0.00    +0.000 A 
ATOM     19  C   UNL     1       3.846   3.094  19.708  0.00  0.00    +0.000 A 
ATOM     20  C   UNL     1       2.832   2.494  20.463  0.00  0.00    +0.000 A 
ATOM     21  C   UNL     1       1.827   3.279  21.012  0.00  0.00    +0.000 A 
ATOM     22  F   UNL     1       0.845   2.702  21.717  0.00  0.00    +0.000 F 
ATOM     23  C   UNL     1       1.830   4.657  20.838  0.00  0.00    +0.000 A 
ATOM     24  C   UNL     1       2.849   5.258  20.090  0.00  0.00    +0.000 A 
ENDBRANCH  16  18
ENDBRANCH   1  15
TORSDOF 3
ENDMDL
