MODEL 1
REMARK VINA RESULT:      -7.8      0.000      0.000
REMARK  Name = 
REMARK  7 active torsions:
REMARK  status: ('A' for Active; 'I' for Inactive)
REMARK    1  A    between atoms: C_1  and  C_2
REMARK    2  A    between atoms: C_7  and  C_8
REMARK    3  A    between atoms: C_8  and  N_9
REMARK    4  A    between atoms: C_15  and  C_16
REMARK    5  A    between atoms: C_17  and  C_18
REMARK    6  A    between atoms: N_20  and  C_21
REMARK    7  A    between atoms: C_27  and  C_28
REMARK                            x       y       z     vdW  Elec       q    Type
REMARK                         _______ _______ _______ _____ _____    ______ ____
ROOT
ATOM      1  N   UNL     1      -0.459  10.453  19.154  0.00  0.00    +0.000 NA
ATOM      2  C   UNL     1      -0.082  11.858  18.976  0.00  0.00    +0.000 C 
ATOM      3  C   UNL     1       0.295  12.655  20.226  0.00  0.00    +0.000 C 
ATOM      4  N   UNL     1       0.885  11.881  21.280  0.00  0.00    +0.000 N 
ATOM      5  C   UNL     1       0.898  10.508  21.330  0.00  0.00    +0.000 C 
ATOM      6  O   UNL     1       1.398   9.977  22.325  0.00  0.00    +0.000 OA
ATOM      7  C   UNL     1       0.319   9.686  20.153  0.00  0.00    +0.000 C 
ATOM      8  H   UNL     1       1.257  12.339  22.099  0.00  0.00    +0.000 HD
ENDROOT
BRANCH   7   9
ATOM      9  C   UNL     1       1.352   8.864  19.407  0.00  0.00    +0.000 A 
ATOM     10  C   UNL     1       2.179   9.249  18.314  0.00  0.00    +0.000 A 
ATOM     11  C   UNL     1       2.286  10.559  17.619  0.00  0.00    +0.000 C 
ATOM     12  N   UNL     1       2.963   8.250  17.893  0.00  0.00    +0.000 NA
ATOM     13  N   UNL     1       2.586   7.173  18.605  0.00  0.00    +0.000 N 
ATOM     14  C   UNL     1       1.753   7.544  19.658  0.00  0.00    +0.000 A 
ATOM     15  C   UNL     1       1.483   6.663  20.827  0.00  0.00    +0.000 C 
BRANCH  13  16
ATOM     16  C   UNL     1       3.071   5.878  18.241  0.00  0.00    +0.000 A 
ATOM     17  C   UNL     1       2.169   4.885  17.831  0.00  0.00    +0.000 A 
ATOM     18  C   UNL     1       2.635   3.634  17.405  0.00  0.00    +0.000 A 
ATOM     19  C   UNL     1       4.000   3.353  17.414  0.00  0.00    +0.000 A 
ATOM     20  C   UNL     1       4.901   4.307  17.879  0.00  0.00    +0.000 A 
ATOM     21  C   UNL     1       4.439   5.560  18.301  0.00  0.00    +0.000 A 
ENDBRANCH  13  16
ENDBRANCH   7   9
BRANCH   1  22
ATOM     22  C   UNL     1      -1.899  10.186  19.193  0.00  0.00    +0.000 C 
BRANCH  22  29
ATOM     23  C   UNL     1      -4.337  12.060  18.925  0.00  0.00    +0.000 C 
ATOM     24  C   UNL     1      -3.764  11.266  17.782  0.00  0.00    +0.000 A 
ATOM     25  C   UNL     1      -4.466  11.283  16.564  0.00  0.00    +0.000 A 
ATOM     26  C   UNL     1      -3.962  10.641  15.433  0.00  0.00    +0.000 A 
ATOM     27  C   UNL     1      -2.725  10.009  15.489  0.00  0.00    +0.000 A 
ATOM     28  C   UNL     1      -2.028   9.957  16.695  0.00  0.00    +0.000 A 
ATOM     29  C   UNL     1      -2.561  10.532  17.866  0.00  0.00    +0.000 A 
ENDBRANCH  22  29
ENDBRANCH   1  22
TORSDOF 4
ENDMDL
MODEL 2
REMARK VINA RESULT:      -7.4      3.227      7.985
REMARK  Name = 
REMARK  7 active torsions:
REMARK  status: ('A' for Active; 'I' for Inactive)
REMARK    1  A    between atoms: C_1  and  C_2
REMARK    2  A    between atoms: C_7  and  C_8
REMARK    3  A    between atoms: C_8  and  N_9
REMARK    4  A    between atoms: C_15  and  C_16
REMARK    5  A    between atoms: C_17  and  C_18
REMARK    6  A    between atoms: N_20  and  C_21
REMARK    7  A    between atoms: C_27  and  C_28
REMARK                            x       y       z     vdW  Elec       q    Type
REMARK                         _______ _______ _______ _____ _____    ______ ____
ROOT
ATOM      1  N   UNL     1       5.384   4.410  18.547  0.00  0.00    +0.000 NA
ATOM      2  C   UNL     1       6.827   4.599  18.724  0.00  0.00    +0.000 C 
ATOM      3  C   UNL     1       7.728   4.351  17.513  0.00  0.00    +0.000 C 
ATOM      4  N   UNL     1       7.119   4.620  16.243  0.00  0.00    +0.000 N 
ATOM      5  C   UNL     1       5.774   4.831  16.048  0.00  0.00    +0.000 C 
ATOM      6  O   UNL     1       5.385   5.001  14.890  0.00  0.00    +0.000 OA
ATOM      7  C   UNL     1       4.814   4.870  17.261  0.00  0.00    +0.000 C 
ATOM      8  H   UNL     1       7.669   4.582  15.397  0.00  0.00    +0.000 HD
ENDROOT
BRANCH   7   9
ATOM      9  C   UNL     1       4.171   6.223  17.495  0.00  0.00    +0.000 A 
ATOM     10  C   UNL     1       4.770   7.514  17.464  0.00  0.00    +0.000 A 
ATOM     11  C   UNL     1       6.175   7.902  17.171  0.00  0.00    +0.000 C 
ATOM     12  N   UNL     1       3.896   8.488  17.740  0.00  0.00    +0.000 NA
ATOM     13  N   UNL     1       2.753   7.861  18.074  0.00  0.00    +0.000 N 
ATOM     14  C   UNL     1       2.822   6.507  17.754  0.00  0.00    +0.000 A 
ATOM     15  C   UNL     1       1.618   5.638  17.644  0.00  0.00    +0.000 C 
BRANCH  13  16
ATOM     16  C   UNL     1       1.676   8.607  18.646  0.00  0.00    +0.000 A 
ATOM     17  C   UNL     1       1.414   8.512  20.021  0.00  0.00    +0.000 A 
ATOM     18  C   UNL     1       0.408   9.291  20.608  0.00  0.00    +0.000 A 
ATOM     19  C   UNL     1      -0.366  10.145  19.824  0.00  0.00    +0.000 A 
ATOM     20  C   UNL     1      -0.159  10.201  18.449  0.00  0.00    +0.000 A 
ATOM     21  C   UNL     1       0.850   9.428  17.859  0.00  0.00    +0.000 A 
ENDBRANCH  13  16
ENDBRANCH   7   9
BRANCH   1  22
ATOM     22  C   UNL     1       4.856   3.121  19.001  0.00  0.00    +0.000 C 
BRANCH  22  29
ATOM     23  C   UNL     1       2.385   1.376  18.386  0.00  0.00    +0.000 C 
ATOM     24  C   UNL     1       2.352   2.583  19.285  0.00  0.00    +0.000 A 
ATOM     25  C   UNL     1       1.098   3.007  19.756  0.00  0.00    +0.000 A 
ATOM     26  C   UNL     1       0.988   4.066  20.657  0.00  0.00    +0.000 A 
ATOM     27  C   UNL     1       2.134   4.689  21.137  0.00  0.00    +0.000 A 
ATOM     28  C   UNL     1       3.384   4.302  20.659  0.00  0.00    +0.000 A 
ATOM     29  C   UNL     1       3.507   3.288  19.689  0.00  0.00    +0.000 A 
ENDBRANCH  22  29
ENDBRANCH   1  22
TORSDOF 4
ENDMDL
MODEL 3
REMARK VINA RESULT:      -7.3      4.202      7.288
REMARK  Name = 
REMARK  7 active torsions:
REMARK  status: ('A' for Active; 'I' for Inactive)
REMARK    1  A    between atoms: C_1  and  C_2
REMARK    2  A    between atoms: C_7  and  C_8
REMARK    3  A    between atoms: C_8  and  N_9
REMARK    4  A    between atoms: C_15  and  C_16
REMARK    5  A    between atoms: C_17  and  C_18
REMARK    6  A    between atoms: N_20  and  C_21
REMARK    7  A    between atoms: C_27  and  C_28
REMARK                            x       y       z     vdW  Elec       q    Type
REMARK                         _______ _______ _______ _____ _____    ______ ____
ROOT
ATOM      1  N   UNL     1      -2.508  12.419  22.725  0.00  0.00    +0.000 NA
ATOM      2  C   UNL     1      -3.500  12.248  23.790  0.00  0.00    +0.000 C 
ATOM      3  C   UNL     1      -4.112  13.511  24.399  0.00  0.00    +0.000 C 
ATOM      4  N   UNL     1      -4.204  14.628  23.504  0.00  0.00    +0.000 N 
ATOM      5  C   UNL     1      -3.580  14.706  22.282  0.00  0.00    +0.000 C 
ATOM      6  O   UNL     1      -3.708  15.753  21.641  0.00  0.00    +0.000 OA
ATOM      7  C   UNL     1      -2.773  13.499  21.747  0.00  0.00    +0.000 C 
ATOM      8  H   UNL     1      -4.685  15.469  23.789  0.00  0.00    +0.000 HD
ENDROOT
BRANCH   7   9
ATOM      9  C   UNL     1      -3.363  12.865  20.503  0.00  0.00    +0.000 A 
ATOM     10  C   UNL     1      -4.702  12.448  20.263  0.00  0.00    +0.000 A 
ATOM     11  C   UNL     1      -5.898  12.538  21.142  0.00  0.00    +0.000 C 
ATOM     12  N   UNL     1      -4.857  11.908  19.049  0.00  0.00    +0.000 NA
ATOM     13  N   UNL     1      -3.621  11.845  18.523  0.00  0.00    +0.000 N 
ATOM     14  C   UNL     1      -2.721  12.585  19.287  0.00  0.00    +0.000 A 
ATOM     15  C   UNL     1      -1.393  13.024  18.778  0.00  0.00    +0.000 C 
BRANCH  13  16
ATOM     16  C   UNL     1      -3.399  11.108  17.318  0.00  0.00    +0.000 A 
ATOM     17  C   UNL     1      -2.488  10.041  17.310  0.00  0.00    +0.000 A 
ATOM     18  C   UNL     1      -2.313   9.266  16.157  0.00  0.00    +0.000 A 
ATOM     19  C   UNL     1      -3.019   9.566  14.993  0.00  0.00    +0.000 A 
ATOM     20  C   UNL     1      -3.878  10.662  14.969  0.00  0.00    +0.000 A 
ATOM     21  C   UNL     1      -4.060  11.436  16.121  0.00  0.00    +0.000 A 
ENDBRANCH  13  16
ENDBRANCH   7   9
BRANCH   1  22
ATOM     22  C   UNL     1      -1.108  12.333  23.147  0.00  0.00    +0.000 C 
BRANCH  22  29
ATOM     23  C   UNL     1       1.016  12.602  20.923  0.00  0.00    +0.000 C 
ATOM     24  C   UNL     1       0.447  11.286  21.380  0.00  0.00    +0.000 A 
ATOM     25  C   UNL     1       0.809  10.136  20.657  0.00  0.00    +0.000 A 
ATOM     26  C   UNL     1       0.392   8.869  21.063  0.00  0.00    +0.000 A 
ATOM     27  C   UNL     1      -0.358   8.726  22.224  0.00  0.00    +0.000 A 
ATOM     28  C   UNL     1      -0.752   9.856  22.938  0.00  0.00    +0.000 A 
ATOM     29  C   UNL     1      -0.406  11.149  22.498  0.00  0.00    +0.000 A 
ENDBRANCH  22  29
ENDBRANCH   1  22
TORSDOF 4
ENDMDL
MODEL 4
REMARK VINA RESULT:      -7.3      3.140      7.945
REMARK  Name = 
REMARK  7 active torsions:
REMARK  status: ('A' for Active; 'I' for Inactive)
REMARK    1  A    between atoms: C_1  and  C_2
REMARK    2  A    between atoms: C_7  and  C_8
REMARK    3  A    between atoms: C_8  and  N_9
REMARK    4  A    between atoms: C_15  and  C_16
REMARK    5  A    between atoms: C_17  and  C_18
REMARK    6  A    between atoms: N_20  and  C_21
REMARK    7  A    between atoms: C_27  and  C_28
REMARK                            x       y       z     vdW  Elec       q    Type
REMARK                         _______ _______ _______ _____ _____    ______ ____
ROOT
ATOM      1  N   UNL     1       5.393   4.498  18.912  0.00  0.00    +0.000 NA
ATOM      2  C   UNL     1       6.843   4.711  18.914  0.00  0.00    +0.000 C 
ATOM      3  C   UNL     1       7.627   4.275  17.676  0.00  0.00    +0.000 C 
ATOM      4  N   UNL     1       6.894   4.341  16.444  0.00  0.00    +0.000 N 
ATOM      5  C   UNL     1       5.534   4.518  16.351  0.00  0.00    +0.000 C 
ATOM      6  O   UNL     1       5.032   4.504  15.224  0.00  0.00    +0.000 OA
ATOM      7  C   UNL     1       4.695   4.749  17.631  0.00  0.00    +0.000 C 
ATOM      8  H   UNL     1       7.360   4.169  15.565  0.00  0.00    +0.000 HD
ENDROOT
BRANCH   7   9
ATOM      9  C   UNL     1       4.057   6.123  17.711  0.00  0.00    +0.000 A 
ATOM     10  C   UNL     1       4.658   7.399  17.520  0.00  0.00    +0.000 A 
ATOM     11  C   UNL     1       6.060   7.745  17.165  0.00  0.00    +0.000 C 
ATOM     12  N   UNL     1       3.789   8.401  17.689  0.00  0.00    +0.000 NA
ATOM     13  N   UNL     1       2.650   7.822  18.109  0.00  0.00    +0.000 N 
ATOM     14  C   UNL     1       2.712   6.439  17.951  0.00  0.00    +0.000 A 
ATOM     15  C   UNL     1       1.506   5.567  17.960  0.00  0.00    +0.000 C 
BRANCH  13  16
ATOM     16  C   UNL     1       1.581   8.634  18.602  0.00  0.00    +0.000 A 
ATOM     17  C   UNL     1       1.325   8.690  19.980  0.00  0.00    +0.000 A 
ATOM     18  C   UNL     1       0.328   9.535  20.484  0.00  0.00    +0.000 A 
ATOM     19  C   UNL     1      -0.443  10.307  19.617  0.00  0.00    +0.000 A 
ATOM     20  C   UNL     1      -0.242  10.213  18.242  0.00  0.00    +0.000 A 
ATOM     21  C   UNL     1       0.758   9.374  17.735  0.00  0.00    +0.000 A 
ENDBRANCH  13  16
ENDBRANCH   7   9
BRANCH   1  22
ATOM     22  C   UNL     1       4.930   3.297  19.612  0.00  0.00    +0.000 C 
BRANCH  22  29
ATOM     23  C   UNL     1       2.646   4.364  21.393  0.00  0.00    +0.000 C 
ATOM     24  C   UNL     1       2.437   3.403  20.253  0.00  0.00    +0.000 A 
ATOM     25  C   UNL     1       1.150   2.865  20.085  0.00  0.00    +0.000 A 
ATOM     26  C   UNL     1       0.852   2.032  19.007  0.00  0.00    +0.000 A 
ATOM     27  C   UNL     1       1.826   1.759  18.054  0.00  0.00    +0.000 A 
ATOM     28  C   UNL     1       3.117   2.258  18.219  0.00  0.00    +0.000 A 
ATOM     29  C   UNL     1       3.454   3.036  19.345  0.00  0.00    +0.000 A 
ENDBRANCH  22  29
ENDBRANCH   1  22
TORSDOF 4
ENDMDL
MODEL 5
REMARK VINA RESULT:      -7.2      8.174     10.169
REMARK  Name = 
REMARK  7 active torsions:
REMARK  status: ('A' for Active; 'I' for Inactive)
REMARK    1  A    between atoms: C_1  and  C_2
REMARK    2  A    between atoms: C_7  and  C_8
REMARK    3  A    between atoms: C_8  and  N_9
REMARK    4  A    between atoms: C_15  and  C_16
REMARK    5  A    between atoms: C_17  and  C_18
REMARK    6  A    between atoms: N_20  and  C_21
REMARK    7  A    between atoms: C_27  and  C_28
REMARK                            x       y       z     vdW  Elec       q    Type
REMARK                         _______ _______ _______ _____ _____    ______ ____
ROOT
ATOM      1  N   UNL     1       4.965  14.948  21.564  0.00  0.00    +0.000 NA
ATOM      2  C   UNL     1       3.633  14.776  20.977  0.00  0.00    +0.000 C 
ATOM      3  C   UNL     1       2.908  16.029  20.484  0.00  0.00    +0.000 C 
ATOM      4  N   UNL     1       3.767  17.080  20.019  0.00  0.00    +0.000 N 
ATOM      5  C   UNL     1       5.127  17.124  20.216  0.00  0.00    +0.000 C 
ATOM      6  O   UNL     1       5.732  18.117  19.803  0.00  0.00    +0.000 OA
ATOM      7  C   UNL     1       5.846  15.944  20.913  0.00  0.00    +0.000 C 
ATOM      8  H   UNL     1       3.375  17.901  19.583  0.00  0.00    +0.000 HD
ENDROOT
BRANCH   7   9
ATOM      9  C   UNL     1       6.812  15.194  20.016  0.00  0.00    +0.000 A 
ATOM     10  C   UNL     1       6.611  14.712  18.692  0.00  0.00    +0.000 A 
ATOM     11  C   UNL     1       5.420  14.829  17.810  0.00  0.00    +0.000 C 
ATOM     12  N   UNL     1       7.684  14.074  18.214  0.00  0.00    +0.000 NA
ATOM     13  N   UNL     1       8.553  14.014  19.239  0.00  0.00    +0.000 N 
ATOM     14  C   UNL     1       8.144  14.843  20.281  0.00  0.00    +0.000 A 
ATOM     15  C   UNL     1       9.057  15.287  21.370  0.00  0.00    +0.000 C 
BRANCH  13  16
ATOM     16  C   UNL     1       9.719  13.194  19.133  0.00  0.00    +0.000 A 
ATOM     17  C   UNL     1      10.364  13.054  17.895  0.00  0.00    +0.000 A 
ATOM     18  C   UNL     1      11.547  12.311  17.790  0.00  0.00    +0.000 A 
ATOM     19  C   UNL     1      12.079  11.675  18.910  0.00  0.00    +0.000 A 
ATOM     20  C   UNL     1      11.415  11.753  20.131  0.00  0.00    +0.000 A 
ATOM     21  C   UNL     1      10.235  12.499  20.242  0.00  0.00    +0.000 A 
ENDBRANCH  13  16
ENDBRANCH   7   9
BRANCH   1  22
ATOM     22  C   UNL     1       5.010  14.987  23.028  0.00  0.00    +0.000 C 
BRANCH  22  29
ATOM     23  C   UNL     1       7.014  15.839  25.215  0.00  0.00    +0.000 C 
ATOM     24  C   UNL     1       7.106  14.541  24.458  0.00  0.00    +0.000 A 
ATOM     25  C   UNL     1       8.244  13.745  24.672  0.00  0.00    +0.000 A 
ATOM     26  C   UNL     1       8.369  12.492  24.073  0.00  0.00    +0.000 A 
ATOM     27  C   UNL     1       7.337  11.995  23.285  0.00  0.00    +0.000 A 
ATOM     28  C   UNL     1       6.214  12.782  23.038  0.00  0.00    +0.000 A 
ATOM     29  C   UNL     1       6.108  14.082  23.571  0.00  0.00    +0.000 A 
ENDBRANCH  22  29
ENDBRANCH   1  22
TORSDOF 4
ENDMDL
MODEL 6
REMARK VINA RESULT:      -7.2      3.176      7.368
REMARK  Name = 
REMARK  7 active torsions:
REMARK  status: ('A' for Active; 'I' for Inactive)
REMARK    1  A    between atoms: C_1  and  C_2
REMARK    2  A    between atoms: C_7  and  C_8
REMARK    3  A    between atoms: C_8  and  N_9
REMARK    4  A    between atoms: C_15  and  C_16
REMARK    5  A    between atoms: C_17  and  C_18
REMARK    6  A    between atoms: N_20  and  C_21
REMARK    7  A    between atoms: C_27  and  C_28
REMARK                            x       y       z     vdW  Elec       q    Type
REMARK                         _______ _______ _______ _____ _____    ______ ____
ROOT
ATOM      1  N   UNL     1      -0.775  11.115  18.449  0.00  0.00    +0.000 NA
ATOM      2  C   UNL     1      -0.238   9.758  18.306  0.00  0.00    +0.000 C 
ATOM      3  C   UNL     1       1.195   9.612  17.792  0.00  0.00    +0.000 C 
ATOM      4  N   UNL     1       2.069  10.699  18.128  0.00  0.00    +0.000 N 
ATOM      5  C   UNL     1       1.657  11.909  18.633  0.00  0.00    +0.000 C 
ATOM      6  O   UNL     1       2.518  12.770  18.827  0.00  0.00    +0.000 OA
ATOM      7  C   UNL     1       0.162  12.141  18.959  0.00  0.00    +0.000 C 
ATOM      8  H   UNL     1       3.056  10.641  17.918  0.00  0.00    +0.000 HD
ENDROOT
BRANCH   7   9
ATOM      9  C   UNL     1      -0.125  12.339  20.435  0.00  0.00    +0.000 A 
ATOM     10  C   UNL     1       0.147  11.462  21.522  0.00  0.00    +0.000 A 
ATOM     11  C   UNL     1       0.807  10.130  21.526  0.00  0.00    +0.000 C 
ATOM     12  N   UNL     1      -0.265  11.961  22.693  0.00  0.00    +0.000 NA
ATOM     13  N   UNL     1      -0.916  13.098  22.391  0.00  0.00    +0.000 N 
ATOM     14  C   UNL     1      -0.688  13.459  21.064  0.00  0.00    +0.000 A 
ATOM     15  C   UNL     1      -0.943  14.829  20.541  0.00  0.00    +0.000 C 
BRANCH  13  16
ATOM     16  C   UNL     1      -1.680  13.767  23.397  0.00  0.00    +0.000 A 
ATOM     17  C   UNL     1      -1.071  14.738  24.205  0.00  0.00    +0.000 A 
ATOM     18  C   UNL     1      -1.822  15.452  25.147  0.00  0.00    +0.000 A 
ATOM     19  C   UNL     1      -3.180  15.182  25.314  0.00  0.00    +0.000 A 
ATOM     20  C   UNL     1      -3.782  14.176  24.563  0.00  0.00    +0.000 A 
ATOM     21  C   UNL     1      -3.035  13.464  23.616  0.00  0.00    +0.000 A 
ENDBRANCH  13  16
ENDBRANCH   7   9
BRANCH   1  22
ATOM     22  C   UNL     1      -1.617  11.579  17.343  0.00  0.00    +0.000 C 
BRANCH  22  29
ATOM     23  C   UNL     1      -3.849  10.614  15.442  0.00  0.00    +0.000 C 
ATOM     24  C   UNL     1      -4.109  11.241  16.786  0.00  0.00    +0.000 A 
ATOM     25  C   UNL     1      -5.445  11.519  17.125  0.00  0.00    +0.000 A 
ATOM     26  C   UNL     1      -5.779  12.023  18.381  0.00  0.00    +0.000 A 
ATOM     27  C   UNL     1      -4.788  12.216  19.336  0.00  0.00    +0.000 A 
ATOM     28  C   UNL     1      -3.455  11.974  19.009  0.00  0.00    +0.000 A 
ATOM     29  C   UNL     1      -3.092  11.540  17.719  0.00  0.00    +0.000 A 
ENDBRANCH  22  29
ENDBRANCH   1  22
TORSDOF 4
ENDMDL
MODEL 7
REMARK VINA RESULT:      -7.1      3.705      8.217
REMARK  Name = 
REMARK  7 active torsions:
REMARK  status: ('A' for Active; 'I' for Inactive)
REMARK    1  A    between atoms: C_1  and  C_2
REMARK    2  A    between atoms: C_7  and  C_8
REMARK    3  A    between atoms: C_8  and  N_9
REMARK    4  A    between atoms: C_15  and  C_16
REMARK    5  A    between atoms: C_17  and  C_18
REMARK    6  A    between atoms: N_20  and  C_21
REMARK    7  A    between atoms: C_27  and  C_28
REMARK                            x       y       z     vdW  Elec       q    Type
REMARK                         _______ _______ _______ _____ _____    ______ ____
ROOT
ATOM      1  N   UNL     1      -1.326  11.275  19.695  0.00  0.00    +0.000 NA
ATOM      2  C   UNL     1      -0.579  10.035  19.930  0.00  0.00    +0.000 C 
ATOM      3  C   UNL     1       0.917  10.152  20.222  0.00  0.00    +0.000 C 
ATOM      4  N   UNL     1       1.309  11.363  20.885  0.00  0.00    +0.000 N 
ATOM      5  C   UNL     1       0.507  12.469  21.034  0.00  0.00    +0.000 C 
ATOM      6  O   UNL     1       0.997  13.460  21.582  0.00  0.00    +0.000 OA
ATOM      7  C   UNL     1      -0.960  12.432  20.543  0.00  0.00    +0.000 C 
ATOM      8  H   UNL     1       2.259  11.482  21.206  0.00  0.00    +0.000 HD
ENDROOT
BRANCH   7   9
ATOM      9  C   UNL     1      -1.986  12.536  21.655  0.00  0.00    +0.000 A 
ATOM     10  C   UNL     1      -2.107  11.747  22.834  0.00  0.00    +0.000 A 
ATOM     11  C   UNL     1      -1.256  10.629  23.321  0.00  0.00    +0.000 C 
ATOM     12  N   UNL     1      -3.152  12.112  23.585  0.00  0.00    +0.000 NA
ATOM     13  N   UNL     1      -3.801  13.047  22.868  0.00  0.00    +0.000 N 
ATOM     14  C   UNL     1      -3.026  13.466  21.789  0.00  0.00    +0.000 A 
ATOM     15  C   UNL     1      -3.287  14.730  21.047  0.00  0.00    +0.000 C 
BRANCH  13  16
ATOM     16  C   UNL     1      -5.096  13.487  23.284  0.00  0.00    +0.000 A 
ATOM     17  C   UNL     1      -6.143  12.561  23.404  0.00  0.00    +0.000 A 
ATOM     18  C   UNL     1      -7.398  12.964  23.878  0.00  0.00    +0.000 A 
ATOM     19  C   UNL     1      -7.629  14.298  24.206  0.00  0.00    +0.000 A 
ATOM     20  C   UNL     1      -6.618  15.240  24.031  0.00  0.00    +0.000 A 
ATOM     21  C   UNL     1      -5.360  14.840  23.562  0.00  0.00    +0.000 A 
ENDBRANCH  13  16
ENDBRANCH   7   9
BRANCH   1  22
ATOM     22  C   UNL     1      -1.550  11.619  18.289  0.00  0.00    +0.000 C 
BRANCH  22  29
ATOM     23  C   UNL     1      -2.559  10.488  15.600  0.00  0.00    +0.000 C 
ATOM     24  C   UNL     1      -3.457  11.122  16.629  0.00  0.00    +0.000 A 
ATOM     25  C   UNL     1      -4.803  11.326  16.279  0.00  0.00    +0.000 A 
ATOM     26  C   UNL     1      -5.718  11.832  17.202  0.00  0.00    +0.000 A 
ATOM     27  C   UNL     1      -5.312  12.101  18.503  0.00  0.00    +0.000 A 
ATOM     28  C   UNL     1      -3.975  11.933  18.861  0.00  0.00    +0.000 A 
ATOM     29  C   UNL     1      -3.022  11.499  17.919  0.00  0.00    +0.000 A 
ENDBRANCH  22  29
ENDBRANCH   1  22
TORSDOF 4
ENDMDL
MODEL 8
REMARK VINA RESULT:      -7.1      3.209      5.262
REMARK  Name = 
REMARK  7 active torsions:
REMARK  status: ('A' for Active; 'I' for Inactive)
REMARK    1  A    between atoms: C_1  and  C_2
REMARK    2  A    between atoms: C_7  and  C_8
REMARK    3  A    between atoms: C_8  and  N_9
REMARK    4  A    between atoms: C_15  and  C_16
REMARK    5  A    between atoms: C_17  and  C_18
REMARK    6  A    between atoms: N_20  and  C_21
REMARK    7  A    between atoms: C_27  and  C_28
REMARK                            x       y       z     vdW  Elec       q    Type
REMARK                         _______ _______ _______ _____ _____    ______ ____
ROOT
ATOM      1  N   UNL     1      -0.930  14.664  21.101  0.00  0.00    +0.000 NA
ATOM      2  C   UNL     1      -0.626  15.429  19.889  0.00  0.00    +0.000 C 
ATOM      3  C   UNL     1       0.685  16.216  19.857  0.00  0.00    +0.000 C 
ATOM      4  N   UNL     1       1.750  15.647  20.632  0.00  0.00    +0.000 N 
ATOM      5  C   UNL     1       1.595  14.636  21.551  0.00  0.00    +0.000 C 
ATOM      6  O   UNL     1       2.593  14.281  22.183  0.00  0.00    +0.000 OA
ATOM      7  C   UNL     1       0.210  13.973  21.745  0.00  0.00    +0.000 C 
ATOM      8  H   UNL     1       2.678  16.042  20.589  0.00  0.00    +0.000 HD
ENDROOT
BRANCH   7   9
ATOM      9  C   UNL     1       0.162  12.514  21.334  0.00  0.00    +0.000 A 
ATOM     10  C   UNL     1      -0.583  11.448  21.912  0.00  0.00    +0.000 A 
ATOM     11  C   UNL     1      -1.536  11.464  23.054  0.00  0.00    +0.000 C 
ATOM     12  N   UNL     1      -0.363  10.281  21.297  0.00  0.00    +0.000 NA
ATOM     13  N   UNL     1       0.607  10.526  20.398  0.00  0.00    +0.000 N 
ATOM     14  C   UNL     1       0.814  11.897  20.257  0.00  0.00    +0.000 A 
ATOM     15  C   UNL     1       1.526  12.494  19.094  0.00  0.00    +0.000 C 
BRANCH  13  16
ATOM     16  C   UNL     1       1.240   9.436  19.723  0.00  0.00    +0.000 A 
ATOM     17  C   UNL     1       1.624   8.297  20.446  0.00  0.00    +0.000 A 
ATOM     18  C   UNL     1       2.181   7.192  19.788  0.00  0.00    +0.000 A 
ATOM     19  C   UNL     1       2.389   7.227  18.410  0.00  0.00    +0.000 A 
ATOM     20  C   UNL     1       2.072   8.376  17.691  0.00  0.00    +0.000 A 
ATOM     21  C   UNL     1       1.510   9.480  18.344  0.00  0.00    +0.000 A 
ENDBRANCH  13  16
ENDBRANCH   7   9
BRANCH   1  22
ATOM     22  C   UNL     1      -1.837  15.317  22.049  0.00  0.00    +0.000 C 
BRANCH  22  29
ATOM     23  C   UNL     1      -3.542  15.174  24.618  0.00  0.00    +0.000 C 
ATOM     24  C   UNL     1      -3.848  14.392  23.368  0.00  0.00    +0.000 A 
ATOM     25  C   UNL     1      -4.888  13.449  23.430  0.00  0.00    +0.000 A 
ATOM     26  C   UNL     1      -5.289  12.743  22.296  0.00  0.00    +0.000 A 
ATOM     27  C   UNL     1      -4.685  13.000  21.071  0.00  0.00    +0.000 A 
ATOM     28  C   UNL     1      -3.631  13.910  20.995  0.00  0.00    +0.000 A 
ATOM     29  C   UNL     1      -3.162  14.573  22.146  0.00  0.00    +0.000 A 
ENDBRANCH  22  29
ENDBRANCH   1  22
TORSDOF 4
ENDMDL
MODEL 9
REMARK VINA RESULT:      -7.0      1.815      2.982
REMARK  Name = 
REMARK  7 active torsions:
REMARK  status: ('A' for Active; 'I' for Inactive)
REMARK    1  A    between atoms: C_1  and  C_2
REMARK    2  A    between atoms: C_7  and  C_8
REMARK    3  A    between atoms: C_8  and  N_9
REMARK    4  A    between atoms: C_15  and  C_16
REMARK    5  A    between atoms: C_17  and  C_18
REMARK    6  A    between atoms: N_20  and  C_21
REMARK    7  A    between atoms: C_27  and  C_28
REMARK                            x       y       z     vdW  Elec       q    Type
REMARK                         _______ _______ _______ _____ _____    ______ ____
ROOT
ATOM      1  N   UNL     1      -1.096  12.063  19.741  0.00  0.00    +0.000 NA
ATOM      2  C   UNL     1      -0.756  12.651  18.442  0.00  0.00    +0.000 C 
ATOM      3  C   UNL     1       0.292  13.764  18.419  0.00  0.00    +0.000 C 
ATOM      4  N   UNL     1       1.286  13.678  19.451  0.00  0.00    +0.000 N 
ATOM      5  C   UNL     1       1.209  12.850  20.545  0.00  0.00    +0.000 C 
ATOM      6  O   UNL     1       2.115  12.920  21.379  0.00  0.00    +0.000 OA
ATOM      7  C   UNL     1       0.027  11.860  20.684  0.00  0.00    +0.000 C 
ATOM      8  H   UNL     1       2.072  14.311  19.453  0.00  0.00    +0.000 HD
ENDROOT
BRANCH   7   9
ATOM      9  C   UNL     1       0.433  10.401  20.616  0.00  0.00    +0.000 A 
ATOM     10  C   UNL     1       0.269   9.383  21.597  0.00  0.00    +0.000 A 
ATOM     11  C   UNL     1      -0.364   9.450  22.941  0.00  0.00    +0.000 C 
ATOM     12  N   UNL     1       0.770   8.208  21.199  0.00  0.00    +0.000 NA
ATOM     13  N   UNL     1       1.373   8.454  20.022  0.00  0.00    +0.000 N 
ATOM     14  C   UNL     1       1.028   9.717  19.546  0.00  0.00    +0.000 A 
ATOM     15  C   UNL     1       1.214  10.127  18.127  0.00  0.00    +0.000 C 
BRANCH  13  16
ATOM     16  C   UNL     1       2.207   7.455  19.431  0.00  0.00    +0.000 A 
ATOM     17  C   UNL     1       2.851   7.716  18.212  0.00  0.00    +0.000 A 
ATOM     18  C   UNL     1       3.727   6.776  17.655  0.00  0.00    +0.000 A 
ATOM     19  C   UNL     1       3.944   5.555  18.291  0.00  0.00    +0.000 A 
ATOM     20  C   UNL     1       3.261   5.256  19.468  0.00  0.00    +0.000 A 
ATOM     21  C   UNL     1       2.389   6.197  20.030  0.00  0.00    +0.000 A 
ENDBRANCH  13  16
ENDBRANCH   7   9
BRANCH   1  22
ATOM     22  C   UNL     1      -2.311  12.585  20.371  0.00  0.00    +0.000 C 
BRANCH  22  29
ATOM     23  C   UNL     1      -5.163  13.520  21.092  0.00  0.00    +0.000 C 
ATOM     24  C   UNL     1      -4.858  12.545  19.986  0.00  0.00    +0.000 A 
ATOM     25  C   UNL     1      -5.947  11.932  19.343  0.00  0.00    +0.000 A 
ATOM     26  C   UNL     1      -5.755  11.079  18.256  0.00  0.00    +0.000 A 
ATOM     27  C   UNL     1      -4.473  10.861  17.766  0.00  0.00    +0.000 A 
ATOM     28  C   UNL     1      -3.378  11.437  18.408  0.00  0.00    +0.000 A 
ATOM     29  C   UNL     1      -3.549  12.236  19.556  0.00  0.00    +0.000 A 
ENDBRANCH  22  29
ENDBRANCH   1  22
TORSDOF 4
ENDMDL
