MODEL 1
REMARK VINA RESULT:      -7.3      0.000      0.000
REMARK  Name = 
REMARK  6 active torsions:
REMARK  status: ('A' for Active; 'I' for Inactive)
REMARK    1  A    between atoms: C_1  and  C_2
REMARK    2  A    between atoms: C_6  and  C_7
REMARK    3  A    between atoms: C_9  and  O_10
REMARK    4  A    between atoms: C_11  and  C_12
REMARK    5  A    between atoms: C_12  and  C_13
REMARK    6  A    between atoms: C_12  and  C_14
REMARK                            x       y       z     vdW  Elec       q    Type
REMARK                         _______ _______ _______ _____ _____    ______ ____
ROOT
ATOM      1  C   UNL     1       5.286   3.747  12.927  0.00  0.00    +0.000 C 
ATOM      2  C   UNL     1       5.571   4.193  14.327  0.00  0.00    +0.000 C 
ATOM      3  C   UNL     1       4.803   3.882  15.380  0.00  0.00    +0.000 C 
ATOM      4  C   UNL     1       5.067   4.284  16.779  0.00  0.00    +0.000 A 
ATOM      5  C   UNL     1       6.177   5.141  17.054  0.00  0.00    +0.000 A 
ATOM      6  C   UNL     1       6.456   5.548  18.378  0.00  0.00    +0.000 A 
ATOM      7  C   UNL     1       7.582   6.439  18.840  0.00  0.00    +0.000 C 
ATOM      8  C   UNL     1       5.622   5.086  19.405  0.00  0.00    +0.000 A 
ATOM      9  C   UNL     1       4.550   4.235  19.148  0.00  0.00    +0.000 A 
ATOM     10  C   UNL     1       4.224   3.821  17.846  0.00  0.00    +0.000 A 
ATOM     11  C   UNL     1       7.031   5.581  15.906  0.00  0.00    +0.000 C 
ATOM     12  O   UNL     1       7.935   6.399  16.015  0.00  0.00    +0.000 OA
ATOM     13  C   UNL     1       6.778   5.009  14.529  0.00  0.00    +0.000 C 
ATOM     14  O   UNL     1       7.556   5.235  13.608  0.00  0.00    +0.000 OA
ENDROOT
BRANCH  10  15
ATOM     15  C   UNL     1       3.053   2.850  17.601  0.00  0.00    +0.000 C 
ATOM     16  C   UNL     1       3.347   1.485  18.233  0.00  0.00    +0.000 C 
ATOM     17  C   UNL     1       1.645   3.313  18.009  0.00  0.00    +0.000 C 
ENDBRANCH  10  15
BRANCH   9  18
ATOM     18  O   UNL     1       3.830   3.786  20.218  0.00  0.00    +0.000 OA
ATOM     19  H   UNL     1       4.177   4.176  21.037  0.00  0.00    +0.000 HD
ENDBRANCH   9  18
TORSDOF 2
ENDMDL
MODEL 2
REMARK VINA RESULT:      -6.9      2.916      4.556
REMARK  Name = 
REMARK  6 active torsions:
REMARK  status: ('A' for Active; 'I' for Inactive)
REMARK    1  A    between atoms: C_1  and  C_2
REMARK    2  A    between atoms: C_6  and  C_7
REMARK    3  A    between atoms: C_9  and  O_10
REMARK    4  A    between atoms: C_11  and  C_12
REMARK    5  A    between atoms: C_12  and  C_13
REMARK    6  A    between atoms: C_12  and  C_14
REMARK                            x       y       z     vdW  Elec       q    Type
REMARK                         _______ _______ _______ _____ _____    ______ ____
ROOT
ATOM      1  C   UNL     1       1.563   7.986  20.299  0.00  0.00    +0.000 C 
ATOM      2  C   UNL     1       2.287   7.008  19.427  0.00  0.00    +0.000 C 
ATOM      3  C   UNL     1       2.299   5.685  19.640  0.00  0.00    +0.000 C 
ATOM      4  C   UNL     1       2.981   4.688  18.786  0.00  0.00    +0.000 A 
ATOM      5  C   UNL     1       3.767   5.145  17.684  0.00  0.00    +0.000 A 
ATOM      6  C   UNL     1       4.437   4.220  16.850  0.00  0.00    +0.000 A 
ATOM      7  C   UNL     1       5.297   4.531  15.651  0.00  0.00    +0.000 C 
ATOM      8  C   UNL     1       4.303   2.854  17.132  0.00  0.00    +0.000 A 
ATOM      9  C   UNL     1       3.522   2.400  18.192  0.00  0.00    +0.000 A 
ATOM     10  C   UNL     1       2.856   3.283  19.057  0.00  0.00    +0.000 A 
ATOM     11  C   UNL     1       3.851   6.619  17.439  0.00  0.00    +0.000 C 
ATOM     12  O   UNL     1       4.582   7.120  16.594  0.00  0.00    +0.000 OA
ATOM     13  C   UNL     1       3.008   7.560  18.270  0.00  0.00    +0.000 C 
ATOM     14  O   UNL     1       2.943   8.752  17.988  0.00  0.00    +0.000 OA
ENDROOT
BRANCH  10  15
ATOM     15  C   UNL     1       1.972   2.746  20.199  0.00  0.00    +0.000 C 
ATOM     16  C   UNL     1       2.681   2.904  21.547  0.00  0.00    +0.000 C 
ATOM     17  C   UNL     1       0.537   3.287  20.306  0.00  0.00    +0.000 C 
ENDBRANCH  10  15
BRANCH   9  18
ATOM     18  O   UNL     1       3.400   1.049  18.352  0.00  0.00    +0.000 OA
ATOM     19  H   UNL     1       3.935   0.755  19.106  0.00  0.00    +0.000 HD
ENDBRANCH   9  18
TORSDOF 2
ENDMDL
MODEL 3
REMARK VINA RESULT:      -6.9      2.602      3.448
REMARK  Name = 
REMARK  6 active torsions:
REMARK  status: ('A' for Active; 'I' for Inactive)
REMARK    1  A    between atoms: C_1  and  C_2
REMARK    2  A    between atoms: C_6  and  C_7
REMARK    3  A    between atoms: C_9  and  O_10
REMARK    4  A    between atoms: C_11  and  C_12
REMARK    5  A    between atoms: C_12  and  C_13
REMARK    6  A    between atoms: C_12  and  C_14
REMARK                            x       y       z     vdW  Elec       q    Type
REMARK                         _______ _______ _______ _____ _____    ______ ____
ROOT
ATOM      1  C   UNL     1       5.978   4.279  15.649  0.00  0.00    +0.000 C 
ATOM      2  C   UNL     1       5.049   4.823  16.689  0.00  0.00    +0.000 C 
ATOM      3  C   UNL     1       4.450   4.070  17.621  0.00  0.00    +0.000 C 
ATOM      4  C   UNL     1       3.547   4.576  18.679  0.00  0.00    +0.000 A 
ATOM      5  C   UNL     1       3.202   5.963  18.686  0.00  0.00    +0.000 A 
ATOM      6  C   UNL     1       2.339   6.480  19.679  0.00  0.00    +0.000 A 
ATOM      7  C   UNL     1       1.881   7.909  19.834  0.00  0.00    +0.000 C 
ATOM      8  C   UNL     1       1.841   5.600  20.649  0.00  0.00    +0.000 A 
ATOM      9  C   UNL     1       2.188   4.252  20.660  0.00  0.00    +0.000 A 
ATOM     10  C   UNL     1       3.027   3.692  19.683  0.00  0.00    +0.000 A 
ATOM     11  C   UNL     1       3.786   6.843  17.625  0.00  0.00    +0.000 C 
ATOM     12  O   UNL     1       3.470   8.015  17.475  0.00  0.00    +0.000 OA
ATOM     13  C   UNL     1       4.812   6.275  16.670  0.00  0.00    +0.000 C 
ATOM     14  O   UNL     1       5.415   7.008  15.894  0.00  0.00    +0.000 OA
ENDROOT
BRANCH  10  15
ATOM     15  C   UNL     1       3.419   2.203  19.745  0.00  0.00    +0.000 C 
ATOM     16  C   UNL     1       3.286   1.554  18.363  0.00  0.00    +0.000 C 
ATOM     17  C   UNL     1       4.788   1.851  20.349  0.00  0.00    +0.000 C 
ENDBRANCH  10  15
BRANCH   9  18
ATOM     18  O   UNL     1       1.704   3.485  21.681  0.00  0.00    +0.000 OA
ATOM     19  H   UNL     1       1.880   2.547  21.502  0.00  0.00    +0.000 HD
ENDBRANCH   9  18
TORSDOF 2
ENDMDL
MODEL 4
REMARK VINA RESULT:      -6.9      2.471      5.646
REMARK  Name = 
REMARK  6 active torsions:
REMARK  status: ('A' for Active; 'I' for Inactive)
REMARK    1  A    between atoms: C_1  and  C_2
REMARK    2  A    between atoms: C_6  and  C_7
REMARK    3  A    between atoms: C_9  and  O_10
REMARK    4  A    between atoms: C_11  and  C_12
REMARK    5  A    between atoms: C_12  and  C_13
REMARK    6  A    between atoms: C_12  and  C_14
REMARK                            x       y       z     vdW  Elec       q    Type
REMARK                         _______ _______ _______ _____ _____    ______ ____
ROOT
ATOM      1  C   UNL     1       3.724   1.962  20.762  0.00  0.00    +0.000 C 
ATOM      2  C   UNL     1       3.553   3.294  20.100  0.00  0.00    +0.000 C 
ATOM      3  C   UNL     1       4.294   3.714  19.066  0.00  0.00    +0.000 C 
ATOM      4  C   UNL     1       4.136   5.011  18.372  0.00  0.00    +0.000 A 
ATOM      5  C   UNL     1       3.179   5.949  18.869  0.00  0.00    +0.000 A 
ATOM      6  C   UNL     1       3.005   7.199  18.234  0.00  0.00    +0.000 A 
ATOM      7  C   UNL     1       2.044   8.294  18.624  0.00  0.00    +0.000 C 
ATOM      8  C   UNL     1       3.788   7.486  17.108  0.00  0.00    +0.000 A 
ATOM      9  C   UNL     1       4.708   6.570  16.605  0.00  0.00    +0.000 A 
ATOM     10  C   UNL     1       4.928   5.324  17.216  0.00  0.00    +0.000 A 
ATOM     11  C   UNL     1       2.370   5.564  20.069  0.00  0.00    +0.000 C 
ATOM     12  O   UNL     1       1.607   6.331  20.639  0.00  0.00    +0.000 OA
ATOM     13  C   UNL     1       2.492   4.164  20.630  0.00  0.00    +0.000 C 
ATOM     14  O   UNL     1       1.732   3.778  21.511  0.00  0.00    +0.000 OA
ENDROOT
BRANCH  10  15
ATOM     15  C   UNL     1       5.928   4.320  16.612  0.00  0.00    +0.000 C 
ATOM     16  C   UNL     1       5.603   4.060  15.137  0.00  0.00    +0.000 C 
ATOM     17  C   UNL     1       7.427   4.627  16.762  0.00  0.00    +0.000 C 
ENDBRANCH  10  15
BRANCH   9  18
ATOM     18  O   UNL     1       5.381   6.912  15.467  0.00  0.00    +0.000 OA
ATOM     19  H   UNL     1       5.318   6.194  14.817  0.00  0.00    +0.000 HD
ENDBRANCH   9  18
TORSDOF 2
ENDMDL
MODEL 5
REMARK VINA RESULT:      -6.8      3.447      5.808
REMARK  Name = 
REMARK  6 active torsions:
REMARK  status: ('A' for Active; 'I' for Inactive)
REMARK    1  A    between atoms: C_1  and  C_2
REMARK    2  A    between atoms: C_6  and  C_7
REMARK    3  A    between atoms: C_9  and  O_10
REMARK    4  A    between atoms: C_11  and  C_12
REMARK    5  A    between atoms: C_12  and  C_13
REMARK    6  A    between atoms: C_12  and  C_14
REMARK                            x       y       z     vdW  Elec       q    Type
REMARK                         _______ _______ _______ _____ _____    ______ ____
ROOT
ATOM      1  C   UNL     1       2.002  10.002  17.865  0.00  0.00    +0.000 C 
ATOM      2  C   UNL     1       2.324   8.634  18.383  0.00  0.00    +0.000 C 
ATOM      3  C   UNL     1       3.195   7.801  17.800  0.00  0.00    +0.000 C 
ATOM      4  C   UNL     1       3.556   6.455  18.299  0.00  0.00    +0.000 A 
ATOM      5  C   UNL     1       2.879   5.939  19.446  0.00  0.00    +0.000 A 
ATOM      6  C   UNL     1       3.194   4.656  19.947  0.00  0.00    +0.000 A 
ATOM      7  C   UNL     1       2.583   3.968  21.142  0.00  0.00    +0.000 C 
ATOM      8  C   UNL     1       4.186   3.913  19.292  0.00  0.00    +0.000 A 
ATOM      9  C   UNL     1       4.864   4.417  18.185  0.00  0.00    +0.000 A 
ATOM     10  C   UNL     1       4.570   5.678  17.643  0.00  0.00    +0.000 A 
ATOM     11  C   UNL     1       1.840   6.798  20.100  0.00  0.00    +0.000 C 
ATOM     12  O   UNL     1       1.128   6.411  21.016  0.00  0.00    +0.000 OA
ATOM     13  C   UNL     1       1.636   8.216  19.615  0.00  0.00    +0.000 C 
ATOM     14  O   UNL     1       0.904   8.985  20.228  0.00  0.00    +0.000 OA
ENDROOT
BRANCH  10  15
ATOM     15  C   UNL     1       5.365   6.219  16.439  0.00  0.00    +0.000 C 
ATOM     16  C   UNL     1       6.782   6.616  16.866  0.00  0.00    +0.000 C 
ATOM     17  C   UNL     1       5.434   5.344  15.177  0.00  0.00    +0.000 C 
ENDBRANCH  10  15
BRANCH   9  18
ATOM     18  O   UNL     1       5.858   3.648  17.652  0.00  0.00    +0.000 OA
ATOM     19  H   UNL     1       5.726   2.718  17.898  0.00  0.00    +0.000 HD
ENDBRANCH   9  18
TORSDOF 2
ENDMDL
MODEL 6
REMARK VINA RESULT:      -6.8      2.122      5.375
REMARK  Name = 
REMARK  6 active torsions:
REMARK  status: ('A' for Active; 'I' for Inactive)
REMARK    1  A    between atoms: C_1  and  C_2
REMARK    2  A    between atoms: C_6  and  C_7
REMARK    3  A    between atoms: C_9  and  O_10
REMARK    4  A    between atoms: C_11  and  C_12
REMARK    5  A    between atoms: C_12  and  C_13
REMARK    6  A    between atoms: C_12  and  C_14
REMARK                            x       y       z     vdW  Elec       q    Type
REMARK                         _______ _______ _______ _____ _____    ______ ____
ROOT
ATOM      1  C   UNL     1       3.381   0.965  19.054  0.00  0.00    +0.000 C 
ATOM      2  C   UNL     1       3.314   2.446  18.842  0.00  0.00    +0.000 C 
ATOM      3  C   UNL     1       4.091   3.112  17.978  0.00  0.00    +0.000 C 
ATOM      4  C   UNL     1       4.035   4.568  17.725  0.00  0.00    +0.000 A 
ATOM      5  C   UNL     1       3.147   5.371  18.506  0.00  0.00    +0.000 A 
ATOM      6  C   UNL     1       3.071   6.767  18.295  0.00  0.00    +0.000 A 
ATOM      7  C   UNL     1       2.191   7.752  19.022  0.00  0.00    +0.000 C 
ATOM      8  C   UNL     1       3.881   7.333  17.301  0.00  0.00    +0.000 A 
ATOM      9  C   UNL     1       4.733   6.555  16.522  0.00  0.00    +0.000 A 
ATOM     10  C   UNL     1       4.855   5.168  16.711  0.00  0.00    +0.000 A 
ATOM     11  C   UNL     1       2.304   4.692  19.539  0.00  0.00    +0.000 C 
ATOM     12  O   UNL     1       1.596   5.296  20.333  0.00  0.00    +0.000 OA
ATOM     13  C   UNL     1       2.317   3.182  19.635  0.00  0.00    +0.000 C 
ATOM     14  O   UNL     1       1.524   2.597  20.364  0.00  0.00    +0.000 OA
ENDROOT
BRANCH  10  15
ATOM     15  C   UNL     1       5.782   4.332  15.807  0.00  0.00    +0.000 C 
ATOM     16  C   UNL     1       5.331   4.422  14.346  0.00  0.00    +0.000 C 
ATOM     17  C   UNL     1       7.294   4.596  15.896  0.00  0.00    +0.000 C 
ENDBRANCH  10  15
BRANCH   9  18
ATOM     18  O   UNL     1       5.437   7.184  15.536  0.00  0.00    +0.000 OA
ATOM     19  H   UNL     1       5.540   8.125  15.752  0.00  0.00    +0.000 HD
ENDBRANCH   9  18
TORSDOF 2
ENDMDL
MODEL 7
REMARK VINA RESULT:      -6.4      2.296      5.445
REMARK  Name = 
REMARK  6 active torsions:
REMARK  status: ('A' for Active; 'I' for Inactive)
REMARK    1  A    between atoms: C_1  and  C_2
REMARK    2  A    between atoms: C_6  and  C_7
REMARK    3  A    between atoms: C_9  and  O_10
REMARK    4  A    between atoms: C_11  and  C_12
REMARK    5  A    between atoms: C_12  and  C_13
REMARK    6  A    between atoms: C_12  and  C_14
REMARK                            x       y       z     vdW  Elec       q    Type
REMARK                         _______ _______ _______ _____ _____    ______ ____
ROOT
ATOM      1  C   UNL     1       4.587   1.677  20.260  0.00  0.00    +0.000 C 
ATOM      2  C   UNL     1       4.200   3.034  19.759  0.00  0.00    +0.000 C 
ATOM      3  C   UNL     1       4.818   3.661  18.750  0.00  0.00    +0.000 C 
ATOM      4  C   UNL     1       4.446   4.988  18.212  0.00  0.00    +0.000 A 
ATOM      5  C   UNL     1       3.400   5.723  18.850  0.00  0.00    +0.000 A 
ATOM      6  C   UNL     1       3.021   6.997  18.367  0.00  0.00    +0.000 A 
ATOM      7  C   UNL     1       1.943   7.896  18.916  0.00  0.00    +0.000 C 
ATOM      8  C   UNL     1       3.694   7.509  17.250  0.00  0.00    +0.000 A 
ATOM      9  C   UNL     1       4.702   6.791  16.611  0.00  0.00    +0.000 A 
ATOM     10  C   UNL     1       5.122   5.531  17.068  0.00  0.00    +0.000 A 
ATOM     11  C   UNL     1       2.718   5.103  20.031  0.00  0.00    +0.000 C 
ATOM     12  O   UNL     1       1.890   5.690  20.714  0.00  0.00    +0.000 OA
ATOM     13  C   UNL     1       3.060   3.684  20.426  0.00  0.00    +0.000 C 
ATOM     14  O   UNL     1       2.411   3.103  21.288  0.00  0.00    +0.000 OA
ENDROOT
BRANCH  10  15
ATOM     15  C   UNL     1       6.215   4.748  16.316  0.00  0.00    +0.000 C 
ATOM     16  C   UNL     1       7.423   4.503  17.226  0.00  0.00    +0.000 C 
ATOM     17  C   UNL     1       5.809   3.431  15.635  0.00  0.00    +0.000 C 
ENDBRANCH  10  15
BRANCH   9  18
ATOM     18  O   UNL     1       5.257   7.343  15.492  0.00  0.00    +0.000 OA
ATOM     19  H   UNL     1       6.208   7.479  15.627  0.00  0.00    +0.000 HD
ENDBRANCH   9  18
TORSDOF 2
ENDMDL
MODEL 8
REMARK VINA RESULT:      -6.4      3.234      4.803
REMARK  Name = 
REMARK  6 active torsions:
REMARK  status: ('A' for Active; 'I' for Inactive)
REMARK    1  A    between atoms: C_1  and  C_2
REMARK    2  A    between atoms: C_6  and  C_7
REMARK    3  A    between atoms: C_9  and  O_10
REMARK    4  A    between atoms: C_11  and  C_12
REMARK    5  A    between atoms: C_12  and  C_13
REMARK    6  A    between atoms: C_12  and  C_14
REMARK                            x       y       z     vdW  Elec       q    Type
REMARK                         _______ _______ _______ _____ _____    ______ ____
ROOT
ATOM      1  C   UNL     1       1.248   8.472  20.468  0.00  0.00    +0.000 C 
ATOM      2  C   UNL     1       2.043   7.562  19.584  0.00  0.00    +0.000 C 
ATOM      3  C   UNL     1       2.256   6.266  19.846  0.00  0.00    +0.000 C 
ATOM      4  C   UNL     1       3.014   5.333  18.983  0.00  0.00    +0.000 A 
ATOM      5  C   UNL     1       3.652   5.841  17.810  0.00  0.00    +0.000 A 
ATOM      6  C   UNL     1       4.389   4.979  16.966  0.00  0.00    +0.000 A 
ATOM      7  C   UNL     1       5.114   5.348  15.696  0.00  0.00    +0.000 C 
ATOM      8  C   UNL     1       4.469   3.623  17.308  0.00  0.00    +0.000 A 
ATOM      9  C   UNL     1       3.833   3.116  18.439  0.00  0.00    +0.000 A 
ATOM     10  C   UNL     1       3.107   3.939  19.316  0.00  0.00    +0.000 A 
ATOM     11  C   UNL     1       3.510   7.299  17.503  0.00  0.00    +0.000 C 
ATOM     12  O   UNL     1       4.104   7.855  16.589  0.00  0.00    +0.000 OA
ATOM     13  C   UNL     1       2.599   8.153  18.357  0.00  0.00    +0.000 C 
ATOM     14  O   UNL     1       2.347   9.309  18.036  0.00  0.00    +0.000 OA
ENDROOT
BRANCH  10  15
ATOM     15  C   UNL     1       2.387   3.340  20.539  0.00  0.00    +0.000 C 
ATOM     16  C   UNL     1       1.067   2.685  20.117  0.00  0.00    +0.000 C 
ATOM     17  C   UNL     1       3.179   2.370  21.430  0.00  0.00    +0.000 C 
ENDBRANCH  10  15
BRANCH   9  18
ATOM     18  O   UNL     1       3.914   1.771  18.659  0.00  0.00    +0.000 OA
ATOM     19  H   UNL     1       3.148   1.325  18.265  0.00  0.00    +0.000 HD
ENDBRANCH   9  18
TORSDOF 2
ENDMDL
MODEL 9
REMARK VINA RESULT:      -6.3      2.939      5.875
REMARK  Name = 
REMARK  6 active torsions:
REMARK  status: ('A' for Active; 'I' for Inactive)
REMARK    1  A    between atoms: C_1  and  C_2
REMARK    2  A    between atoms: C_6  and  C_7
REMARK    3  A    between atoms: C_9  and  O_10
REMARK    4  A    between atoms: C_11  and  C_12
REMARK    5  A    between atoms: C_12  and  C_13
REMARK    6  A    between atoms: C_12  and  C_14
REMARK                            x       y       z     vdW  Elec       q    Type
REMARK                         _______ _______ _______ _____ _____    ______ ____
ROOT
ATOM      1  C   UNL     1       1.931   9.211  19.070  0.00  0.00    +0.000 C 
ATOM      2  C   UNL     1       2.285   7.757  19.097  0.00  0.00    +0.000 C 
ATOM      3  C   UNL     1       3.108   7.173  18.217  0.00  0.00    +0.000 C 
ATOM      4  C   UNL     1       3.500   5.746  18.229  0.00  0.00    +0.000 A 
ATOM      5  C   UNL     1       2.908   4.876  19.196  0.00  0.00    +0.000 A 
ATOM      6  C   UNL     1       3.255   3.506  19.234  0.00  0.00    +0.000 A 
ATOM      7  C   UNL     1       2.732   2.459  20.185  0.00  0.00    +0.000 C 
ATOM      8  C   UNL     1       4.194   3.033  18.307  0.00  0.00    +0.000 A 
ATOM      9  C   UNL     1       4.790   3.879  17.375  0.00  0.00    +0.000 A 
ATOM     10  C   UNL     1       4.460   5.242  17.289  0.00  0.00    +0.000 A 
ATOM     11  C   UNL     1       1.924   5.458  20.163  0.00  0.00    +0.000 C 
ATOM     12  O   UNL     1       1.280   4.783  20.954  0.00  0.00    +0.000 OA
ATOM     13  C   UNL     1       1.689   6.952  20.175  0.00  0.00    +0.000 C 
ATOM     14  O   UNL     1       1.007   7.468  21.053  0.00  0.00    +0.000 OA
ENDROOT
BRANCH  10  15
ATOM     15  C   UNL     1       5.166   6.156  16.269  0.00  0.00    +0.000 C 
ATOM     16  C   UNL     1       6.487   6.680  16.842  0.00  0.00    +0.000 C 
ATOM     17  C   UNL     1       5.402   5.601  14.855  0.00  0.00    +0.000 C 
ENDBRANCH  10  15
BRANCH   9  18
ATOM     18  O   UNL     1       5.739   3.342  16.553  0.00  0.00    +0.000 OA
ATOM     19  H   UNL     1       6.100   2.533  16.948  0.00  0.00    +0.000 HD
ENDBRANCH   9  18
TORSDOF 2
ENDMDL
