MODEL 1
REMARK VINA RESULT:      -7.6      0.000      0.000
REMARK  Name = 
REMARK  2 active torsions:
REMARK  status: ('A' for Active; 'I' for Inactive)
REMARK    1  A    between atoms: C_8  and  C_9
REMARK    2  A    between atoms: C_12  and  C_13
REMARK                            x       y       z     vdW  Elec       q    Type
REMARK                         _______ _______ _______ _____ _____    ______ ____
ROOT
ATOM      1  C   UNL     1       4.226   5.436  19.444  0.00  0.00    +0.000 A 
ATOM      2  C   UNL     1       3.191   4.564  19.747  0.00  0.00    +0.000 A 
ATOM      3  C   UNL     1       2.030   5.337  19.990  0.00  0.00    +0.000 A 
ATOM      4  C   UNL     1       2.386   6.655  19.797  0.00  0.00    +0.000 A 
ATOM      5  O   UNL     1       3.709   6.711  19.473  0.00  0.00    +0.000 OA
ENDROOT
BRANCH   1  13
ATOM      6  O   UNL     1       8.305   4.446  18.463  0.00  0.00    +0.000 OA
ATOM      7  C   UNL     1       7.435   4.554  17.614  0.00  0.00    +0.000 C 
ATOM      8  N   UNL     1       7.633   4.386  16.273  0.00  0.00    +0.000 N 
ATOM      9  C   UNL     1       6.569   4.555  15.442  0.00  0.00    +0.000 C 
ATOM     10  S   UNL     1       6.652   4.406  13.796  0.00  0.00    +0.000 S 
ATOM     11  S   UNL     1       5.149   4.946  16.377  0.00  0.00    +0.000 S 
ATOM     12  C   UNL     1       6.009   4.887  17.874  0.00  0.00    +0.000 C 
ATOM     13  C   UNL     1       5.574   5.125  19.116  0.00  0.00    +0.000 C 
ATOM     14  H   UNL     1       8.548   4.153  15.919  0.00  0.00    +0.000 HD
ENDBRANCH   1  13
BRANCH   4  15
ATOM     15  C   UNL     1       1.671   7.928  19.835  0.00  0.00    +0.000 A 
ATOM     16  C   UNL     1       1.089   8.408  21.022  0.00  0.00    +0.000 A 
ATOM     17  C   UNL     1       0.450   9.653  21.059  0.00  0.00    +0.000 A 
ATOM     18  C   UNL     1       0.376  10.439  19.911  0.00  0.00    +0.000 A 
ATOM     19  C   UNL     1       0.930   9.972  18.723  0.00  0.00    +0.000 A 
ATOM     20  C   UNL     1       1.565   8.732  18.692  0.00  0.00    +0.000 A 
ATOM     21  F   UNL     1       2.085   8.333  17.520  0.00  0.00    +0.000 F 
ENDBRANCH   4  15
TORSDOF 2
ENDMDL
MODEL 2
REMARK VINA RESULT:      -7.5      1.041      1.493
REMARK  Name = 
REMARK  2 active torsions:
REMARK  status: ('A' for Active; 'I' for Inactive)
REMARK    1  A    between atoms: C_8  and  C_9
REMARK    2  A    between atoms: C_12  and  C_13
REMARK                            x       y       z     vdW  Elec       q    Type
REMARK                         _______ _______ _______ _____ _____    ______ ____
ROOT
ATOM      1  C   UNL     1       4.260   5.524  19.369  0.00  0.00    +0.000 A 
ATOM      2  C   UNL     1       3.244   4.716  19.859  0.00  0.00    +0.000 A 
ATOM      3  C   UNL     1       2.097   5.525  20.040  0.00  0.00    +0.000 A 
ATOM      4  C   UNL     1       2.439   6.795  19.626  0.00  0.00    +0.000 A 
ATOM      5  O   UNL     1       3.742   6.791  19.227  0.00  0.00    +0.000 OA
ENDROOT
BRANCH   1  13
ATOM      6  O   UNL     1       8.281   4.366  18.333  0.00  0.00    +0.000 OA
ATOM      7  C   UNL     1       7.388   4.445  17.504  0.00  0.00    +0.000 C 
ATOM      8  N   UNL     1       7.540   4.191  16.171  0.00  0.00    +0.000 N 
ATOM      9  C   UNL     1       6.456   4.337  15.362  0.00  0.00    +0.000 C 
ATOM     10  S   UNL     1       6.484   4.085  13.727  0.00  0.00    +0.000 S 
ATOM     11  S   UNL     1       5.075   4.822  16.312  0.00  0.00    +0.000 S 
ATOM     12  C   UNL     1       5.979   4.832  17.785  0.00  0.00    +0.000 C 
ATOM     13  C   UNL     1       5.588   5.157  19.022  0.00  0.00    +0.000 C 
ATOM     14  H   UNL     1       8.438   3.911  15.805  0.00  0.00    +0.000 HD
ENDBRANCH   1  13
BRANCH   4  15
ATOM     15  C   UNL     1       1.725   8.063  19.503  0.00  0.00    +0.000 A 
ATOM     16  C   UNL     1       1.591   8.713  18.264  0.00  0.00    +0.000 A 
ATOM     17  C   UNL     1       0.861   9.903  18.149  0.00  0.00    +0.000 A 
ATOM     18  C   UNL     1       0.257  10.466  19.271  0.00  0.00    +0.000 A 
ATOM     19  C   UNL     1       0.395   9.847  20.509  0.00  0.00    +0.000 A 
ATOM     20  C   UNL     1       1.122   8.663  20.618  0.00  0.00    +0.000 A 
ATOM     21  F   UNL     1       1.220   8.106  21.836  0.00  0.00    +0.000 F 
ENDBRANCH   4  15
TORSDOF 2
ENDMDL
MODEL 3
REMARK VINA RESULT:      -7.3      4.864      7.775
REMARK  Name = 
REMARK  2 active torsions:
REMARK  status: ('A' for Active; 'I' for Inactive)
REMARK    1  A    between atoms: C_8  and  C_9
REMARK    2  A    between atoms: C_12  and  C_13
REMARK                            x       y       z     vdW  Elec       q    Type
REMARK                         _______ _______ _______ _____ _____    ______ ____
ROOT
ATOM      1  C   UNL     1       1.781   7.760  20.237  0.00  0.00    +0.000 A 
ATOM      2  C   UNL     1       2.109   8.274  18.991  0.00  0.00    +0.000 A 
ATOM      3  C   UNL     1       2.603   7.210  18.199  0.00  0.00    +0.000 A 
ATOM      4  C   UNL     1       2.531   6.073  18.976  0.00  0.00    +0.000 A 
ATOM      5  O   UNL     1       2.040   6.408  20.203  0.00  0.00    +0.000 OA
ENDROOT
BRANCH   1  13
ATOM      6  O   UNL     1       0.171   9.858  23.641  0.00  0.00    +0.000 OA
ATOM      7  C   UNL     1      -0.094  10.173  22.492  0.00  0.00    +0.000 C 
ATOM      8  N   UNL     1      -0.921  11.202  22.139  0.00  0.00    +0.000 N 
ATOM      9  C   UNL     1      -1.138  11.425  20.815  0.00  0.00    +0.000 C 
ATOM     10  S   UNL     1      -2.125  12.617  20.230  0.00  0.00    +0.000 S 
ATOM     11  S   UNL     1      -0.228  10.276  19.868  0.00  0.00    +0.000 S 
ATOM     12  C   UNL     1       0.424   9.503  21.269  0.00  0.00    +0.000 C 
ATOM     13  C   UNL     1       1.236   8.444  21.357  0.00  0.00    +0.000 C 
ATOM     14  H   UNL     1      -1.360  11.768  22.850  0.00  0.00    +0.000 HD
ENDBRANCH   1  13
BRANCH   4  15
ATOM     15  C   UNL     1       2.825   4.659  18.758  0.00  0.00    +0.000 A 
ATOM     16  C   UNL     1       3.898   4.024  19.408  0.00  0.00    +0.000 A 
ATOM     17  C   UNL     1       4.141   2.657  19.231  0.00  0.00    +0.000 A 
ATOM     18  C   UNL     1       3.320   1.900  18.398  0.00  0.00    +0.000 A 
ATOM     19  C   UNL     1       2.265   2.515  17.731  0.00  0.00    +0.000 A 
ATOM     20  C   UNL     1       2.028   3.878  17.911  0.00  0.00    +0.000 A 
ATOM     21  F   UNL     1       0.994   4.418  17.246  0.00  0.00    +0.000 F 
ENDBRANCH   4  15
TORSDOF 2
ENDMDL
MODEL 4
REMARK VINA RESULT:      -7.3      3.358      4.553
REMARK  Name = 
REMARK  2 active torsions:
REMARK  status: ('A' for Active; 'I' for Inactive)
REMARK    1  A    between atoms: C_8  and  C_9
REMARK    2  A    between atoms: C_12  and  C_13
REMARK                            x       y       z     vdW  Elec       q    Type
REMARK                         _______ _______ _______ _____ _____    ______ ____
ROOT
ATOM      1  C   UNL     1       6.631   5.348  17.121  0.00  0.00    +0.000 A 
ATOM      2  C   UNL     1       7.171   5.480  18.392  0.00  0.00    +0.000 A 
ATOM      3  C   UNL     1       6.161   5.158  19.328  0.00  0.00    +0.000 A 
ATOM      4  C   UNL     1       5.044   4.807  18.599  0.00  0.00    +0.000 A 
ATOM      5  O   UNL     1       5.330   4.928  17.271  0.00  0.00    +0.000 OA
ENDROOT
BRANCH   1  13
ATOM      6  O   UNL     1       8.599   5.942  13.332  0.00  0.00    +0.000 OA
ATOM      7  C   UNL     1       7.674   5.158  13.474  0.00  0.00    +0.000 C 
ATOM      8  N   UNL     1       7.148   4.388  12.475  0.00  0.00    +0.000 N 
ATOM      9  C   UNL     1       6.104   3.570  12.780  0.00  0.00    +0.000 C 
ATOM     10  S   UNL     1       5.348   2.593  11.679  0.00  0.00    +0.000 S 
ATOM     11  S   UNL     1       5.711   3.723  14.473  0.00  0.00    +0.000 S 
ATOM     12  C   UNL     1       6.950   4.895  14.746  0.00  0.00    +0.000 C 
ATOM     13  C   UNL     1       7.268   5.553  15.867  0.00  0.00    +0.000 C 
ATOM     14  H   UNL     1       7.525   4.439  11.541  0.00  0.00    +0.000 HD
ENDBRANCH   1  13
BRANCH   4  15
ATOM     15  C   UNL     1       3.705   4.331  18.935  0.00  0.00    +0.000 A 
ATOM     16  C   UNL     1       2.880   5.034  19.831  0.00  0.00    +0.000 A 
ATOM     17  C   UNL     1       1.578   4.596  20.108  0.00  0.00    +0.000 A 
ATOM     18  C   UNL     1       1.081   3.446  19.498  0.00  0.00    +0.000 A 
ATOM     19  C   UNL     1       1.890   2.727  18.624  0.00  0.00    +0.000 A 
ATOM     20  C   UNL     1       3.184   3.168  18.352  0.00  0.00    +0.000 A 
ATOM     21  F   UNL     1       3.919   2.438  17.498  0.00  0.00    +0.000 F 
ENDBRANCH   4  15
TORSDOF 2
ENDMDL
MODEL 5
REMARK VINA RESULT:      -7.2      3.689      7.509
REMARK  Name = 
REMARK  2 active torsions:
REMARK  status: ('A' for Active; 'I' for Inactive)
REMARK    1  A    between atoms: C_8  and  C_9
REMARK    2  A    between atoms: C_12  and  C_13
REMARK                            x       y       z     vdW  Elec       q    Type
REMARK                         _______ _______ _______ _____ _____    ______ ____
ROOT
ATOM      1  C   UNL     1       5.335   5.647  17.339  0.00  0.00    +0.000 A 
ATOM      2  C   UNL     1       6.640   5.368  17.719  0.00  0.00    +0.000 A 
ATOM      3  C   UNL     1       7.305   4.802  16.605  0.00  0.00    +0.000 A 
ATOM      4  C   UNL     1       6.394   4.783  15.569  0.00  0.00    +0.000 A 
ATOM      5  O   UNL     1       5.209   5.288  16.016  0.00  0.00    +0.000 OA
ENDROOT
BRANCH   1  13
ATOM      6  O   UNL     1       2.159   7.422  19.650  0.00  0.00    +0.000 OA
ATOM      7  C   UNL     1       2.450   6.240  19.735  0.00  0.00    +0.000 C 
ATOM      8  N   UNL     1       1.828   5.344  20.559  0.00  0.00    +0.000 N 
ATOM      9  C   UNL     1       2.273   4.058  20.561  0.00  0.00    +0.000 C 
ATOM     10  S   UNL     1       1.638   2.864  21.514  0.00  0.00    +0.000 S 
ATOM     11  S   UNL     1       3.586   3.889  19.425  0.00  0.00    +0.000 S 
ATOM     12  C   UNL     1       3.526   5.555  18.970  0.00  0.00    +0.000 C 
ATOM     13  C   UNL     1       4.298   6.233  18.113  0.00  0.00    +0.000 C 
ATOM     14  H   UNL     1       1.067   5.641  21.152  0.00  0.00    +0.000 HD
ENDBRANCH   1  13
BRANCH   4  15
ATOM     15  C   UNL     1       6.444   4.386  14.165  0.00  0.00    +0.000 A 
ATOM     16  C   UNL     1       5.488   3.514  13.616  0.00  0.00    +0.000 A 
ATOM     17  C   UNL     1       5.514   3.178  12.256  0.00  0.00    +0.000 A 
ATOM     18  C   UNL     1       6.499   3.704  11.423  0.00  0.00    +0.000 A 
ATOM     19  C   UNL     1       7.465   4.554  11.953  0.00  0.00    +0.000 A 
ATOM     20  C   UNL     1       7.434   4.884  13.308  0.00  0.00    +0.000 A 
ATOM     21  F   UNL     1       8.388   5.711  13.765  0.00  0.00    +0.000 F 
ENDBRANCH   4  15
TORSDOF 2
ENDMDL
MODEL 6
REMARK VINA RESULT:      -7.2      3.264      4.582
REMARK  Name = 
REMARK  2 active torsions:
REMARK  status: ('A' for Active; 'I' for Inactive)
REMARK    1  A    between atoms: C_8  and  C_9
REMARK    2  A    between atoms: C_12  and  C_13
REMARK                            x       y       z     vdW  Elec       q    Type
REMARK                         _______ _______ _______ _____ _____    ______ ____
ROOT
ATOM      1  C   UNL     1       6.441   5.300  17.079  0.00  0.00    +0.000 A 
ATOM      2  C   UNL     1       6.889   5.523  18.373  0.00  0.00    +0.000 A 
ATOM      3  C   UNL     1       5.853   5.149  19.262  0.00  0.00    +0.000 A 
ATOM      4  C   UNL     1       4.816   4.678  18.484  0.00  0.00    +0.000 A 
ATOM      5  O   UNL     1       5.172   4.775  17.171  0.00  0.00    +0.000 OA
ENDROOT
BRANCH   1  13
ATOM      6  O   UNL     1       8.579   5.919  13.388  0.00  0.00    +0.000 OA
ATOM      7  C   UNL     1       7.654   5.128  13.484  0.00  0.00    +0.000 C 
ATOM      8  N   UNL     1       7.180   4.358  12.460  0.00  0.00    +0.000 N 
ATOM      9  C   UNL     1       6.128   3.532  12.713  0.00  0.00    +0.000 C 
ATOM     10  S   UNL     1       5.430   2.554  11.575  0.00  0.00    +0.000 S 
ATOM     11  S   UNL     1       5.656   3.677  14.386  0.00  0.00    +0.000 S 
ATOM     12  C   UNL     1       6.873   4.857  14.721  0.00  0.00    +0.000 C 
ATOM     13  C   UNL     1       7.134   5.513  15.857  0.00  0.00    +0.000 C 
ATOM     14  H   UNL     1       7.599   4.415  11.544  0.00  0.00    +0.000 HD
ENDBRANCH   1  13
BRANCH   4  15
ATOM     15  C   UNL     1       3.504   4.102  18.761  0.00  0.00    +0.000 A 
ATOM     16  C   UNL     1       3.124   2.854  18.236  0.00  0.00    +0.000 A 
ATOM     17  C   UNL     1       1.883   2.287  18.549  0.00  0.00    +0.000 A 
ATOM     18  C   UNL     1       0.996   2.959  19.388  0.00  0.00    +0.000 A 
ATOM     19  C   UNL     1       1.347   4.203  19.902  0.00  0.00    +0.000 A 
ATOM     20  C   UNL     1       2.584   4.763  19.587  0.00  0.00    +0.000 A 
ATOM     21  F   UNL     1       2.872   5.964  20.113  0.00  0.00    +0.000 F 
ENDBRANCH   4  15
TORSDOF 2
ENDMDL
MODEL 7
REMARK VINA RESULT:      -7.2      4.800      7.371
REMARK  Name = 
REMARK  2 active torsions:
REMARK  status: ('A' for Active; 'I' for Inactive)
REMARK    1  A    between atoms: C_8  and  C_9
REMARK    2  A    between atoms: C_12  and  C_13
REMARK                            x       y       z     vdW  Elec       q    Type
REMARK                         _______ _______ _______ _____ _____    ______ ____
ROOT
ATOM      1  C   UNL     1       2.248   8.386  18.368  0.00  0.00    +0.000 A 
ATOM      2  C   UNL     1       3.290   7.912  17.585  0.00  0.00    +0.000 A 
ATOM      3  C   UNL     1       3.481   6.545  17.897  0.00  0.00    +0.000 A 
ATOM      4  C   UNL     1       2.527   6.219  18.839  0.00  0.00    +0.000 A 
ATOM      5  O   UNL     1       1.791   7.331  19.123  0.00  0.00    +0.000 OA
ENDROOT
BRANCH   1  13
ATOM      6  O   UNL     1       0.519  12.334  18.421  0.00  0.00    +0.000 OA
ATOM      7  C   UNL     1       0.394  11.552  19.349  0.00  0.00    +0.000 C 
ATOM      8  N   UNL     1      -0.287  11.819  20.504  0.00  0.00    +0.000 N 
ATOM      9  C   UNL     1      -0.327  10.853  21.461  0.00  0.00    +0.000 C 
ATOM     10  S   UNL     1      -1.093  11.030  22.917  0.00  0.00    +0.000 S 
ATOM     11  S   UNL     1       0.540   9.443  20.911  0.00  0.00    +0.000 S 
ATOM     12  C   UNL     1       0.956  10.176  19.403  0.00  0.00    +0.000 C 
ATOM     13  C   UNL     1       1.690   9.693  18.395  0.00  0.00    +0.000 C 
ATOM     14  H   UNL     1      -0.736  12.712  20.635  0.00  0.00    +0.000 HD
ENDBRANCH   1  13
BRANCH   4  15
ATOM     15  C   UNL     1       2.145   4.992  19.533  0.00  0.00    +0.000 A 
ATOM     16  C   UNL     1       2.473   4.779  20.883  0.00  0.00    +0.000 A 
ATOM     17  C   UNL     1       2.059   3.621  21.553  0.00  0.00    +0.000 A 
ATOM     18  C   UNL     1       1.313   2.653  20.884  0.00  0.00    +0.000 A 
ATOM     19  C   UNL     1       0.996   2.837  19.541  0.00  0.00    +0.000 A 
ATOM     20  C   UNL     1       1.411   3.992  18.880  0.00  0.00    +0.000 A 
ATOM     21  F   UNL     1       1.073   4.119  17.587  0.00  0.00    +0.000 F 
ENDBRANCH   4  15
TORSDOF 2
ENDMDL
MODEL 8
REMARK VINA RESULT:      -7.1      4.664      7.424
REMARK  Name = 
REMARK  2 active torsions:
REMARK  status: ('A' for Active; 'I' for Inactive)
REMARK    1  A    between atoms: C_8  and  C_9
REMARK    2  A    between atoms: C_12  and  C_13
REMARK                            x       y       z     vdW  Elec       q    Type
REMARK                         _______ _______ _______ _____ _____    ______ ____
ROOT
ATOM      1  C   UNL     1       2.285   8.112  18.061  0.00  0.00    +0.000 A 
ATOM      2  C   UNL     1       3.569   7.925  17.570  0.00  0.00    +0.000 A 
ATOM      3  C   UNL     1       3.865   6.543  17.644  0.00  0.00    +0.000 A 
ATOM      4  C   UNL     1       2.739   5.925  18.149  0.00  0.00    +0.000 A 
ATOM      5  O   UNL     1       1.793   6.873  18.402  0.00  0.00    +0.000 OA
ENDROOT
BRANCH   1  13
ATOM      6  O   UNL     1       0.024  11.769  18.374  0.00  0.00    +0.000 OA
ATOM      7  C   UNL     1       0.148  10.993  19.308  0.00  0.00    +0.000 C 
ATOM      8  N   UNL     1      -0.393  11.179  20.549  0.00  0.00    +0.000 N 
ATOM      9  C   UNL     1      -0.155  10.235  21.500  0.00  0.00    +0.000 C 
ATOM     10  S   UNL     1      -0.722  10.325  23.051  0.00  0.00    +0.000 S 
ATOM     11  S   UNL     1       0.822   8.955  20.826  0.00  0.00    +0.000 S 
ATOM     12  C   UNL     1       0.906   9.714  19.276  0.00  0.00    +0.000 C 
ATOM     13  C   UNL     1       1.551   9.325  18.171  0.00  0.00    +0.000 C 
ATOM     14  H   UNL     1      -0.944  12.001  20.746  0.00  0.00    +0.000 HD
ENDBRANCH   1  13
BRANCH   4  15
ATOM     15  C   UNL     1       2.363   4.541  18.422  0.00  0.00    +0.000 A 
ATOM     16  C   UNL     1       1.524   4.208  19.500  0.00  0.00    +0.000 A 
ATOM     17  C   UNL     1       1.129   2.883  19.724  0.00  0.00    +0.000 A 
ATOM     18  C   UNL     1       1.568   1.867  18.878  0.00  0.00    +0.000 A 
ATOM     19  C   UNL     1       2.414   2.175  17.817  0.00  0.00    +0.000 A 
ATOM     20  C   UNL     1       2.805   3.496  17.599  0.00  0.00    +0.000 A 
ATOM     21  F   UNL     1       3.619   3.736  16.559  0.00  0.00    +0.000 F 
ENDBRANCH   4  15
TORSDOF 2
ENDMDL
MODEL 9
REMARK VINA RESULT:      -7.1      4.930      7.940
REMARK  Name = 
REMARK  2 active torsions:
REMARK  status: ('A' for Active; 'I' for Inactive)
REMARK    1  A    between atoms: C_8  and  C_9
REMARK    2  A    between atoms: C_12  and  C_13
REMARK                            x       y       z     vdW  Elec       q    Type
REMARK                         _______ _______ _______ _____ _____    ______ ____
ROOT
ATOM      1  C   UNL     1       1.644   8.140  20.201  0.00  0.00    +0.000 A 
ATOM      2  C   UNL     1       1.845   8.743  18.967  0.00  0.00    +0.000 A 
ATOM      3  C   UNL     1       2.382   7.769  18.091  0.00  0.00    +0.000 A 
ATOM      4  C   UNL     1       2.461   6.594  18.808  0.00  0.00    +0.000 A 
ATOM      5  O   UNL     1       2.020   6.822  20.078  0.00  0.00    +0.000 OA
ENDROOT
BRANCH   1  13
ATOM      6  O   UNL     1       0.071   9.907  23.804  0.00  0.00    +0.000 OA
ATOM      7  C   UNL     1      -0.239  10.302  22.691  0.00  0.00    +0.000 C 
ATOM      8  N   UNL     1      -1.108  11.327  22.444  0.00  0.00    +0.000 N 
ATOM      9  C   UNL     1      -1.371  11.647  21.148  0.00  0.00    +0.000 C 
ATOM     10  S   UNL     1      -2.413  12.846  20.688  0.00  0.00    +0.000 S 
ATOM     11  S   UNL     1      -0.454  10.607  20.089  0.00  0.00    +0.000 S 
ATOM     12  C   UNL     1       0.264   9.749  21.405  0.00  0.00    +0.000 C 
ATOM     13  C   UNL     1       1.112   8.714  21.386  0.00  0.00    +0.000 C 
ATOM     14  H   UNL     1      -1.543  11.820  23.209  0.00  0.00    +0.000 HD
ENDBRANCH   1  13
BRANCH   4  15
ATOM     15  C   UNL     1       2.867   5.226  18.496  0.00  0.00    +0.000 A 
ATOM     16  C   UNL     1       2.047   4.372  17.738  0.00  0.00    +0.000 A 
ATOM     17  C   UNL     1       2.468   3.079  17.402  0.00  0.00    +0.000 A 
ATOM     18  C   UNL     1       3.713   2.615  17.823  0.00  0.00    +0.000 A 
ATOM     19  C   UNL     1       4.529   3.439  18.590  0.00  0.00    +0.000 A 
ATOM     20  C   UNL     1       4.105   4.726  18.921  0.00  0.00    +0.000 A 
ATOM     21  F   UNL     1       4.935   5.479  19.661  0.00  0.00    +0.000 F 
ENDBRANCH   4  15
TORSDOF 2
ENDMDL
