MODEL 1
REMARK VINA RESULT:      -9.1      0.000      0.000
REMARK  Name = 
REMARK  3 active torsions:
REMARK  status: ('A' for Active; 'I' for Inactive)
REMARK    1  A    between atoms: C_5  and  N_6
REMARK    2  A    between atoms: N_6  and  C_7
REMARK    3  A    between atoms: C_17  and  C_18
REMARK                            x       y       z     vdW  Elec       q    Type
REMARK                         _______ _______ _______ _____ _____    ______ ____
ROOT
ATOM      1  C   UNL     1       2.998   6.276  18.324  0.00  0.00    +0.000 A 
ATOM      2  N   UNL     1       2.240   5.834  19.394  0.00  0.00    +0.000 N 
ATOM      3  C   UNL     1       2.119   4.478  19.740  0.00  0.00    +0.000 A 
ATOM      4  C   UNL     1       1.327   4.088  20.822  0.00  0.00    +0.000 A 
ATOM      5  C   UNL     1       1.268   2.743  21.198  0.00  0.00    +0.000 A 
ATOM      6  C   UNL     1       2.009   1.780  20.505  0.00  0.00    +0.000 A 
ATOM      7  C   UNL     1       2.810   2.153  19.422  0.00  0.00    +0.000 A 
ATOM      8  C   UNL     1       2.861   3.494  19.048  0.00  0.00    +0.000 A 
ATOM      9  C   UNL     1       3.681   3.965  17.933  0.00  0.00    +0.000 A 
ATOM     10  N   UNL     1       4.483   3.323  17.127  0.00  0.00    +0.000 NA
ATOM     11  C   UNL     1       4.985   4.343  16.312  0.00  0.00    +0.000 A 
ATOM     12  N   UNL     1       4.526   5.550  16.520  0.00  0.00    +0.000 NA
ATOM     13  C   UNL     1       3.685   5.382  17.587  0.00  0.00    +0.000 A 
ATOM     14  H   UNL     1       1.621   6.521  19.800  0.00  0.00    +0.000 HD
ENDROOT
BRANCH  11  15
ATOM     15  C   UNL     1       6.004   4.048  15.239  0.00  0.00    +0.000 C 
ATOM     16  C   UNL     1       5.406   3.869  13.849  0.00  0.00    +0.000 C 
ATOM     17  C   UNL     1       6.582   4.073  12.907  0.00  0.00    +0.000 C 
ATOM     18  C   UNL     1       7.538   5.020  13.629  0.00  0.00    +0.000 C 
ATOM     19  C   UNL     1       7.001   5.184  15.050  0.00  0.00    +0.000 C 
ENDBRANCH  11  15
BRANCH   1  20
ATOM     20  N   UNL     1       3.046   7.634  18.013  0.00  0.00    +0.000 N 
ATOM     21  H   UNL     1       3.960   7.985  18.317  0.00  0.00    +0.000 HD
BRANCH  20  26
ATOM     22 CL   UNL     1      -0.969  11.380  20.356  0.00  0.00    +0.000 Cl
ATOM     23  C   UNL     1       0.206  10.291  19.713  0.00  0.00    +0.000 A 
ATOM     24  C   UNL     1       0.521  10.398  18.357  0.00  0.00    +0.000 A 
ATOM     25  C   UNL     1       1.460   9.536  17.781  0.00  0.00    +0.000 A 
ATOM     26  C   UNL     1       2.075   8.534  18.545  0.00  0.00    +0.000 A 
ATOM     27  C   UNL     1       1.786   8.466  19.914  0.00  0.00    +0.000 A 
ATOM     28  C   UNL     1       0.845   9.326  20.494  0.00  0.00    +0.000 A 
ATOM     29 CL   UNL     1       0.516   9.132  22.180  0.00  0.00    +0.000 Cl
ENDBRANCH  20  26
ENDBRANCH   1  20
TORSDOF 3
ENDMDL
MODEL 2
REMARK VINA RESULT:      -8.7      4.313      9.704
REMARK  Name = 
REMARK  3 active torsions:
REMARK  status: ('A' for Active; 'I' for Inactive)
REMARK    1  A    between atoms: C_5  and  N_6
REMARK    2  A    between atoms: N_6  and  C_7
REMARK    3  A    between atoms: C_17  and  C_18
REMARK                            x       y       z     vdW  Elec       q    Type
REMARK                         _______ _______ _______ _____ _____    ______ ____
ROOT
ATOM      1  C   UNL     1       0.126  10.309  18.641  0.00  0.00    +0.000 A 
ATOM      2  N   UNL     1      -0.535  10.036  17.458  0.00  0.00    +0.000 N 
ATOM      3  C   UNL     1      -1.871  10.403  17.223  0.00  0.00    +0.000 A 
ATOM      4  C   UNL     1      -2.493  10.087  16.014  0.00  0.00    +0.000 A 
ATOM      5  C   UNL     1      -3.800  10.516  15.766  0.00  0.00    +0.000 A 
ATOM      6  C   UNL     1      -4.490  11.273  16.718  0.00  0.00    +0.000 A 
ATOM      7  C   UNL     1      -3.882  11.603  17.932  0.00  0.00    +0.000 A 
ATOM      8  C   UNL     1      -2.581  11.167  18.176  0.00  0.00    +0.000 A 
ATOM      9  C   UNL     1      -1.872  11.477  19.418  0.00  0.00    +0.000 A 
ATOM     10  N   UNL     1      -2.236  12.169  20.463  0.00  0.00    +0.000 NA
ATOM     11  C   UNL     1      -1.101  12.115  21.280  0.00  0.00    +0.000 A 
ATOM     12  N   UNL     1      -0.088  11.413  20.844  0.00  0.00    +0.000 NA
ATOM     13  C   UNL     1      -0.513  10.986  19.615  0.00  0.00    +0.000 A 
ATOM     14  H   UNL     1      -0.069   9.388  16.840  0.00  0.00    +0.000 HD
ENDROOT
BRANCH  11  15
ATOM     15  C   UNL     1      -1.066  12.836  22.606  0.00  0.00    +0.000 C 
ATOM     16  C   UNL     1      -0.539  14.263  22.521  0.00  0.00    +0.000 C 
ATOM     17  C   UNL     1      -1.038  14.922  23.798  0.00  0.00    +0.000 C 
ATOM     18  C   UNL     1      -2.332  14.199  24.164  0.00  0.00    +0.000 C 
ATOM     19  C   UNL     1      -2.452  13.007  23.215  0.00  0.00    +0.000 C 
ENDBRANCH  11  15
BRANCH   1  20
ATOM     20  N   UNL     1       1.441   9.885  18.823  0.00  0.00    +0.000 N 
ATOM     21  H   UNL     1       1.936  10.032  17.938  0.00  0.00    +0.000 HD
BRANCH  20  26
ATOM     22 CL   UNL     1       2.706   4.261  20.381  0.00  0.00    +0.000 Cl
ATOM     23  C   UNL     1       2.367   5.886  19.905  0.00  0.00    +0.000 A 
ATOM     24  C   UNL     1       1.717   6.712  20.823  0.00  0.00    +0.000 A 
ATOM     25  C   UNL     1       1.410   8.035  20.486  0.00  0.00    +0.000 A 
ATOM     26  C   UNL     1       1.722   8.542  19.218  0.00  0.00    +0.000 A 
ATOM     27  C   UNL     1       2.416   7.717  18.321  0.00  0.00    +0.000 A 
ATOM     28  C   UNL     1       2.722   6.393  18.653  0.00  0.00    +0.000 A 
ATOM     29 CL   UNL     1       3.534   5.437  17.463  0.00  0.00    +0.000 Cl
ENDBRANCH  20  26
ENDBRANCH   1  20
TORSDOF 3
ENDMDL
MODEL 3
REMARK VINA RESULT:      -8.7      0.933      1.280
REMARK  Name = 
REMARK  3 active torsions:
REMARK  status: ('A' for Active; 'I' for Inactive)
REMARK    1  A    between atoms: C_5  and  N_6
REMARK    2  A    between atoms: N_6  and  C_7
REMARK    3  A    between atoms: C_17  and  C_18
REMARK                            x       y       z     vdW  Elec       q    Type
REMARK                         _______ _______ _______ _____ _____    ______ ____
ROOT
ATOM      1  C   UNL     1       2.751   6.834  19.052  0.00  0.00    +0.000 A 
ATOM      2  N   UNL     1       2.090   6.128  20.041  0.00  0.00    +0.000 N 
ATOM      3  C   UNL     1       2.004   4.726  20.055  0.00  0.00    +0.000 A 
ATOM      4  C   UNL     1       1.309   4.066  21.070  0.00  0.00    +0.000 A 
ATOM      5  C   UNL     1       1.289   2.669  21.111  0.00  0.00    +0.000 A 
ATOM      6  C   UNL     1       1.971   1.921  20.146  0.00  0.00    +0.000 A 
ATOM      7  C   UNL     1       2.676   2.565  19.125  0.00  0.00    +0.000 A 
ATOM      8  C   UNL     1       2.688   3.958  19.086  0.00  0.00    +0.000 A 
ATOM      9  C   UNL     1       3.408   4.705  18.056  0.00  0.00    +0.000 A 
ATOM     10  N   UNL     1       4.142   4.298  17.055  0.00  0.00    +0.000 NA
ATOM     11  C   UNL     1       4.567   5.497  16.475  0.00  0.00    +0.000 A 
ATOM     12  N   UNL     1       4.123   6.606  17.007  0.00  0.00    +0.000 NA
ATOM     13  C   UNL     1       3.377   6.163  18.066  0.00  0.00    +0.000 A 
ATOM     14  H   UNL     1       1.505   6.680  20.651  0.00  0.00    +0.000 HD
ENDROOT
BRANCH  11  15
ATOM     15  C   UNL     1       5.493   5.496  15.283  0.00  0.00    +0.000 C 
ATOM     16  C   UNL     1       6.963   5.312  15.640  0.00  0.00    +0.000 C 
ATOM     17  C   UNL     1       7.610   4.860  14.340  0.00  0.00    +0.000 C 
ATOM     18  C   UNL     1       6.520   4.126  13.562  0.00  0.00    +0.000 C 
ATOM     19  C   UNL     1       5.215   4.341  14.328  0.00  0.00    +0.000 C 
ENDBRANCH  11  15
BRANCH   1  20
ATOM     20  N   UNL     1       2.767   8.228  19.078  0.00  0.00    +0.000 N 
ATOM     21  H   UNL     1       3.254   8.513  19.934  0.00  0.00    +0.000 HD
BRANCH  20  26
ATOM     22 CL   UNL     1      -2.312  11.368  19.073  0.00  0.00    +0.000 Cl
ATOM     23  C   UNL     1      -0.835  10.474  19.108  0.00  0.00    +0.000 A 
ATOM     24  C   UNL     1      -0.300  10.052  17.890  0.00  0.00    +0.000 A 
ATOM     25  C   UNL     1       0.891   9.317  17.860  0.00  0.00    +0.000 A 
ATOM     26  C   UNL     1       1.546   8.967  19.049  0.00  0.00    +0.000 A 
ATOM     27  C   UNL     1       1.024   9.437  20.262  0.00  0.00    +0.000 A 
ATOM     28  C   UNL     1      -0.167  10.170  20.297  0.00  0.00    +0.000 A 
ATOM     29 CL   UNL     1      -0.760  10.660  21.844  0.00  0.00    +0.000 Cl
ENDBRANCH  20  26
ENDBRANCH   1  20
TORSDOF 3
ENDMDL
MODEL 4
REMARK VINA RESULT:      -8.7      0.892      1.449
REMARK  Name = 
REMARK  3 active torsions:
REMARK  status: ('A' for Active; 'I' for Inactive)
REMARK    1  A    between atoms: C_5  and  N_6
REMARK    2  A    between atoms: N_6  and  C_7
REMARK    3  A    between atoms: C_17  and  C_18
REMARK                            x       y       z     vdW  Elec       q    Type
REMARK                         _______ _______ _______ _____ _____    ______ ____
ROOT
ATOM      1  C   UNL     1       2.906   6.466  18.254  0.00  0.00    +0.000 A 
ATOM      2  N   UNL     1       2.149   6.053  19.335  0.00  0.00    +0.000 N 
ATOM      3  C   UNL     1       2.068   4.712  19.747  0.00  0.00    +0.000 A 
ATOM      4  C   UNL     1       1.276   4.350  20.838  0.00  0.00    +0.000 A 
ATOM      5  C   UNL     1       1.256   3.024  21.280  0.00  0.00    +0.000 A 
ATOM      6  C   UNL     1       2.037   2.053  20.644  0.00  0.00    +0.000 A 
ATOM      7  C   UNL     1       2.840   2.399  19.553  0.00  0.00    +0.000 A 
ATOM      8  C   UNL     1       2.851   3.721  19.113  0.00  0.00    +0.000 A 
ATOM      9  C   UNL     1       3.670   4.163  17.985  0.00  0.00    +0.000 A 
ATOM     10  N   UNL     1       4.503   3.510  17.221  0.00  0.00    +0.000 NA
ATOM     11  C   UNL     1       4.981   4.505  16.363  0.00  0.00    +0.000 A 
ATOM     12  N   UNL     1       4.481   5.705  16.505  0.00  0.00    +0.000 NA
ATOM     13  C   UNL     1       3.632   5.561  17.569  0.00  0.00    +0.000 A 
ATOM     14  H   UNL     1       1.503   6.737  19.700  0.00  0.00    +0.000 HD
ENDROOT
BRANCH  11  15
ATOM     15  C   UNL     1       6.024   4.191  15.317  0.00  0.00    +0.000 C 
ATOM     16  C   UNL     1       5.450   3.932  13.929  0.00  0.00    +0.000 C 
ATOM     17  C   UNL     1       6.633   4.127  12.994  0.00  0.00    +0.000 C 
ATOM     18  C   UNL     1       7.551   5.134  13.684  0.00  0.00    +0.000 C 
ATOM     19  C   UNL     1       6.990   5.347  15.090  0.00  0.00    +0.000 C 
ENDBRANCH  11  15
BRANCH   1  20
ATOM     20  N   UNL     1       2.913   7.808  17.875  0.00  0.00    +0.000 N 
ATOM     21  H   UNL     1       3.804   8.209  18.186  0.00  0.00    +0.000 HD
BRANCH  20  26
ATOM     22 CL   UNL     1      -1.431  11.467  19.717  0.00  0.00    +0.000 Cl
ATOM     23  C   UNL     1      -0.198  10.393  19.162  0.00  0.00    +0.000 A 
ATOM     24  C   UNL     1       0.912  10.193  19.984  0.00  0.00    +0.000 A 
ATOM     25  C   UNL     1       1.944   9.339  19.579  0.00  0.00    +0.000 A 
ATOM     26  C   UNL     1       1.895   8.696  18.335  0.00  0.00    +0.000 A 
ATOM     27  C   UNL     1       0.754   8.868  17.539  0.00  0.00    +0.000 A 
ATOM     28  C   UNL     1      -0.279   9.723  17.939  0.00  0.00    +0.000 A 
ATOM     29 CL   UNL     1      -1.622   9.911  16.866  0.00  0.00    +0.000 Cl
ENDBRANCH  20  26
ENDBRANCH   1  20
TORSDOF 3
ENDMDL
MODEL 5
REMARK VINA RESULT:      -8.7      1.179      1.947
REMARK  Name = 
REMARK  3 active torsions:
REMARK  status: ('A' for Active; 'I' for Inactive)
REMARK    1  A    between atoms: C_5  and  N_6
REMARK    2  A    between atoms: N_6  and  C_7
REMARK    3  A    between atoms: C_17  and  C_18
REMARK                            x       y       z     vdW  Elec       q    Type
REMARK                         _______ _______ _______ _____ _____    ______ ____
ROOT
ATOM      1  C   UNL     1       2.589   6.733  19.132  0.00  0.00    +0.000 A 
ATOM      2  N   UNL     1       2.151   6.043  20.248  0.00  0.00    +0.000 N 
ATOM      3  C   UNL     1       2.444   4.687  20.476  0.00  0.00    +0.000 A 
ATOM      4  C   UNL     1       1.962   4.037  21.614  0.00  0.00    +0.000 A 
ATOM      5  C   UNL     1       2.317   2.708  21.863  0.00  0.00    +0.000 A 
ATOM      6  C   UNL     1       3.164   2.024  20.986  0.00  0.00    +0.000 A 
ATOM      7  C   UNL     1       3.660   2.660  19.845  0.00  0.00    +0.000 A 
ATOM      8  C   UNL     1       3.298   3.983  19.598  0.00  0.00    +0.000 A 
ATOM      9  C   UNL     1       3.781   4.721  18.431  0.00  0.00    +0.000 A 
ATOM     10  N   UNL     1       4.585   4.367  17.465  0.00  0.00    +0.000 NA
ATOM     11  C   UNL     1       4.668   5.530  16.691  0.00  0.00    +0.000 A 
ATOM     12  N   UNL     1       3.950   6.553  17.074  0.00  0.00    +0.000 NA
ATOM     13  C   UNL     1       3.361   6.102  18.225  0.00  0.00    +0.000 A 
ATOM     14  H   UNL     1       1.447   6.511  20.799  0.00  0.00    +0.000 HD
ENDROOT
BRANCH  11  15
ATOM     15  C   UNL     1       5.548   5.583  15.465  0.00  0.00    +0.000 C 
ATOM     16  C   UNL     1       7.026   5.352  15.753  0.00  0.00    +0.000 C 
ATOM     17  C   UNL     1       7.614   4.967  14.404  0.00  0.00    +0.000 C 
ATOM     18  C   UNL     1       6.480   4.300  13.628  0.00  0.00    +0.000 C 
ATOM     19  C   UNL     1       5.210   4.492  14.456  0.00  0.00    +0.000 C 
ENDBRANCH  11  15
BRANCH   1  20
ATOM     20  N   UNL     1       2.232   8.067  18.948  0.00  0.00    +0.000 N 
ATOM     21  H   UNL     1       3.099   8.606  18.851  0.00  0.00    +0.000 HD
BRANCH  20  26
ATOM     22 CL   UNL     1      -1.133  10.950  22.951  0.00  0.00    +0.000 Cl
ATOM     23  C   UNL     1      -0.184  10.125  21.767  0.00  0.00    +0.000 A 
ATOM     24  C   UNL     1       0.710   9.151  22.212  0.00  0.00    +0.000 A 
ATOM     25  C   UNL     1       1.510   8.458  21.297  0.00  0.00    +0.000 A 
ATOM     26  C   UNL     1       1.448   8.749  19.927  0.00  0.00    +0.000 A 
ATOM     27  C   UNL     1       0.513   9.696  19.488  0.00  0.00    +0.000 A 
ATOM     28  C   UNL     1      -0.287  10.394  20.400  0.00  0.00    +0.000 A 
ATOM     29 CL   UNL     1      -1.374  11.580  19.767  0.00  0.00    +0.000 Cl
ENDBRANCH  20  26
ENDBRANCH   1  20
TORSDOF 3
ENDMDL
MODEL 6
REMARK VINA RESULT:      -8.7      3.695      7.067
REMARK  Name = 
REMARK  3 active torsions:
REMARK  status: ('A' for Active; 'I' for Inactive)
REMARK    1  A    between atoms: C_5  and  N_6
REMARK    2  A    between atoms: N_6  and  C_7
REMARK    3  A    between atoms: C_17  and  C_18
REMARK                            x       y       z     vdW  Elec       q    Type
REMARK                         _______ _______ _______ _____ _____    ______ ____
ROOT
ATOM      1  C   UNL     1       4.654   5.770  18.059  0.00  0.00    +0.000 A 
ATOM      2  N   UNL     1       4.661   4.537  18.685  0.00  0.00    +0.000 N 
ATOM      3  C   UNL     1       3.685   4.144  19.617  0.00  0.00    +0.000 A 
ATOM      4  C   UNL     1       3.751   2.892  20.230  0.00  0.00    +0.000 A 
ATOM      5  C   UNL     1       2.738   2.486  21.104  0.00  0.00    +0.000 A 
ATOM      6  C   UNL     1       1.648   3.323  21.363  0.00  0.00    +0.000 A 
ATOM      7  C   UNL     1       1.563   4.579  20.754  0.00  0.00    +0.000 A 
ATOM      8  C   UNL     1       2.579   4.980  19.888  0.00  0.00    +0.000 A 
ATOM      9  C   UNL     1       2.560   6.274  19.207  0.00  0.00    +0.000 A 
ATOM     10  N   UNL     1       1.683   7.241  19.227  0.00  0.00    +0.000 NA
ATOM     11  C   UNL     1       2.233   8.175  18.343  0.00  0.00    +0.000 A 
ATOM     12  N   UNL     1       3.393   7.884  17.815  0.00  0.00    +0.000 NA
ATOM     13  C   UNL     1       3.656   6.638  18.317  0.00  0.00    +0.000 A 
ATOM     14  H   UNL     1       5.512   4.003  18.583  0.00  0.00    +0.000 HD
ENDROOT
BRANCH  11  15
ATOM     15  C   UNL     1       1.510   9.462  18.028  0.00  0.00    +0.000 C 
ATOM     16  C   UNL     1       0.372   9.785  18.989  0.00  0.00    +0.000 C 
ATOM     17  C   UNL     1       0.134  11.275  18.799  0.00  0.00    +0.000 C 
ATOM     18  C   UNL     1       1.478  11.864  18.378  0.00  0.00    +0.000 C 
ATOM     19  C   UNL     1       2.417  10.683  18.133  0.00  0.00    +0.000 C 
ENDBRANCH  11  15
BRANCH   1  20
ATOM     20  N   UNL     1       5.673   6.111  17.171  0.00  0.00    +0.000 N 
ATOM     21  H   UNL     1       5.531   7.090  16.902  0.00  0.00    +0.000 HD
BRANCH  20  26
ATOM     22 CL   UNL     1       6.524   3.115  12.076  0.00  0.00    +0.000 Cl
ATOM     23  C   UNL     1       6.313   3.993  13.548  0.00  0.00    +0.000 A 
ATOM     24  C   UNL     1       5.271   3.608  14.393  0.00  0.00    +0.000 A 
ATOM     25  C   UNL     1       5.050   4.290  15.595  0.00  0.00    +0.000 A 
ATOM     26  C   UNL     1       5.847   5.385  15.954  0.00  0.00    +0.000 A 
ATOM     27  C   UNL     1       6.919   5.733  15.120  0.00  0.00    +0.000 A 
ATOM     28  C   UNL     1       7.142   5.055  13.916  0.00  0.00    +0.000 A 
ATOM     29 CL   UNL     1       8.457   5.590  12.929  0.00  0.00    +0.000 Cl
ENDBRANCH  20  26
ENDBRANCH   1  20
TORSDOF 3
ENDMDL
MODEL 7
REMARK VINA RESULT:      -8.6      1.297      1.927
REMARK  Name = 
REMARK  3 active torsions:
REMARK  status: ('A' for Active; 'I' for Inactive)
REMARK    1  A    between atoms: C_5  and  N_6
REMARK    2  A    between atoms: N_6  and  C_7
REMARK    3  A    between atoms: C_17  and  C_18
REMARK                            x       y       z     vdW  Elec       q    Type
REMARK                         _______ _______ _______ _____ _____    ______ ____
ROOT
ATOM      1  C   UNL     1       2.665   7.142  18.701  0.00  0.00    +0.000 A 
ATOM      2  N   UNL     1       1.981   6.505  19.721  0.00  0.00    +0.000 N 
ATOM      3  C   UNL     1       1.928   5.107  19.852  0.00  0.00    +0.000 A 
ATOM      4  C   UNL     1       1.209   4.518  20.893  0.00  0.00    +0.000 A 
ATOM      5  C   UNL     1       1.218   3.129  21.052  0.00  0.00    +0.000 A 
ATOM      6  C   UNL     1       1.956   2.321  20.181  0.00  0.00    +0.000 A 
ATOM      7  C   UNL     1       2.685   2.894  19.136  0.00  0.00    +0.000 A 
ATOM      8  C   UNL     1       2.667   4.278  18.978  0.00  0.00    +0.000 A 
ATOM      9  C   UNL     1       3.410   4.954  17.915  0.00  0.00    +0.000 A 
ATOM     10  N   UNL     1       4.191   4.483  16.981  0.00  0.00    +0.000 NA
ATOM     11  C   UNL     1       4.612   5.640  16.317  0.00  0.00    +0.000 A 
ATOM     12  N   UNL     1       4.122   6.778  16.736  0.00  0.00    +0.000 NA
ATOM     13  C   UNL     1       3.345   6.407  17.800  0.00  0.00    +0.000 A 
ATOM     14  H   UNL     1       1.360   7.091  20.259  0.00  0.00    +0.000 HD
ENDROOT
BRANCH  11  15
ATOM     15  C   UNL     1       5.584   5.562  15.165  0.00  0.00    +0.000 C 
ATOM     16  C   UNL     1       7.023   5.289  15.586  0.00  0.00    +0.000 C 
ATOM     17  C   UNL     1       7.692   4.778  14.319  0.00  0.00    +0.000 C 
ATOM     18  C   UNL     1       6.589   4.105  13.505  0.00  0.00    +0.000 C 
ATOM     19  C   UNL     1       5.270   4.415  14.213  0.00  0.00    +0.000 C 
ENDBRANCH  11  15
BRANCH   1  20
ATOM     20  N   UNL     1       2.648   8.533  18.608  0.00  0.00    +0.000 N 
ATOM     21  H   UNL     1       3.333   8.894  19.280  0.00  0.00    +0.000 HD
BRANCH  20  26
ATOM     22 CL   UNL     1      -2.455  11.507  19.484  0.00  0.00    +0.000 Cl
ATOM     23  C   UNL     1      -0.996  10.628  19.203  0.00  0.00    +0.000 A 
ATOM     24  C   UNL     1      -0.058  10.576  20.235  0.00  0.00    +0.000 A 
ATOM     25  C   UNL     1       1.146   9.884  20.060  0.00  0.00    +0.000 A 
ATOM     26  C   UNL     1       1.442   9.260  18.840  0.00  0.00    +0.000 A 
ATOM     27  C   UNL     1       0.472   9.280  17.828  0.00  0.00    +0.000 A 
ATOM     28  C   UNL     1      -0.732   9.973  17.998  0.00  0.00    +0.000 A 
ATOM     29 CL   UNL     1      -1.843   9.984  16.674  0.00  0.00    +0.000 Cl
ENDBRANCH  20  26
ENDBRANCH   1  20
TORSDOF 3
ENDMDL
MODEL 8
REMARK VINA RESULT:      -8.6      1.338      1.419
REMARK  Name = 
REMARK  3 active torsions:
REMARK  status: ('A' for Active; 'I' for Inactive)
REMARK    1  A    between atoms: C_5  and  N_6
REMARK    2  A    between atoms: N_6  and  C_7
REMARK    3  A    between atoms: C_17  and  C_18
REMARK                            x       y       z     vdW  Elec       q    Type
REMARK                         _______ _______ _______ _____ _____    ______ ____
ROOT
ATOM      1  C   UNL     1       3.291   6.778  18.077  0.00  0.00    +0.000 A 
ATOM      2  N   UNL     1       2.636   6.489  19.261  0.00  0.00    +0.000 N 
ATOM      3  C   UNL     1       2.583   5.198  19.813  0.00  0.00    +0.000 A 
ATOM      4  C   UNL     1       1.894   4.962  21.004  0.00  0.00    +0.000 A 
ATOM      5  C   UNL     1       1.904   3.688  21.578  0.00  0.00    +0.000 A 
ATOM      6  C   UNL     1       2.612   2.644  20.973  0.00  0.00    +0.000 A 
ATOM      7  C   UNL     1       3.311   2.863  19.783  0.00  0.00    +0.000 A 
ATOM      8  C   UNL     1       3.292   4.134  19.212  0.00  0.00    +0.000 A 
ATOM      9  C   UNL     1       4.004   4.446  17.973  0.00  0.00    +0.000 A 
ATOM     10  N   UNL     1       4.755   3.703  17.205  0.00  0.00    +0.000 NA
ATOM     11  C   UNL     1       5.159   4.599  16.209  0.00  0.00    +0.000 A 
ATOM     12  N   UNL     1       4.685   5.816  16.275  0.00  0.00    +0.000 NA
ATOM     13  C   UNL     1       3.940   5.795  17.423  0.00  0.00    +0.000 A 
ATOM     14  H   UNL     1       2.034   7.219  19.613  0.00  0.00    +0.000 HD
ENDROOT
BRANCH  11  15
ATOM     15  C   UNL     1       6.094   4.162  15.108  0.00  0.00    +0.000 C 
ATOM     16  C   UNL     1       5.397   3.853  13.789  0.00  0.00    +0.000 C 
ATOM     17  C   UNL     1       6.508   3.923  12.753  0.00  0.00    +0.000 C 
ATOM     18  C   UNL     1       7.531   4.915  13.302  0.00  0.00    +0.000 C 
ATOM     19  C   UNL     1       7.099   5.245  14.731  0.00  0.00    +0.000 C 
ENDBRANCH  11  15
BRANCH   1  20
ATOM     20  N   UNL     1       3.275   8.075  17.566  0.00  0.00    +0.000 N 
ATOM     21  H   UNL     1       4.128   8.542  17.889  0.00  0.00    +0.000 HD
BRANCH  20  26
ATOM     22 CL   UNL     1      -1.155  11.878  18.820  0.00  0.00    +0.000 Cl
ATOM     23  C   UNL     1       0.150  10.807  18.454  0.00  0.00    +0.000 A 
ATOM     24  C   UNL     1      -0.167   9.534  17.976  0.00  0.00    +0.000 A 
ATOM     25  C   UNL     1       0.850   8.623  17.671  0.00  0.00    +0.000 A 
ATOM     26  C   UNL     1       2.196   8.960  17.868  0.00  0.00    +0.000 A 
ATOM     27  C   UNL     1       2.503  10.256  18.304  0.00  0.00    +0.000 A 
ATOM     28  C   UNL     1       1.489  11.170  18.613  0.00  0.00    +0.000 A 
ATOM     29 CL   UNL     1       1.964  12.727  19.193  0.00  0.00    +0.000 Cl
ENDBRANCH  20  26
ENDBRANCH   1  20
TORSDOF 3
ENDMDL
MODEL 9
REMARK VINA RESULT:      -8.4      4.436     10.038
REMARK  Name = 
REMARK  3 active torsions:
REMARK  status: ('A' for Active; 'I' for Inactive)
REMARK    1  A    between atoms: C_5  and  N_6
REMARK    2  A    between atoms: N_6  and  C_7
REMARK    3  A    between atoms: C_17  and  C_18
REMARK                            x       y       z     vdW  Elec       q    Type
REMARK                         _______ _______ _______ _____ _____    ______ ____
ROOT
ATOM      1  C   UNL     1      -0.153  10.677  19.116  0.00  0.00    +0.000 A 
ATOM      2  N   UNL     1      -0.618  10.339  17.858  0.00  0.00    +0.000 N 
ATOM      3  C   UNL     1      -1.931  10.600  17.430  0.00  0.00    +0.000 A 
ATOM      4  C   UNL     1      -2.351  10.223  16.154  0.00  0.00    +0.000 A 
ATOM      5  C   UNL     1      -3.638  10.549  15.716  0.00  0.00    +0.000 A 
ATOM      6  C   UNL     1      -4.509  11.263  16.544  0.00  0.00    +0.000 A 
ATOM      7  C   UNL     1      -4.104  11.652  17.824  0.00  0.00    +0.000 A 
ATOM      8  C   UNL     1      -2.822  11.320  18.258  0.00  0.00    +0.000 A 
ATOM      9  C   UNL     1      -2.321  11.698  19.578  0.00  0.00    +0.000 A 
ATOM     10  N   UNL     1      -2.879  12.373  20.547  0.00  0.00    +0.000 NA
ATOM     11  C   UNL     1      -1.870  12.416  21.515  0.00  0.00    +0.000 A 
ATOM     12  N   UNL     1      -0.756  11.788  21.242  0.00  0.00    +0.000 NA
ATOM     13  C   UNL     1      -0.971  11.315  19.975  0.00  0.00    +0.000 A 
ATOM     14  H   UNL     1      -0.023   9.721  17.326  0.00  0.00    +0.000 HD
ENDROOT
BRANCH  11  15
ATOM     15  C   UNL     1      -2.075  13.153  22.816  0.00  0.00    +0.000 C 
ATOM     16  C   UNL     1      -2.413  14.630  22.645  0.00  0.00    +0.000 C 
ATOM     17  C   UNL     1      -3.037  15.027  23.974  0.00  0.00    +0.000 C 
ATOM     18  C   UNL     1      -3.687  13.760  24.526  0.00  0.00    +0.000 C 
ATOM     19  C   UNL     1      -3.255  12.612  23.614  0.00  0.00    +0.000 C 
ENDBRANCH  11  15
BRANCH   1  20
ATOM     20  N   UNL     1       1.152  10.356  19.490  0.00  0.00    +0.000 N 
ATOM     21  H   UNL     1       1.766  11.086  19.115  0.00  0.00    +0.000 HD
BRANCH  20  26
ATOM     22 CL   UNL     1       3.500   5.084  17.958  0.00  0.00    +0.000 Cl
ATOM     23  C   UNL     1       2.799   6.591  18.425  0.00  0.00    +0.000 A 
ATOM     24  C   UNL     1       2.881   7.655  17.526  0.00  0.00    +0.000 A 
ATOM     25  C   UNL     1       2.337   8.901  17.857  0.00  0.00    +0.000 A 
ATOM     26  C   UNL     1       1.731   9.110  19.103  0.00  0.00    +0.000 A 
ATOM     27  C   UNL     1       1.613   8.022  19.979  0.00  0.00    +0.000 A 
ATOM     28  C   UNL     1       2.158   6.774  19.653  0.00  0.00    +0.000 A 
ATOM     29 CL   UNL     1       2.009   5.507  20.819  0.00  0.00    +0.000 Cl
ENDBRANCH  20  26
ENDBRANCH   1  20
TORSDOF 3
ENDMDL
