MODEL 1
REMARK VINA RESULT:      -8.0      0.000      0.000
REMARK  Name = 
REMARK  8 active torsions:
REMARK  status: ('A' for Active; 'I' for Inactive)
REMARK    1  A    between atoms: C_7  and  C_8
REMARK    2  A    between atoms: C_8  and  N_9
REMARK    3  A    between atoms: N_9  and  C_10
REMARK    4  A    between atoms: C_10  and  C_11
REMARK    5  A    between atoms: C_14  and  C_15
REMARK    6  A    between atoms: C_15  and  N_16
REMARK    7  A    between atoms: N_16  and  C_17
REMARK    8  A    between atoms: C_17  and  C_18
REMARK                            x       y       z     vdW  Elec       q    Type
REMARK                         _______ _______ _______ _____ _____    ______ ____
ROOT
ATOM      1  C   UNL     1       5.478   5.033  17.166  0.00  0.00    +0.000 C 
ATOM      2  C   UNL     1       6.916   4.634  17.569  0.00  0.00    +0.000 C 
ATOM      3  C   UNL     1       7.584   5.726  18.398  0.00  0.00    +0.000 C 
ATOM      4  C   UNL     1       7.642   7.049  17.615  0.00  0.00    +0.000 C 
ATOM      5  C   UNL     1       6.208   7.476  17.232  0.00  0.00    +0.000 C 
ATOM      6  C   UNL     1       5.523   6.374  16.395  0.00  0.00    +0.000 C 
ENDROOT
BRANCH   1   7
ATOM      7  C   UNL     1       4.805   3.927  16.313  0.00  0.00    +0.000 C 
BRANCH   7   8
ATOM      8  N   UNL     1       3.491   3.548  16.861  0.00  0.00    +0.000 NA
ATOM      9  H   UNL     1       3.109   4.339  17.425  0.00  0.00    +0.000 HD
BRANCH   8  10
ATOM     10  C   UNL     1       3.591   2.415  17.784  0.00  0.00    +0.000 C 
BRANCH  10  17
ATOM     11 CL   UNL     1       4.928   1.721  20.596  0.00  0.00    +0.000 Cl
ATOM     12  C   UNL     1       3.351   2.464  20.347  0.00  0.00    +0.000 A 
ATOM     13  C   UNL     1       2.601   2.796  21.483  0.00  0.00    +0.000 A 
ATOM     14  C   UNL     1       1.347   3.396  21.353  0.00  0.00    +0.000 A 
ATOM     15  C   UNL     1       0.833   3.669  20.086  0.00  0.00    +0.000 A 
ATOM     16  C   UNL     1       1.571   3.345  18.945  0.00  0.00    +0.000 A 
ATOM     17  C   UNL     1       2.835   2.738  19.056  0.00  0.00    +0.000 A 
ENDBRANCH  10  17
ENDBRANCH   8  10
ENDBRANCH   7   8
ENDBRANCH   1   7
BRANCH   4  18
ATOM     18  C   UNL     1       8.373   8.123  18.448  0.00  0.00    +0.000 C 
BRANCH  18  19
ATOM     19  N   UNL     1       8.443   9.375  17.680  0.00  0.00    +0.000 NA
ATOM     20  H   UNL     1       7.686   9.373  16.957  0.00  0.00    +0.000 HD
BRANCH  19  21
ATOM     21  C   UNL     1       8.281  10.561  18.527  0.00  0.00    +0.000 C 
BRANCH  21  22
ATOM     22  C   UNL     1       9.645  11.139  18.851  0.00  0.00    +0.000 A 
ATOM     23  C   UNL     1      10.567  11.316  17.800  0.00  0.00    +0.000 A 
ATOM     24  C   UNL     1      11.835  11.849  18.046  0.00  0.00    +0.000 A 
ATOM     25  C   UNL     1      12.202  12.214  19.341  0.00  0.00    +0.000 A 
ATOM     26  C   UNL     1      11.302  12.044  20.395  0.00  0.00    +0.000 A 
ATOM     27  C   UNL     1      10.027  11.509  20.163  0.00  0.00    +0.000 A 
ATOM     28 CL   UNL     1       8.950  11.334  21.544  0.00  0.00    +0.000 Cl
ENDBRANCH  21  22
ENDBRANCH  19  21
ENDBRANCH  18  19
ENDBRANCH   4  18
TORSDOF 8
ENDMDL
MODEL 2
REMARK VINA RESULT:      -7.7      5.654      8.651
REMARK  Name = 
REMARK  8 active torsions:
REMARK  status: ('A' for Active; 'I' for Inactive)
REMARK    1  A    between atoms: C_7  and  C_8
REMARK    2  A    between atoms: C_8  and  N_9
REMARK    3  A    between atoms: N_9  and  C_10
REMARK    4  A    between atoms: C_10  and  C_11
REMARK    5  A    between atoms: C_14  and  C_15
REMARK    6  A    between atoms: C_15  and  N_16
REMARK    7  A    between atoms: N_16  and  C_17
REMARK    8  A    between atoms: C_17  and  C_18
REMARK                            x       y       z     vdW  Elec       q    Type
REMARK                         _______ _______ _______ _____ _____    ______ ____
ROOT
ATOM      1  C   UNL     1       2.267   5.442  18.776  0.00  0.00    +0.000 C 
ATOM      2  C   UNL     1       2.169   5.557  20.315  0.00  0.00    +0.000 C 
ATOM      3  C   UNL     1       1.297   6.736  20.729  0.00  0.00    +0.000 C 
ATOM      4  C   UNL     1       1.859   8.055  20.173  0.00  0.00    +0.000 C 
ATOM      5  C   UNL     1       1.933   7.966  18.633  0.00  0.00    +0.000 C 
ATOM      6  C   UNL     1       2.814   6.772  18.204  0.00  0.00    +0.000 C 
ENDROOT
BRANCH   1   7
ATOM      7  C   UNL     1       3.165   4.249  18.357  0.00  0.00    +0.000 C 
BRANCH   7   8
ATOM      8  N   UNL     1       3.749   4.459  17.021  0.00  0.00    +0.000 NA
ATOM      9  H   UNL     1       3.207   3.913  16.314  0.00  0.00    +0.000 HD
BRANCH   8  10
ATOM     10  C   UNL     1       5.123   3.956  16.942  0.00  0.00    +0.000 C 
BRANCH  10  17
ATOM     11 CL   UNL     1       5.194   6.723  15.356  0.00  0.00    +0.000 Cl
ATOM     12  C   UNL     1       6.178   6.296  16.753  0.00  0.00    +0.000 A 
ATOM     13  C   UNL     1       7.080   7.257  17.231  0.00  0.00    +0.000 A 
ATOM     14  C   UNL     1       7.882   6.984  18.341  0.00  0.00    +0.000 A 
ATOM     15  C   UNL     1       7.788   5.748  18.982  0.00  0.00    +0.000 A 
ATOM     16  C   UNL     1       6.893   4.782  18.516  0.00  0.00    +0.000 A 
ATOM     17  C   UNL     1       6.078   5.039  17.398  0.00  0.00    +0.000 A 
ENDBRANCH  10  17
ENDBRANCH   8  10
ENDBRANCH   7   8
ENDBRANCH   1   7
BRANCH   4  18
ATOM     18  C   UNL     1       0.995   9.241  20.653  0.00  0.00    +0.000 C 
BRANCH  18  19
ATOM     19  N   UNL     1       0.765  10.164  19.532  0.00  0.00    +0.000 NA
ATOM     20  H   UNL     1       0.517   9.610  18.679  0.00  0.00    +0.000 HD
BRANCH  19  21
ATOM     21  C   UNL     1      -0.316  11.117  19.804  0.00  0.00    +0.000 C 
BRANCH  21  22
ATOM     22  C   UNL     1      -1.418  10.937  18.778  0.00  0.00    +0.000 A 
ATOM     23  C   UNL     1      -1.211  10.026  17.724  0.00  0.00    +0.000 A 
ATOM     24  C   UNL     1      -2.197   9.819  16.755  0.00  0.00    +0.000 A 
ATOM     25  C   UNL     1      -3.402  10.518  16.824  0.00  0.00    +0.000 A 
ATOM     26  C   UNL     1      -3.624  11.427  17.861  0.00  0.00    +0.000 A 
ATOM     27  C   UNL     1      -2.642  11.644  18.839  0.00  0.00    +0.000 A 
ATOM     28 CL   UNL     1      -3.002  12.801  20.116  0.00  0.00    +0.000 Cl
ENDBRANCH  21  22
ENDBRANCH  19  21
ENDBRANCH  18  19
ENDBRANCH   4  18
TORSDOF 8
ENDMDL
MODEL 3
REMARK VINA RESULT:      -7.6      6.051      8.958
REMARK  Name = 
REMARK  8 active torsions:
REMARK  status: ('A' for Active; 'I' for Inactive)
REMARK    1  A    between atoms: C_7  and  C_8
REMARK    2  A    between atoms: C_8  and  N_9
REMARK    3  A    between atoms: N_9  and  C_10
REMARK    4  A    between atoms: C_10  and  C_11
REMARK    5  A    between atoms: C_14  and  C_15
REMARK    6  A    between atoms: C_15  and  N_16
REMARK    7  A    between atoms: N_16  and  C_17
REMARK    8  A    between atoms: C_17  and  C_18
REMARK                            x       y       z     vdW  Elec       q    Type
REMARK                         _______ _______ _______ _____ _____    ______ ____
ROOT
ATOM      1  C   UNL     1       2.715   6.840  19.543  0.00  0.00    +0.000 C 
ATOM      2  C   UNL     1       2.375   7.220  18.083  0.00  0.00    +0.000 C 
ATOM      3  C   UNL     1       2.255   8.730  17.916  0.00  0.00    +0.000 C 
ATOM      4  C   UNL     1       1.161   9.297  18.838  0.00  0.00    +0.000 C 
ATOM      5  C   UNL     1       1.504   8.951  20.304  0.00  0.00    +0.000 C 
ATOM      6  C   UNL     1       1.630   7.423  20.481  0.00  0.00    +0.000 C 
ENDROOT
BRANCH   1   7
ATOM      7  C   UNL     1       2.824   5.302  19.713  0.00  0.00    +0.000 C 
BRANCH   7   8
ATOM      8  N   UNL     1       2.869   4.618  18.409  0.00  0.00    +0.000 NA
ATOM      9  H   UNL     1       2.001   4.051  18.284  0.00  0.00    +0.000 HD
BRANCH   8  10
ATOM     10  C   UNL     1       3.980   3.666  18.330  0.00  0.00    +0.000 C 
BRANCH  10  17
ATOM     11 CL   UNL     1       6.442   5.369  19.433  0.00  0.00    +0.000 Cl
ATOM     12  C   UNL     1       6.136   4.947  17.751  0.00  0.00    +0.000 A 
ATOM     13  C   UNL     1       7.058   5.389  16.791  0.00  0.00    +0.000 A 
ATOM     14  C   UNL     1       6.877   5.080  15.441  0.00  0.00    +0.000 A 
ATOM     15  C   UNL     1       5.774   4.328  15.040  0.00  0.00    +0.000 A 
ATOM     16  C   UNL     1       4.848   3.880  15.986  0.00  0.00    +0.000 A 
ATOM     17  C   UNL     1       5.012   4.183  17.350  0.00  0.00    +0.000 A 
ENDBRANCH  10  17
ENDBRANCH   8  10
ENDBRANCH   7   8
ENDBRANCH   1   7
BRANCH   4  18
ATOM     18  C   UNL     1       1.016  10.816  18.610  0.00  0.00    +0.000 C 
BRANCH  18  19
ATOM     19  N   UNL     1      -0.251  11.280  19.197  0.00  0.00    +0.000 NA
ATOM     20  H   UNL     1      -0.589  12.113  18.660  0.00  0.00    +0.000 HD
BRANCH  19  21
ATOM     21  C   UNL     1      -1.292  10.249  19.171  0.00  0.00    +0.000 C 
BRANCH  21  22
ATOM     22  C   UNL     1      -2.212  10.490  17.990  0.00  0.00    +0.000 A 
ATOM     23  C   UNL     1      -1.944   9.820  16.781  0.00  0.00    +0.000 A 
ATOM     24  C   UNL     1      -2.764  10.004  15.665  0.00  0.00    +0.000 A 
ATOM     25  C   UNL     1      -3.864  10.860  15.739  0.00  0.00    +0.000 A 
ATOM     26  C   UNL     1      -4.144  11.534  16.929  0.00  0.00    +0.000 A 
ATOM     27  C   UNL     1      -3.328  11.359  18.056  0.00  0.00    +0.000 A 
ATOM     28 CL   UNL     1      -3.754  12.240  19.519  0.00  0.00    +0.000 Cl
ENDBRANCH  21  22
ENDBRANCH  19  21
ENDBRANCH  18  19
ENDBRANCH   4  18
TORSDOF 8
ENDMDL
MODEL 4
REMARK VINA RESULT:      -7.6      5.127      7.137
REMARK  Name = 
REMARK  8 active torsions:
REMARK  status: ('A' for Active; 'I' for Inactive)
REMARK    1  A    between atoms: C_7  and  C_8
REMARK    2  A    between atoms: C_8  and  N_9
REMARK    3  A    between atoms: N_9  and  C_10
REMARK    4  A    between atoms: C_10  and  C_11
REMARK    5  A    between atoms: C_14  and  C_15
REMARK    6  A    between atoms: C_15  and  N_16
REMARK    7  A    between atoms: N_16  and  C_17
REMARK    8  A    between atoms: C_17  and  C_18
REMARK                            x       y       z     vdW  Elec       q    Type
REMARK                         _______ _______ _______ _____ _____    ______ ____
ROOT
ATOM      1  C   UNL     1       4.522   5.524  18.083  0.00  0.00    +0.000 C 
ATOM      2  C   UNL     1       3.978   6.180  19.373  0.00  0.00    +0.000 C 
ATOM      3  C   UNL     1       2.744   7.028  19.088  0.00  0.00    +0.000 C 
ATOM      4  C   UNL     1       3.065   8.137  18.071  0.00  0.00    +0.000 C 
ATOM      5  C   UNL     1       3.581   7.494  16.765  0.00  0.00    +0.000 C 
ATOM      6  C   UNL     1       4.830   6.632  17.046  0.00  0.00    +0.000 C 
ENDROOT
BRANCH   1   7
ATOM      7  C   UNL     1       5.785   4.673  18.374  0.00  0.00    +0.000 C 
BRANCH   7   8
ATOM      8  N   UNL     1       5.428   3.310  18.805  0.00  0.00    +0.000 NA
ATOM      9  H   UNL     1       6.137   2.634  18.445  0.00  0.00    +0.000 HD
BRANCH   8  10
ATOM     10  C   UNL     1       4.146   2.878  18.242  0.00  0.00    +0.000 C 
BRANCH  10  17
ATOM     11 CL   UNL     1       1.262   4.030  17.511  0.00  0.00    +0.000 Cl
ATOM     12  C   UNL     1       1.777   3.429  19.084  0.00  0.00    +0.000 A 
ATOM     13  C   UNL     1       0.839   3.444  20.125  0.00  0.00    +0.000 A 
ATOM     14  C   UNL     1       1.182   2.973  21.394  0.00  0.00    +0.000 A 
ATOM     15  C   UNL     1       2.465   2.482  21.632  0.00  0.00    +0.000 A 
ATOM     16  C   UNL     1       3.410   2.460  20.603  0.00  0.00    +0.000 A 
ATOM     17  C   UNL     1       3.083   2.933  19.319  0.00  0.00    +0.000 A 
ENDBRANCH  10  17
ENDBRANCH   8  10
ENDBRANCH   7   8
ENDBRANCH   1   7
BRANCH   4  18
ATOM     18  C   UNL     1       1.819   9.018  17.842  0.00  0.00    +0.000 C 
BRANCH  18  19
ATOM     19  N   UNL     1       1.015   9.059  19.073  0.00  0.00    +0.000 NA
ATOM     20  H   UNL     1       1.655   9.178  19.893  0.00  0.00    +0.000 HD
BRANCH  19  21
ATOM     21  C   UNL     1       0.043  10.157  19.071  0.00  0.00    +0.000 C 
BRANCH  21  22
ATOM     22  C   UNL     1      -0.405  10.436  20.492  0.00  0.00    +0.000 A 
ATOM     23  C   UNL     1      -0.133   9.474  21.484  0.00  0.00    +0.000 A 
ATOM     24  C   UNL     1      -0.520   9.686  22.810  0.00  0.00    +0.000 A 
ATOM     25  C   UNL     1      -1.185  10.860  23.165  0.00  0.00    +0.000 A 
ATOM     26  C   UNL     1      -1.465  11.824  22.195  0.00  0.00    +0.000 A 
ATOM     27  C   UNL     1      -1.082  11.624  20.861  0.00  0.00    +0.000 A 
ATOM     28 CL   UNL     1      -1.466  12.891  19.700  0.00  0.00    +0.000 Cl
ENDBRANCH  21  22
ENDBRANCH  19  21
ENDBRANCH  18  19
ENDBRANCH   4  18
TORSDOF 8
ENDMDL
MODEL 5
REMARK VINA RESULT:      -7.6      1.782      2.152
REMARK  Name = 
REMARK  8 active torsions:
REMARK  status: ('A' for Active; 'I' for Inactive)
REMARK    1  A    between atoms: C_7  and  C_8
REMARK    2  A    between atoms: C_8  and  N_9
REMARK    3  A    between atoms: N_9  and  C_10
REMARK    4  A    between atoms: C_10  and  C_11
REMARK    5  A    between atoms: C_14  and  C_15
REMARK    6  A    between atoms: C_15  and  N_16
REMARK    7  A    between atoms: N_16  and  C_17
REMARK    8  A    between atoms: C_17  and  C_18
REMARK                            x       y       z     vdW  Elec       q    Type
REMARK                         _______ _______ _______ _____ _____    ______ ____
ROOT
ATOM      1  C   UNL     1       6.287   5.546  17.939  0.00  0.00    +0.000 C 
ATOM      2  C   UNL     1       7.781   5.674  18.317  0.00  0.00    +0.000 C 
ATOM      3  C   UNL     1       8.128   7.098  18.737  0.00  0.00    +0.000 C 
ATOM      4  C   UNL     1       7.820   8.093  17.605  0.00  0.00    +0.000 C 
ATOM      5  C   UNL     1       6.323   7.997  17.238  0.00  0.00    +0.000 C 
ATOM      6  C   UNL     1       5.963   6.557  16.813  0.00  0.00    +0.000 C 
ENDROOT
BRANCH   1   7
ATOM      7  C   UNL     1       5.941   4.099  17.500  0.00  0.00    +0.000 C 
BRANCH   7   8
ATOM      8  N   UNL     1       5.314   3.340  18.596  0.00  0.00    +0.000 NA
ATOM      9  H   UNL     1       4.485   2.821  18.230  0.00  0.00    +0.000 HD
BRANCH   8  10
ATOM     10  C   UNL     1       4.799   4.221  19.646  0.00  0.00    +0.000 C 
BRANCH  10  17
ATOM     11 CL   UNL     1       2.414   5.541  17.990  0.00  0.00    +0.000 Cl
ATOM     12  C   UNL     1       2.254   4.365  19.291  0.00  0.00    +0.000 A 
ATOM     13  C   UNL     1       0.960   3.953  19.640  0.00  0.00    +0.000 A 
ATOM     14  C   UNL     1       0.767   3.016  20.657  0.00  0.00    +0.000 A 
ATOM     15  C   UNL     1       1.864   2.483  21.333  0.00  0.00    +0.000 A 
ATOM     16  C   UNL     1       3.159   2.885  20.994  0.00  0.00    +0.000 A 
ATOM     17  C   UNL     1       3.374   3.829  19.974  0.00  0.00    +0.000 A 
ENDBRANCH  10  17
ENDBRANCH   8  10
ENDBRANCH   7   8
ENDBRANCH   1   7
BRANCH   4  18
ATOM     18  C   UNL     1       8.232   9.518  18.029  0.00  0.00    +0.000 C 
BRANCH  18  19
ATOM     19  N   UNL     1       9.234   9.438  19.104  0.00  0.00    +0.000 NA
ATOM     20  H   UNL     1      10.167   9.219  18.683  0.00  0.00    +0.000 HD
BRANCH  19  21
ATOM     21  C   UNL     1       9.342  10.688  19.863  0.00  0.00    +0.000 C 
BRANCH  21  22
ATOM     22  C   UNL     1       9.935  11.766  18.977  0.00  0.00    +0.000 A 
ATOM     23  C   UNL     1      10.959  11.410  18.078  0.00  0.00    +0.000 A 
ATOM     24  C   UNL     1      11.535  12.365  17.237  0.00  0.00    +0.000 A 
ATOM     25  C   UNL     1      11.099  13.689  17.280  0.00  0.00    +0.000 A 
ATOM     26  C   UNL     1      10.087  14.062  18.167  0.00  0.00    +0.000 A 
ATOM     27  C   UNL     1       9.500  13.113  19.017  0.00  0.00    +0.000 A 
ATOM     28 CL   UNL     1       8.226  13.662  20.101  0.00  0.00    +0.000 Cl
ENDBRANCH  21  22
ENDBRANCH  19  21
ENDBRANCH  18  19
ENDBRANCH   4  18
TORSDOF 8
ENDMDL
MODEL 6
REMARK VINA RESULT:      -7.6      5.662      9.424
REMARK  Name = 
REMARK  8 active torsions:
REMARK  status: ('A' for Active; 'I' for Inactive)
REMARK    1  A    between atoms: C_7  and  C_8
REMARK    2  A    between atoms: C_8  and  N_9
REMARK    3  A    between atoms: N_9  and  C_10
REMARK    4  A    between atoms: C_10  and  C_11
REMARK    5  A    between atoms: C_14  and  C_15
REMARK    6  A    between atoms: C_15  and  N_16
REMARK    7  A    between atoms: N_16  and  C_17
REMARK    8  A    between atoms: C_17  and  C_18
REMARK                            x       y       z     vdW  Elec       q    Type
REMARK                         _______ _______ _______ _____ _____    ______ ____
ROOT
ATOM      1  C   UNL     1       2.230   8.274  19.374  0.00  0.00    +0.000 C 
ATOM      2  C   UNL     1       2.381   6.871  20.005  0.00  0.00    +0.000 C 
ATOM      3  C   UNL     1       3.650   6.177  19.521  0.00  0.00    +0.000 C 
ATOM      4  C   UNL     1       3.642   6.029  17.990  0.00  0.00    +0.000 C 
ATOM      5  C   UNL     1       3.523   7.427  17.345  0.00  0.00    +0.000 C 
ATOM      6  C   UNL     1       2.242   8.137  17.832  0.00  0.00    +0.000 C 
ENDROOT
BRANCH   1   7
ATOM      7  C   UNL     1       0.933   8.972  19.858  0.00  0.00    +0.000 C 
BRANCH   7   8
ATOM      8  N   UNL     1       0.325   9.781  18.787  0.00  0.00    +0.000 NA
ATOM      9  H   UNL     1       1.036  10.444  18.406  0.00  0.00    +0.000 HD
BRANCH   8  10
ATOM     10  C   UNL     1      -0.768  10.616  19.289  0.00  0.00    +0.000 C 
BRANCH  10  17
ATOM     11 CL   UNL     1      -3.323  12.444  19.846  0.00  0.00    +0.000 Cl
ATOM     12  C   UNL     1      -3.037  11.462  18.413  0.00  0.00    +0.000 A 
ATOM     13  C   UNL     1      -4.013  11.478  17.407  0.00  0.00    +0.000 A 
ATOM     14  C   UNL     1      -3.841  10.728  16.242  0.00  0.00    +0.000 A 
ATOM     15  C   UNL     1      -2.692   9.955  16.073  0.00  0.00    +0.000 A 
ATOM     16  C   UNL     1      -1.711   9.930  17.067  0.00  0.00    +0.000 A 
ATOM     17  C   UNL     1      -1.868  10.678  18.249  0.00  0.00    +0.000 A 
ENDBRANCH  10  17
ENDBRANCH   8  10
ENDBRANCH   7   8
ENDBRANCH   1   7
BRANCH   4  18
ATOM     18  C   UNL     1       4.906   5.273  17.528  0.00  0.00    +0.000 C 
BRANCH  18  19
ATOM     19  N   UNL     1       5.062   4.047  18.325  0.00  0.00    +0.000 NA
ATOM     20  H   UNL     1       5.001   4.291  19.341  0.00  0.00    +0.000 HD
BRANCH  19  21
ATOM     21  C   UNL     1       4.035   3.046  18.019  0.00  0.00    +0.000 C 
BRANCH  21  22
ATOM     22  C   UNL     1       3.035   2.984  19.157  0.00  0.00    +0.000 A 
ATOM     23  C   UNL     1       3.485   2.567  20.425  0.00  0.00    +0.000 A 
ATOM     24  C   UNL     1       2.605   2.498  21.508  0.00  0.00    +0.000 A 
ATOM     25  C   UNL     1       1.264   2.844  21.342  0.00  0.00    +0.000 A 
ATOM     26  C   UNL     1       0.799   3.259  20.092  0.00  0.00    +0.000 A 
ATOM     27  C   UNL     1       1.672   3.332  18.997  0.00  0.00    +0.000 A 
ATOM     28 CL   UNL     1       1.009   3.869  17.457  0.00  0.00    +0.000 Cl
ENDBRANCH  21  22
ENDBRANCH  19  21
ENDBRANCH  18  19
ENDBRANCH   4  18
TORSDOF 8
ENDMDL
MODEL 7
REMARK VINA RESULT:      -7.5      5.103      7.755
REMARK  Name = 
REMARK  8 active torsions:
REMARK  status: ('A' for Active; 'I' for Inactive)
REMARK    1  A    between atoms: C_7  and  C_8
REMARK    2  A    between atoms: C_8  and  N_9
REMARK    3  A    between atoms: N_9  and  C_10
REMARK    4  A    between atoms: C_10  and  C_11
REMARK    5  A    between atoms: C_14  and  C_15
REMARK    6  A    between atoms: C_15  and  N_16
REMARK    7  A    between atoms: N_16  and  C_17
REMARK    8  A    between atoms: C_17  and  C_18
REMARK                            x       y       z     vdW  Elec       q    Type
REMARK                         _______ _______ _______ _____ _____    ______ ____
ROOT
ATOM      1  C   UNL     1       1.540   6.922  20.136  0.00  0.00    +0.000 C 
ATOM      2  C   UNL     1       2.671   7.259  19.136  0.00  0.00    +0.000 C 
ATOM      3  C   UNL     1       2.753   6.223  18.020  0.00  0.00    +0.000 C 
ATOM      4  C   UNL     1       3.007   4.819  18.595  0.00  0.00    +0.000 C 
ATOM      5  C   UNL     1       1.868   4.457  19.573  0.00  0.00    +0.000 C 
ATOM      6  C   UNL     1       1.776   5.502  20.705  0.00  0.00    +0.000 C 
ENDROOT
BRANCH   1   7
ATOM      7  C   UNL     1       1.466   7.970  21.276  0.00  0.00    +0.000 C 
BRANCH   7   8
ATOM      8  N   UNL     1       0.344   8.904  21.078  0.00  0.00    +0.000 NA
ATOM      9  H   UNL     1      -0.264   8.557  20.303  0.00  0.00    +0.000 HD
BRANCH   8  10
ATOM     10  C   UNL     1       0.805  10.229  20.658  0.00  0.00    +0.000 C 
BRANCH  10  17
ATOM     11 CL   UNL     1       0.740  13.371  20.110  0.00  0.00    +0.000 Cl
ATOM     12  C   UNL     1      -0.224  12.149  19.286  0.00  0.00    +0.000 A 
ATOM     13  C   UNL     1      -1.106  12.581  18.286  0.00  0.00    +0.000 A 
ATOM     14  C   UNL     1      -1.892  11.661  17.590  0.00  0.00    +0.000 A 
ATOM     15  C   UNL     1      -1.803  10.301  17.888  0.00  0.00    +0.000 A 
ATOM     16  C   UNL     1      -0.927   9.857  18.882  0.00  0.00    +0.000 A 
ATOM     17  C   UNL     1      -0.129  10.770  19.595  0.00  0.00    +0.000 A 
ENDBRANCH  10  17
ENDBRANCH   8  10
ENDBRANCH   7   8
ENDBRANCH   1   7
BRANCH   4  18
ATOM     18  C   UNL     1       3.145   3.797  17.447  0.00  0.00    +0.000 C 
BRANCH  18  19
ATOM     19  N   UNL     1       4.507   3.240  17.449  0.00  0.00    +0.000 NA
ATOM     20  H   UNL     1       4.453   2.210  17.267  0.00  0.00    +0.000 HD
BRANCH  19  21
ATOM     21  C   UNL     1       5.365   3.853  16.431  0.00  0.00    +0.000 C 
BRANCH  21  22
ATOM     22  C   UNL     1       6.189   4.957  17.064  0.00  0.00    +0.000 A 
ATOM     23  C   UNL     1       7.074   4.620  18.107  0.00  0.00    +0.000 A 
ATOM     24  C   UNL     1       7.860   5.600  18.720  0.00  0.00    +0.000 A 
ATOM     25  C   UNL     1       7.775   6.928  18.303  0.00  0.00    +0.000 A 
ATOM     26  C   UNL     1       6.902   7.280  17.272  0.00  0.00    +0.000 A 
ATOM     27  C   UNL     1       6.107   6.308  16.648  0.00  0.00    +0.000 A 
ATOM     28 CL   UNL     1       5.037   6.833  15.352  0.00  0.00    +0.000 Cl
ENDBRANCH  21  22
ENDBRANCH  19  21
ENDBRANCH  18  19
ENDBRANCH   4  18
TORSDOF 8
ENDMDL
MODEL 8
REMARK VINA RESULT:      -7.5      1.826      9.751
REMARK  Name = 
REMARK  8 active torsions:
REMARK  status: ('A' for Active; 'I' for Inactive)
REMARK    1  A    between atoms: C_7  and  C_8
REMARK    2  A    between atoms: C_8  and  N_9
REMARK    3  A    between atoms: N_9  and  C_10
REMARK    4  A    between atoms: C_10  and  C_11
REMARK    5  A    between atoms: C_14  and  C_15
REMARK    6  A    between atoms: C_15  and  N_16
REMARK    7  A    between atoms: N_16  and  C_17
REMARK    8  A    between atoms: C_17  and  C_18
REMARK                            x       y       z     vdW  Elec       q    Type
REMARK                         _______ _______ _______ _____ _____    ______ ____
ROOT
ATOM      1  C   UNL     1       7.174   6.921  18.193  0.00  0.00    +0.000 C 
ATOM      2  C   UNL     1       7.118   6.416  16.732  0.00  0.00    +0.000 C 
ATOM      3  C   UNL     1       5.865   5.586  16.479  0.00  0.00    +0.000 C 
ATOM      4  C   UNL     1       5.815   4.371  17.421  0.00  0.00    +0.000 C 
ATOM      5  C   UNL     1       5.839   4.862  18.885  0.00  0.00    +0.000 C 
ATOM      6  C   UNL     1       7.104   5.706  19.149  0.00  0.00    +0.000 C 
ENDROOT
BRANCH   1   7
ATOM      7  C   UNL     1       8.456   7.754  18.451  0.00  0.00    +0.000 C 
BRANCH   7   8
ATOM      8  N   UNL     1       8.366   9.087  17.829  0.00  0.00    +0.000 NA
ATOM      9  H   UNL     1       9.189   9.235  17.203  0.00  0.00    +0.000 HD
BRANCH   8  10
ATOM     10  C   UNL     1       8.426  10.159  18.825  0.00  0.00    +0.000 C 
BRANCH  10  17
ATOM     11 CL   UNL     1       7.602  12.697  17.077  0.00  0.00    +0.000 Cl
ATOM     12  C   UNL     1       9.221  12.307  17.650  0.00  0.00    +0.000 A 
ATOM     13  C   UNL     1      10.259  13.190  17.320  0.00  0.00    +0.000 A 
ATOM     14  C   UNL     1      11.563  12.942  17.752  0.00  0.00    +0.000 A 
ATOM     15  C   UNL     1      11.841  11.809  18.516  0.00  0.00    +0.000 A 
ATOM     16  C   UNL     1      10.816  10.921  18.852  0.00  0.00    +0.000 A 
ATOM     17  C   UNL     1       9.496  11.153  18.425  0.00  0.00    +0.000 A 
ENDBRANCH  10  17
ENDBRANCH   8  10
ENDBRANCH   7   8
ENDBRANCH   1   7
BRANCH   4  18
ATOM     18  C   UNL     1       4.570   3.513  17.108  0.00  0.00    +0.000 C 
BRANCH  18  19
ATOM     19  N   UNL     1       3.412   4.393  16.887  0.00  0.00    +0.000 NA
ATOM     20  H   UNL     1       3.343   4.613  15.866  0.00  0.00    +0.000 HD
BRANCH  19  21
ATOM     21  C   UNL     1       2.153   3.782  17.323  0.00  0.00    +0.000 C 
BRANCH  21  22
ATOM     22  C   UNL     1       2.108   3.746  18.838  0.00  0.00    +0.000 A 
ATOM     23  C   UNL     1       1.914   2.506  19.476  0.00  0.00    +0.000 A 
ATOM     24  C   UNL     1       1.870   2.419  20.870  0.00  0.00    +0.000 A 
ATOM     25  C   UNL     1       2.018   3.567  21.648  0.00  0.00    +0.000 A 
ATOM     26  C   UNL     1       2.209   4.806  21.033  0.00  0.00    +0.000 A 
ATOM     27  C   UNL     1       2.255   4.907  19.635  0.00  0.00    +0.000 A 
ATOM     28 CL   UNL     1       2.506   6.505  18.939  0.00  0.00    +0.000 Cl
ENDBRANCH  21  22
ENDBRANCH  19  21
ENDBRANCH  18  19
ENDBRANCH   4  18
TORSDOF 8
ENDMDL
MODEL 9
REMARK VINA RESULT:      -7.4      6.040      8.764
REMARK  Name = 
REMARK  8 active torsions:
REMARK  status: ('A' for Active; 'I' for Inactive)
REMARK    1  A    between atoms: C_7  and  C_8
REMARK    2  A    between atoms: C_8  and  N_9
REMARK    3  A    between atoms: N_9  and  C_10
REMARK    4  A    between atoms: C_10  and  C_11
REMARK    5  A    between atoms: C_14  and  C_15
REMARK    6  A    between atoms: C_15  and  N_16
REMARK    7  A    between atoms: N_16  and  C_17
REMARK    8  A    between atoms: C_17  and  C_18
REMARK                            x       y       z     vdW  Elec       q    Type
REMARK                         _______ _______ _______ _____ _____    ______ ____
ROOT
ATOM      1  C   UNL     1       1.383   9.229  18.647  0.00  0.00    +0.000 C 
ATOM      2  C   UNL     1       2.475   8.488  17.839  0.00  0.00    +0.000 C 
ATOM      3  C   UNL     1       2.479   6.996  18.151  0.00  0.00    +0.000 C 
ATOM      4  C   UNL     1       2.724   6.750  19.650  0.00  0.00    +0.000 C 
ATOM      5  C   UNL     1       1.623   7.460  20.467  0.00  0.00    +0.000 C 
ATOM      6  C   UNL     1       1.610   8.972  20.156  0.00  0.00    +0.000 C 
ENDROOT
BRANCH   1   7
ATOM      7  C   UNL     1       1.389  10.748  18.337  0.00  0.00    +0.000 C 
BRANCH   7   8
ATOM      8  N   UNL     1       0.049  11.336  18.500  0.00  0.00    +0.000 NA
ATOM      9  H   UNL     1       0.034  11.937  19.355  0.00  0.00    +0.000 HD
BRANCH   8  10
ATOM     10  C   UNL     1      -0.974  10.311  18.719  0.00  0.00    +0.000 C 
BRANCH  10  17
ATOM     11 CL   UNL     1      -3.356  12.280  19.508  0.00  0.00    +0.000 Cl
ATOM     12  C   UNL     1      -3.207  11.374  18.006  0.00  0.00    +0.000 A 
ATOM     13  C   UNL     1      -4.221  11.527  17.050  0.00  0.00    +0.000 A 
ATOM     14  C   UNL     1      -4.157  10.843  15.835  0.00  0.00    +0.000 A 
ATOM     15  C   UNL     1      -3.079  10.001  15.564  0.00  0.00    +0.000 A 
ATOM     16  C   UNL     1      -2.061   9.840  16.507  0.00  0.00    +0.000 A 
ATOM     17  C   UNL     1      -2.109  10.520  17.738  0.00  0.00    +0.000 A 
ENDBRANCH  10  17
ENDBRANCH   8  10
ENDBRANCH   7   8
ENDBRANCH   1   7
BRANCH   4  18
ATOM     18  C   UNL     1       2.784   5.234  19.932  0.00  0.00    +0.000 C 
BRANCH  18  19
ATOM     19  N   UNL     1       4.175   4.841  20.204  0.00  0.00    +0.000 NA
ATOM     20  H   UNL     1       4.274   4.624  21.223  0.00  0.00    +0.000 HD
BRANCH  19  21
ATOM     21  C   UNL     1       4.586   3.665  19.431  0.00  0.00    +0.000 C 
BRANCH  21  22
ATOM     22  C   UNL     1       5.182   4.113  18.111  0.00  0.00    +0.000 A 
ATOM     23  C   UNL     1       6.493   4.628  18.106  0.00  0.00    +0.000 A 
ATOM     24  C   UNL     1       7.090   5.049  16.915  0.00  0.00    +0.000 A 
ATOM     25  C   UNL     1       6.388   4.964  15.712  0.00  0.00    +0.000 A 
ATOM     26  C   UNL     1       5.087   4.458  15.698  0.00  0.00    +0.000 A 
ATOM     27  C   UNL     1       4.476   4.032  16.886  0.00  0.00    +0.000 A 
ATOM     28 CL   UNL     1       2.835   3.401  16.782  0.00  0.00    +0.000 Cl
ENDBRANCH  21  22
ENDBRANCH  19  21
ENDBRANCH  18  19
ENDBRANCH   4  18
TORSDOF 8
ENDMDL
