MODEL 1
REMARK VINA RESULT:      -7.7      0.000      0.000
REMARK  Name = 
REMARK  7 active torsions:
REMARK  status: ('A' for Active; 'I' for Inactive)
REMARK    1  A    between atoms: C_1  and  N_2
REMARK    2  A    between atoms: N_9  and  C_10
REMARK    3  A    between atoms: C_10  and  C_11
REMARK    4  A    between atoms: C_11  and  C_12
REMARK    5  A    between atoms: C_12  and  N_13
REMARK    6  A    between atoms: N_16  and  C_17
REMARK    7  A    between atoms: N_28  and  C_29
REMARK                            x       y       z     vdW  Elec       q    Type
REMARK                         _______ _______ _______ _____ _____    ______ ____
ROOT
ATOM      1  C   UNL     1      -0.883  13.974  20.193  0.00  0.00    +0.000 C 
ATOM      2  N   UNL     1      -0.508  12.610  20.518  0.00  0.00    +0.000 N 
ATOM      3  C   UNL     1       0.257  11.909  19.587  0.00  0.00    +0.000 A 
ATOM      4  O   UNL     1       0.623  12.360  18.506  0.00  0.00    +0.000 OA
ATOM      5  C   UNL     1       0.579  10.604  20.019  0.00  0.00    +0.000 A 
ATOM      6  C   UNL     1       0.184  10.053  21.210  0.00  0.00    +0.000 A 
ATOM      7  N   UNL     1       0.647   8.756  21.370  0.00  0.00    +0.000 NA
ATOM      8  C   UNL     1       1.333   8.547  20.267  0.00  0.00    +0.000 A 
ATOM      9  N   UNL     1       2.079   7.605  19.616  0.00  0.00    +0.000 N 
ATOM     10  C   UNL     1       2.471   8.142  18.376  0.00  0.00    +0.000 A 
ATOM     11  C   UNL     1       1.997   9.397  18.260  0.00  0.00    +0.000 A 
ATOM     12  N   UNL     1       1.304   9.642  19.426  0.00  0.00    +0.000 N 
ATOM     13  N   UNL     1      -0.589  10.790  22.086  0.00  0.00    +0.000 N 
ATOM     14  C   UNL     1      -1.045  10.272  23.360  0.00  0.00    +0.000 C 
ATOM     15  C   UNL     1      -0.953  12.107  21.755  0.00  0.00    +0.000 A 
ATOM     16  O   UNL     1      -1.632  12.801  22.517  0.00  0.00    +0.000 OA
ENDROOT
BRANCH   9  17
ATOM     17  C   UNL     1       2.253   6.227  20.037  0.00  0.00    +0.000 C 
BRANCH  17  18
ATOM     18  C   UNL     1       3.089   5.435  19.020  0.00  0.00    +0.000 C 
BRANCH  18  19
ATOM     19  C   UNL     1       4.508   5.118  19.538  0.00  0.00    +0.000 C 
BRANCH  19  20
ATOM     20  N   UNL     1       5.399   4.668  18.476  0.00  0.00    +0.000 NA
ATOM     21  C   UNL     1       4.920   3.557  17.632  0.00  0.00    +0.000 C 
ATOM     22  C   UNL     1       4.497   3.861  16.166  0.00  0.00    +0.000 C 
ATOM     23  N   UNL     1       5.438   4.795  15.547  0.00  0.00    +0.000 N 
ATOM     24  C   UNL     1       5.604   6.037  16.305  0.00  0.00    +0.000 C 
ATOM     25  C   UNL     1       6.102   5.726  17.730  0.00  0.00    +0.000 C 
BRANCH  23  26
ATOM     26  C   UNL     1       6.066   4.568  14.341  0.00  0.00    +0.000 A 
ATOM     27  C   UNL     1       7.270   5.199  13.996  0.00  0.00    +0.000 A 
ATOM     28  C   UNL     1       7.913   4.957  12.772  0.00  0.00    +0.000 A 
ATOM     29  C   UNL     1       7.355   4.078  11.851  0.00  0.00    +0.000 A 
ATOM     30  C   UNL     1       6.154   3.448  12.155  0.00  0.00    +0.000 A 
ATOM     31  C   UNL     1       5.526   3.691  13.384  0.00  0.00    +0.000 A 
ENDBRANCH  23  26
ENDBRANCH  19  20
ENDBRANCH  18  19
ENDBRANCH  17  18
ENDBRANCH   9  17
TORSDOF 5
ENDMDL
MODEL 2
REMARK VINA RESULT:      -7.7      0.998      1.134
REMARK  Name = 
REMARK  7 active torsions:
REMARK  status: ('A' for Active; 'I' for Inactive)
REMARK    1  A    between atoms: C_1  and  N_2
REMARK    2  A    between atoms: N_9  and  C_10
REMARK    3  A    between atoms: C_10  and  C_11
REMARK    4  A    between atoms: C_11  and  C_12
REMARK    5  A    between atoms: C_12  and  N_13
REMARK    6  A    between atoms: N_16  and  C_17
REMARK    7  A    between atoms: N_28  and  C_29
REMARK                            x       y       z     vdW  Elec       q    Type
REMARK                         _______ _______ _______ _____ _____    ______ ____
ROOT
ATOM      1  C   UNL     1       0.384  12.946  19.866  0.00  0.00    +0.000 C 
ATOM      2  N   UNL     1       0.561  11.555  20.241  0.00  0.00    +0.000 N 
ATOM      3  C   UNL     1       1.131  10.698  19.300  0.00  0.00    +0.000 A 
ATOM      4  O   UNL     1       1.479  11.035  18.173  0.00  0.00    +0.000 OA
ATOM      5  C   UNL     1       1.274   9.378  19.782  0.00  0.00    +0.000 A 
ATOM      6  C   UNL     1       0.891   8.952  21.026  0.00  0.00    +0.000 A 
ATOM      7  N   UNL     1       1.153   7.606  21.227  0.00  0.00    +0.000 NA
ATOM      8  C   UNL     1       1.710   7.239  20.092  0.00  0.00    +0.000 A 
ATOM      9  N   UNL     1       2.244   6.161  19.445  0.00  0.00    +0.000 N 
ATOM     10  C   UNL     1       2.619   6.571  18.153  0.00  0.00    +0.000 A 
ATOM     11  C   UNL     1       2.342   7.880  18.000  0.00  0.00    +0.000 A 
ATOM     12  N   UNL     1       1.789   8.287  19.195  0.00  0.00    +0.000 N 
ATOM     13  N   UNL     1       0.315   9.844  21.911  0.00  0.00    +0.000 N 
ATOM     14  C   UNL     1      -0.117   9.464  23.241  0.00  0.00    +0.000 C 
ATOM     15  C   UNL     1       0.140  11.187  21.532  0.00  0.00    +0.000 A 
ATOM     16  O   UNL     1      -0.360  12.014  22.300  0.00  0.00    +0.000 OA
ENDROOT
BRANCH   9  17
ATOM     17  C   UNL     1       2.230   4.793  19.930  0.00  0.00    +0.000 C 
BRANCH  17  18
ATOM     18  C   UNL     1       3.653   4.226  20.041  0.00  0.00    +0.000 C 
BRANCH  18  19
ATOM     19  C   UNL     1       4.730   5.237  19.593  0.00  0.00    +0.000 C 
BRANCH  19  20
ATOM     20  N   UNL     1       5.539   4.734  18.489  0.00  0.00    +0.000 NA
ATOM     21  C   UNL     1       4.984   3.603  17.720  0.00  0.00    +0.000 C 
ATOM     22  C   UNL     1       4.466   3.863  16.277  0.00  0.00    +0.000 C 
ATOM     23  N   UNL     1       5.378   4.758  15.562  0.00  0.00    +0.000 N 
ATOM     24  C   UNL     1       5.615   6.022  16.261  0.00  0.00    +0.000 C 
ATOM     25  C   UNL     1       6.206   5.751  17.659  0.00  0.00    +0.000 C 
BRANCH  23  26
ATOM     26  C   UNL     1       5.917   4.476  14.324  0.00  0.00    +0.000 A 
ATOM     27  C   UNL     1       7.139   5.020  13.902  0.00  0.00    +0.000 A 
ATOM     28  C   UNL     1       7.691   4.723  12.647  0.00  0.00    +0.000 A 
ATOM     29  C   UNL     1       7.022   3.876  11.772  0.00  0.00    +0.000 A 
ATOM     30  C   UNL     1       5.801   3.333  12.153  0.00  0.00    +0.000 A 
ATOM     31  C   UNL     1       5.263   3.630  13.412  0.00  0.00    +0.000 A 
ENDBRANCH  23  26
ENDBRANCH  19  20
ENDBRANCH  18  19
ENDBRANCH  17  18
ENDBRANCH   9  17
TORSDOF 5
ENDMDL
MODEL 3
REMARK VINA RESULT:      -7.4      3.297     10.724
REMARK  Name = 
REMARK  7 active torsions:
REMARK  status: ('A' for Active; 'I' for Inactive)
REMARK    1  A    between atoms: C_1  and  N_2
REMARK    2  A    between atoms: N_9  and  C_10
REMARK    3  A    between atoms: C_10  and  C_11
REMARK    4  A    between atoms: C_11  and  C_12
REMARK    5  A    between atoms: C_12  and  N_13
REMARK    6  A    between atoms: N_16  and  C_17
REMARK    7  A    between atoms: N_28  and  C_29
REMARK                            x       y       z     vdW  Elec       q    Type
REMARK                         _______ _______ _______ _____ _____    ______ ____
ROOT
ATOM      1  C   UNL     1       4.233   2.936  19.749  0.00  0.00    +0.000 C 
ATOM      2  N   UNL     1       3.877   4.265  19.286  0.00  0.00    +0.000 N 
ATOM      3  C   UNL     1       2.989   5.007  20.064  0.00  0.00    +0.000 A 
ATOM      4  O   UNL     1       2.476   4.608  21.105  0.00  0.00    +0.000 OA
ATOM      5  C   UNL     1       2.734   6.288  19.528  0.00  0.00    +0.000 A 
ATOM      6  C   UNL     1       3.272   6.772  18.364  0.00  0.00    +0.000 A 
ATOM      7  N   UNL     1       2.847   8.061  18.082  0.00  0.00    +0.000 NA
ATOM      8  C   UNL     1       2.060   8.343  19.099  0.00  0.00    +0.000 A 
ATOM      9  N   UNL     1       1.261   9.326  19.612  0.00  0.00    +0.000 N 
ATOM     10  C   UNL     1       0.675   8.838  20.794  0.00  0.00    +0.000 A 
ATOM     11  C   UNL     1       1.111   7.585  21.027  0.00  0.00    +0.000 A 
ATOM     12  N   UNL     1       1.965   7.288  19.986  0.00  0.00    +0.000 N 
ATOM     13  N   UNL     1       4.133   5.984  17.625  0.00  0.00    +0.000 N 
ATOM     14  C   UNL     1       4.737   6.429  16.385  0.00  0.00    +0.000 C 
ATOM     15  C   UNL     1       4.463   4.695  18.081  0.00  0.00    +0.000 A 
ATOM     16  O   UNL     1       5.237   3.967  17.453  0.00  0.00    +0.000 OA
ENDROOT
BRANCH   9  17
ATOM     17  C   UNL     1       0.915  10.567  18.944  0.00  0.00    +0.000 C 
BRANCH  17  18
ATOM     18  C   UNL     1       1.666  11.758  19.558  0.00  0.00    +0.000 C 
BRANCH  18  19
ATOM     19  C   UNL     1       1.152  13.116  19.034  0.00  0.00    +0.000 C 
BRANCH  19  20
ATOM     20  N   UNL     1       0.016  13.614  19.800  0.00  0.00    +0.000 NA
ATOM     21  C   UNL     1      -1.327  13.325  19.261  0.00  0.00    +0.000 C 
ATOM     22  C   UNL     1      -2.215  12.275  19.988  0.00  0.00    +0.000 C 
ATOM     23  N   UNL     1      -2.112  12.438  21.439  0.00  0.00    +0.000 N 
ATOM     24  C   UNL     1      -0.735  12.380  21.932  0.00  0.00    +0.000 C 
ATOM     25  C   UNL     1       0.114  13.480  21.263  0.00  0.00    +0.000 C 
BRANCH  23  26
ATOM     26  C   UNL     1      -3.200  12.571  22.276  0.00  0.00    +0.000 A 
ATOM     27  C   UNL     1      -4.446  13.020  21.814  0.00  0.00    +0.000 A 
ATOM     28  C   UNL     1      -5.554  13.143  22.665  0.00  0.00    +0.000 A 
ATOM     29  C   UNL     1      -5.438  12.829  24.014  0.00  0.00    +0.000 A 
ATOM     30  C   UNL     1      -4.213  12.397  24.507  0.00  0.00    +0.000 A 
ATOM     31  C   UNL     1      -3.116  12.270  23.646  0.00  0.00    +0.000 A 
ENDBRANCH  23  26
ENDBRANCH  19  20
ENDBRANCH  18  19
ENDBRANCH  17  18
ENDBRANCH   9  17
TORSDOF 5
ENDMDL
MODEL 4
REMARK VINA RESULT:      -7.4      3.326     11.027
REMARK  Name = 
REMARK  7 active torsions:
REMARK  status: ('A' for Active; 'I' for Inactive)
REMARK    1  A    between atoms: C_1  and  N_2
REMARK    2  A    between atoms: N_9  and  C_10
REMARK    3  A    between atoms: C_10  and  C_11
REMARK    4  A    between atoms: C_11  and  C_12
REMARK    5  A    between atoms: C_12  and  N_13
REMARK    6  A    between atoms: N_16  and  C_17
REMARK    7  A    between atoms: N_28  and  C_29
REMARK                            x       y       z     vdW  Elec       q    Type
REMARK                         _______ _______ _______ _____ _____    ______ ____
ROOT
ATOM      1  C   UNL     1       3.765   2.652  20.201  0.00  0.00    +0.000 C 
ATOM      2  N   UNL     1       3.558   3.949  19.582  0.00  0.00    +0.000 N 
ATOM      3  C   UNL     1       2.762   4.871  20.261  0.00  0.00    +0.000 A 
ATOM      4  O   UNL     1       2.214   4.657  21.337  0.00  0.00    +0.000 OA
ATOM      5  C   UNL     1       2.650   6.101  19.576  0.00  0.00    +0.000 A 
ATOM      6  C   UNL     1       3.233   6.381  18.368  0.00  0.00    +0.000 A 
ATOM      7  N   UNL     1       2.953   7.668  17.933  0.00  0.00    +0.000 NA
ATOM      8  C   UNL     1       2.208   8.154  18.904  0.00  0.00    +0.000 A 
ATOM      9  N   UNL     1       1.527   9.273  19.291  0.00  0.00    +0.000 N 
ATOM     10  C   UNL     1       0.896   8.996  20.518  0.00  0.00    +0.000 A 
ATOM     11  C   UNL     1       1.189   7.738  20.899  0.00  0.00    +0.000 A 
ATOM     12  N   UNL     1       2.000   7.227  19.907  0.00  0.00    +0.000 N 
ATOM     13  N   UNL     1       3.997   5.421  17.734  0.00  0.00    +0.000 N 
ATOM     14  C   UNL     1       4.641   5.647  16.455  0.00  0.00    +0.000 C 
ATOM     15  C   UNL     1       4.182   4.166  18.340  0.00  0.00    +0.000 A 
ATOM     16  O   UNL     1       4.867   3.287  17.809  0.00  0.00    +0.000 OA
ENDROOT
BRANCH   9  17
ATOM     17  C   UNL     1       1.319  10.458  18.479  0.00  0.00    +0.000 C 
BRANCH  17  18
ATOM     18  C   UNL     1       1.679  11.734  19.254  0.00  0.00    +0.000 C 
BRANCH  18  19
ATOM     19  C   UNL     1       0.496  12.720  19.356  0.00  0.00    +0.000 C 
BRANCH  19  20
ATOM     20  N   UNL     1      -0.646  12.147  20.058  0.00  0.00    +0.000 NA
ATOM     21  C   UNL     1      -0.511  11.979  21.518  0.00  0.00    +0.000 C 
ATOM     22  C   UNL     1      -1.320  12.918  22.457  0.00  0.00    +0.000 C 
ATOM     23  N   UNL     1      -2.676  13.110  21.941  0.00  0.00    +0.000 N 
ATOM     24  C   UNL     1      -2.707  13.604  20.563  0.00  0.00    +0.000 C 
ATOM     25  C   UNL     1      -1.973  12.620  19.631  0.00  0.00    +0.000 C 
BRANCH  23  26
ATOM     26  C   UNL     1      -3.818  12.908  22.687  0.00  0.00    +0.000 A 
ATOM     27  C   UNL     1      -5.101  13.005  22.129  0.00  0.00    +0.000 A 
ATOM     28  C   UNL     1      -6.260  12.787  22.888  0.00  0.00    +0.000 A 
ATOM     29  C   UNL     1      -6.163  12.476  24.239  0.00  0.00    +0.000 A 
ATOM     30  C   UNL     1      -4.907  12.387  24.827  0.00  0.00    +0.000 A 
ATOM     31  C   UNL     1      -3.756  12.599  24.057  0.00  0.00    +0.000 A 
ENDBRANCH  23  26
ENDBRANCH  19  20
ENDBRANCH  18  19
ENDBRANCH  17  18
ENDBRANCH   9  17
TORSDOF 5
ENDMDL
MODEL 5
REMARK VINA RESULT:      -7.4      0.804      1.181
REMARK  Name = 
REMARK  7 active torsions:
REMARK  status: ('A' for Active; 'I' for Inactive)
REMARK    1  A    between atoms: C_1  and  N_2
REMARK    2  A    between atoms: N_9  and  C_10
REMARK    3  A    between atoms: C_10  and  C_11
REMARK    4  A    between atoms: C_11  and  C_12
REMARK    5  A    between atoms: C_12  and  N_13
REMARK    6  A    between atoms: N_16  and  C_17
REMARK    7  A    between atoms: N_28  and  C_29
REMARK                            x       y       z     vdW  Elec       q    Type
REMARK                         _______ _______ _______ _____ _____    ______ ____
ROOT
ATOM      1  C   UNL     1      -0.744  13.191  20.637  0.00  0.00    +0.000 C 
ATOM      2  N   UNL     1      -0.274  11.848  20.927  0.00  0.00    +0.000 N 
ATOM      3  C   UNL     1       0.328  11.134  19.891  0.00  0.00    +0.000 A 
ATOM      4  O   UNL     1       0.475  11.556  18.749  0.00  0.00    +0.000 OA
ATOM      5  C   UNL     1       0.763   9.853  20.295  0.00  0.00    +0.000 A 
ATOM      6  C   UNL     1       0.611   9.334  21.554  0.00  0.00    +0.000 A 
ATOM      7  N   UNL     1       1.135   8.055  21.665  0.00  0.00    +0.000 NA
ATOM      8  C   UNL     1       1.613   7.825  20.460  0.00  0.00    +0.000 A 
ATOM      9  N   UNL     1       2.254   6.880  19.710  0.00  0.00    +0.000 N 
ATOM     10  C   UNL     1       2.395   7.382  18.404  0.00  0.00    +0.000 A 
ATOM     11  C   UNL     1       1.870   8.621  18.341  0.00  0.00    +0.000 A 
ATOM     12  N   UNL     1       1.396   8.889  19.607  0.00  0.00    +0.000 N 
ATOM     13  N   UNL     1      -0.009  10.082  22.536  0.00  0.00    +0.000 N 
ATOM     14  C   UNL     1      -0.207   9.597  23.887  0.00  0.00    +0.000 C 
ATOM     15  C   UNL     1      -0.468  11.378  22.239  0.00  0.00    +0.000 A 
ATOM     16  O   UNL     1      -1.017  12.080  23.093  0.00  0.00    +0.000 OA
ENDROOT
BRANCH   9  17
ATOM     17  C   UNL     1       2.545   5.522  20.132  0.00  0.00    +0.000 C 
BRANCH  17  18
ATOM     18  C   UNL     1       3.738   4.941  19.358  0.00  0.00    +0.000 C 
BRANCH  18  19
ATOM     19  C   UNL     1       4.958   5.886  19.353  0.00  0.00    +0.000 C 
BRANCH  19  20
ATOM     20  N   UNL     1       5.878   5.600  18.258  0.00  0.00    +0.000 NA
ATOM     21  C   UNL     1       5.936   4.203  17.788  0.00  0.00    +0.000 C 
ATOM     22  C   UNL     1       5.317   3.852  16.405  0.00  0.00    +0.000 C 
ATOM     23  N   UNL     1       5.641   4.888  15.424  0.00  0.00    +0.000 N 
ATOM     24  C   UNL     1       5.239   6.231  15.845  0.00  0.00    +0.000 C 
ATOM     25  C   UNL     1       5.926   6.597  17.176  0.00  0.00    +0.000 C 
BRANCH  23  26
ATOM     26  C   UNL     1       6.213   4.631  14.196  0.00  0.00    +0.000 A 
ATOM     27  C   UNL     1       5.716   3.642  13.334  0.00  0.00    +0.000 A 
ATOM     28  C   UNL     1       6.292   3.390  12.080  0.00  0.00    +0.000 A 
ATOM     29  C   UNL     1       7.396   4.121  11.659  0.00  0.00    +0.000 A 
ATOM     30  C   UNL     1       7.923   5.099  12.494  0.00  0.00    +0.000 A 
ATOM     31  C   UNL     1       7.334   5.347  13.741  0.00  0.00    +0.000 A 
ENDBRANCH  23  26
ENDBRANCH  19  20
ENDBRANCH  18  19
ENDBRANCH  17  18
ENDBRANCH   9  17
TORSDOF 5
ENDMDL
MODEL 6
REMARK VINA RESULT:      -7.4      3.250     10.937
REMARK  Name = 
REMARK  7 active torsions:
REMARK  status: ('A' for Active; 'I' for Inactive)
REMARK    1  A    between atoms: C_1  and  N_2
REMARK    2  A    between atoms: N_9  and  C_10
REMARK    3  A    between atoms: C_10  and  C_11
REMARK    4  A    between atoms: C_11  and  C_12
REMARK    5  A    between atoms: C_12  and  N_13
REMARK    6  A    between atoms: N_16  and  C_17
REMARK    7  A    between atoms: N_28  and  C_29
REMARK                            x       y       z     vdW  Elec       q    Type
REMARK                         _______ _______ _______ _____ _____    ______ ____
ROOT
ATOM      1  C   UNL     1       3.995   2.743  19.932  0.00  0.00    +0.000 C 
ATOM      2  N   UNL     1       3.793   4.044  19.321  0.00  0.00    +0.000 N 
ATOM      3  C   UNL     1       2.982   4.958  19.994  0.00  0.00    +0.000 A 
ATOM      4  O   UNL     1       2.416   4.732  21.058  0.00  0.00    +0.000 OA
ATOM      5  C   UNL     1       2.877   6.193  19.318  0.00  0.00    +0.000 A 
ATOM      6  C   UNL     1       3.481   6.487  18.124  0.00  0.00    +0.000 A 
ATOM      7  N   UNL     1       3.204   7.777  17.696  0.00  0.00    +0.000 NA
ATOM      8  C   UNL     1       2.440   8.250  18.657  0.00  0.00    +0.000 A 
ATOM      9  N   UNL     1       1.748   9.364  19.043  0.00  0.00    +0.000 N 
ATOM     10  C   UNL     1       1.096   9.073  20.255  0.00  0.00    +0.000 A 
ATOM     11  C   UNL     1       1.388   7.813  20.630  0.00  0.00    +0.000 A 
ATOM     12  N   UNL     1       2.217   7.314  19.648  0.00  0.00    +0.000 N 
ATOM     13  N   UNL     1       4.259   5.535  17.494  0.00  0.00    +0.000 N 
ATOM     14  C   UNL     1       4.925   5.775  16.229  0.00  0.00    +0.000 C 
ATOM     15  C   UNL     1       4.439   4.275  18.092  0.00  0.00    +0.000 A 
ATOM     16  O   UNL     1       5.137   3.404  17.565  0.00  0.00    +0.000 OA
ENDROOT
BRANCH   9  17
ATOM     17  C   UNL     1       1.549  10.556  18.239  0.00  0.00    +0.000 C 
BRANCH  17  18
ATOM     18  C   UNL     1       0.409  11.421  18.796  0.00  0.00    +0.000 C 
BRANCH  18  19
ATOM     19  C   UNL     1       0.924  12.638  19.593  0.00  0.00    +0.000 C 
BRANCH  19  20
ATOM     20  N   UNL     1      -0.107  13.221  20.444  0.00  0.00    +0.000 NA
ATOM     21  C   UNL     1      -1.427  13.449  19.826  0.00  0.00    +0.000 C 
ATOM     22  C   UNL     1      -2.616  12.535  20.241  0.00  0.00    +0.000 C 
ATOM     23  N   UNL     1      -2.599  12.302  21.685  0.00  0.00    +0.000 N 
ATOM     24  C   UNL     1      -1.331  11.753  22.169  0.00  0.00    +0.000 C 
ATOM     25  C   UNL     1      -0.173  12.710  21.823  0.00  0.00    +0.000 C 
BRANCH  23  26
ATOM     26  C   UNL     1      -3.683  12.515  22.510  0.00  0.00    +0.000 A 
ATOM     27  C   UNL     1      -3.596  12.388  23.904  0.00  0.00    +0.000 A 
ATOM     28  C   UNL     1      -4.697  12.618  24.742  0.00  0.00    +0.000 A 
ATOM     29  C   UNL     1      -5.927  12.972  24.200  0.00  0.00    +0.000 A 
ATOM     30  C   UNL     1      -6.052  13.091  22.821  0.00  0.00    +0.000 A 
ATOM     31  C   UNL     1      -4.942  12.867  21.995  0.00  0.00    +0.000 A 
ENDBRANCH  23  26
ENDBRANCH  19  20
ENDBRANCH  18  19
ENDBRANCH  17  18
ENDBRANCH   9  17
TORSDOF 5
ENDMDL
MODEL 7
REMARK VINA RESULT:      -7.2      4.139      6.551
REMARK  Name = 
REMARK  7 active torsions:
REMARK  status: ('A' for Active; 'I' for Inactive)
REMARK    1  A    between atoms: C_1  and  N_2
REMARK    2  A    between atoms: N_9  and  C_10
REMARK    3  A    between atoms: C_10  and  C_11
REMARK    4  A    between atoms: C_11  and  C_12
REMARK    5  A    between atoms: C_12  and  N_13
REMARK    6  A    between atoms: N_16  and  C_17
REMARK    7  A    between atoms: N_28  and  C_29
REMARK                            x       y       z     vdW  Elec       q    Type
REMARK                         _______ _______ _______ _____ _____    ______ ____
ROOT
ATOM      1  C   UNL     1      -7.169  12.028  19.779  0.00  0.00    +0.000 C 
ATOM      2  N   UNL     1      -5.729  12.073  19.594  0.00  0.00    +0.000 N 
ATOM      3  C   UNL     1      -4.953  12.529  20.659  0.00  0.00    +0.000 A 
ATOM      4  O   UNL     1      -5.404  12.910  21.735  0.00  0.00    +0.000 OA
ATOM      5  C   UNL     1      -3.571  12.508  20.373  0.00  0.00    +0.000 A 
ATOM      6  C   UNL     1      -3.022  12.104  19.184  0.00  0.00    +0.000 A 
ATOM      7  N   UNL     1      -1.638  12.188  19.186  0.00  0.00    +0.000 NA
ATOM      8  C   UNL     1      -1.369  12.633  20.395  0.00  0.00    +0.000 A 
ATOM      9  N   UNL     1      -0.336  12.991  21.214  0.00  0.00    +0.000 N 
ATOM     10  C   UNL     1      -0.880  13.437  22.432  0.00  0.00    +0.000 A 
ATOM     11  C   UNL     1      -2.222  13.344  22.385  0.00  0.00    +0.000 A 
ATOM     12  N   UNL     1      -2.517  12.845  21.134  0.00  0.00    +0.000 N 
ATOM     13  N   UNL     1      -3.843  11.678  18.158  0.00  0.00    +0.000 N 
ATOM     14  C   UNL     1      -3.333  11.239  16.874  0.00  0.00    +0.000 C 
ATOM     15  C   UNL     1      -5.236  11.648  18.347  0.00  0.00    +0.000 A 
ATOM     16  O   UNL     1      -6.000  11.262  17.457  0.00  0.00    +0.000 OA
ENDROOT
BRANCH   9  17
ATOM     17  C   UNL     1       1.057  13.094  20.820  0.00  0.00    +0.000 C 
BRANCH  17  18
ATOM     18  C   UNL     1       1.665  11.708  20.556  0.00  0.00    +0.000 C 
BRANCH  18  19
ATOM     19  C   UNL     1       1.643  11.326  19.060  0.00  0.00    +0.000 C 
BRANCH  19  20
ATOM     20  N   UNL     1       1.124   9.982  18.839  0.00  0.00    +0.000 NA
ATOM     21  C   UNL     1       1.791   9.176  17.798  0.00  0.00    +0.000 C 
ATOM     22  C   UNL     1       2.686   7.981  18.237  0.00  0.00    +0.000 C 
ATOM     23  N   UNL     1       2.052   7.245  19.331  0.00  0.00    +0.000 N 
ATOM     24  C   UNL     1       1.717   8.088  20.479  0.00  0.00    +0.000 C 
ATOM     25  C   UNL     1       0.764   9.219  20.046  0.00  0.00    +0.000 C 
BRANCH  23  26
ATOM     26  C   UNL     1       1.842   5.882  19.320  0.00  0.00    +0.000 A 
ATOM     27  C   UNL     1       1.737   5.133  20.501  0.00  0.00    +0.000 A 
ATOM     28  C   UNL     1       1.512   3.749  20.487  0.00  0.00    +0.000 A 
ATOM     29  C   UNL     1       1.396   3.072  19.279  0.00  0.00    +0.000 A 
ATOM     30  C   UNL     1       1.510   3.781  18.089  0.00  0.00    +0.000 A 
ATOM     31  C   UNL     1       1.728   5.165  18.116  0.00  0.00    +0.000 A 
ENDBRANCH  23  26
ENDBRANCH  19  20
ENDBRANCH  18  19
ENDBRANCH  17  18
ENDBRANCH   9  17
TORSDOF 5
ENDMDL
MODEL 8
REMARK VINA RESULT:      -7.2      3.398      9.967
REMARK  Name = 
REMARK  7 active torsions:
REMARK  status: ('A' for Active; 'I' for Inactive)
REMARK    1  A    between atoms: C_1  and  N_2
REMARK    2  A    between atoms: N_9  and  C_10
REMARK    3  A    between atoms: C_10  and  C_11
REMARK    4  A    between atoms: C_11  and  C_12
REMARK    5  A    between atoms: C_12  and  N_13
REMARK    6  A    between atoms: N_16  and  C_17
REMARK    7  A    between atoms: N_28  and  C_29
REMARK                            x       y       z     vdW  Elec       q    Type
REMARK                         _______ _______ _______ _____ _____    ______ ____
ROOT
ATOM      1  C   UNL     1       5.198   3.560  16.946  0.00  0.00    +0.000 C 
ATOM      2  N   UNL     1       4.321   4.243  17.879  0.00  0.00    +0.000 N 
ATOM      3  C   UNL     1       3.997   5.572  17.609  0.00  0.00    +0.000 A 
ATOM      4  O   UNL     1       4.413   6.208  16.646  0.00  0.00    +0.000 OA
ATOM      5  C   UNL     1       3.122   6.125  18.570  0.00  0.00    +0.000 A 
ATOM      6  C   UNL     1       2.641   5.459  19.667  0.00  0.00    +0.000 A 
ATOM      7  N   UNL     1       1.801   6.249  20.437  0.00  0.00    +0.000 NA
ATOM      8  C   UNL     1       1.778   7.388  19.778  0.00  0.00    +0.000 A 
ATOM      9  N   UNL     1       1.249   8.647  19.808  0.00  0.00    +0.000 N 
ATOM     10  C   UNL     1       1.754   9.358  18.703  0.00  0.00    +0.000 A 
ATOM     11  C   UNL     1       2.566   8.557  17.988  0.00  0.00    +0.000 A 
ATOM     12  N   UNL     1       2.573   7.347  18.649  0.00  0.00    +0.000 N 
ATOM     13  N   UNL     1       3.012   4.147  19.892  0.00  0.00    +0.000 N 
ATOM     14  C   UNL     1       2.544   3.383  21.031  0.00  0.00    +0.000 C 
ATOM     15  C   UNL     1       3.869   3.500  18.986  0.00  0.00    +0.000 A 
ATOM     16  O   UNL     1       4.213   2.326  19.148  0.00  0.00    +0.000 OA
ENDROOT
BRANCH   9  17
ATOM     17  C   UNL     1       0.475   9.213  20.898  0.00  0.00    +0.000 C 
BRANCH  17  18
ATOM     18  C   UNL     1       0.009  10.639  20.570  0.00  0.00    +0.000 C 
BRANCH  18  19
ATOM     19  C   UNL     1       0.532  11.681  21.580  0.00  0.00    +0.000 C 
BRANCH  19  20
ATOM     20  N   UNL     1       1.107  12.850  20.925  0.00  0.00    +0.000 NA
ATOM     21  C   UNL     1       1.216  12.800  19.455  0.00  0.00    +0.000 C 
ATOM     22  C   UNL     1       0.262  13.686  18.604  0.00  0.00    +0.000 C 
ATOM     23  N   UNL     1       0.125  15.013  19.207  0.00  0.00    +0.000 N 
ATOM     24  C   UNL     1      -0.316  14.972  20.602  0.00  0.00    +0.000 C 
ATOM     25  C   UNL     1       0.684  14.159  21.450  0.00  0.00    +0.000 C 
BRANCH  23  26
ATOM     26  C   UNL     1       0.327  16.193  18.523  0.00  0.00    +0.000 A 
ATOM     27  C   UNL     1      -0.736  17.018  18.129  0.00  0.00    +0.000 A 
ATOM     28  C   UNL     1      -0.527  18.224  17.444  0.00  0.00    +0.000 A 
ATOM     29  C   UNL     1       0.762  18.631  17.122  0.00  0.00    +0.000 A 
ATOM     30  C   UNL     1       1.838  17.828  17.483  0.00  0.00    +0.000 A 
ATOM     31  C   UNL     1       1.617  16.630  18.175  0.00  0.00    +0.000 A 
ENDBRANCH  23  26
ENDBRANCH  19  20
ENDBRANCH  18  19
ENDBRANCH  17  18
ENDBRANCH   9  17
TORSDOF 5
ENDMDL
MODEL 9
REMARK VINA RESULT:      -7.2      3.744     11.207
REMARK  Name = 
REMARK  7 active torsions:
REMARK  status: ('A' for Active; 'I' for Inactive)
REMARK    1  A    between atoms: C_1  and  N_2
REMARK    2  A    between atoms: N_9  and  C_10
REMARK    3  A    between atoms: C_10  and  C_11
REMARK    4  A    between atoms: C_11  and  C_12
REMARK    5  A    between atoms: C_12  and  N_13
REMARK    6  A    between atoms: N_16  and  C_17
REMARK    7  A    between atoms: N_28  and  C_29
REMARK                            x       y       z     vdW  Elec       q    Type
REMARK                         _______ _______ _______ _____ _____    ______ ____
ROOT
ATOM      1  C   UNL     1       5.924   4.102  17.411  0.00  0.00    +0.000 C 
ATOM      2  N   UNL     1       4.884   4.803  18.142  0.00  0.00    +0.000 N 
ATOM      3  C   UNL     1       4.485   6.051  17.663  0.00  0.00    +0.000 A 
ATOM      4  O   UNL     1       4.962   6.602  16.677  0.00  0.00    +0.000 OA
ATOM      5  C   UNL     1       3.455   6.627  18.439  0.00  0.00    +0.000 A 
ATOM      6  C   UNL     1       2.900   6.055  19.553  0.00  0.00    +0.000 A 
ATOM      7  N   UNL     1       1.907   6.845  20.113  0.00  0.00    +0.000 NA
ATOM      8  C   UNL     1       1.870   7.888  19.310  0.00  0.00    +0.000 A 
ATOM      9  N   UNL     1       1.237   9.082  19.113  0.00  0.00    +0.000 N 
ATOM     10  C   UNL     1       1.813   9.700  17.988  0.00  0.00    +0.000 A 
ATOM     11  C   UNL     1       2.772   8.903  17.481  0.00  0.00    +0.000 A 
ATOM     12  N   UNL     1       2.799   7.789  18.293  0.00  0.00    +0.000 N 
ATOM     13  N   UNL     1       3.348   4.824  19.990  0.00  0.00    +0.000 N 
ATOM     14  C   UNL     1       2.810   4.161  21.162  0.00  0.00    +0.000 C 
ATOM     15  C   UNL     1       4.363   4.159  19.279  0.00  0.00    +0.000 A 
ATOM     16  O   UNL     1       4.781   3.053  19.633  0.00  0.00    +0.000 OA
ENDROOT
BRANCH   9  17
ATOM     17  C   UNL     1       0.290   9.697  20.026  0.00  0.00    +0.000 C 
BRANCH  17  18
ATOM     18  C   UNL     1       0.967  10.771  20.891  0.00  0.00    +0.000 C 
BRANCH  18  19
ATOM     19  C   UNL     1       0.051  11.985  21.153  0.00  0.00    +0.000 C 
BRANCH  19  20
ATOM     20  N   UNL     1      -1.330  11.593  21.411  0.00  0.00    +0.000 NA
ATOM     21  C   UNL     1      -1.760  11.566  22.823  0.00  0.00    +0.000 C 
ATOM     22  C   UNL     1      -2.735  12.668  23.328  0.00  0.00    +0.000 C 
ATOM     23  N   UNL     1      -3.774  12.926  22.331  0.00  0.00    +0.000 N 
ATOM     24  C   UNL     1      -3.239  13.275  21.014  0.00  0.00    +0.000 C 
ATOM     25  C   UNL     1      -2.340  12.137  20.489  0.00  0.00    +0.000 C 
BRANCH  23  26
ATOM     26  C   UNL     1      -5.125  12.907  22.606  0.00  0.00    +0.000 A 
ATOM     27  C   UNL     1      -5.627  13.143  23.894  0.00  0.00    +0.000 A 
ATOM     28  C   UNL     1      -7.002  13.135  24.169  0.00  0.00    +0.000 A 
ATOM     29  C   UNL     1      -7.917  12.876  23.155  0.00  0.00    +0.000 A 
ATOM     30  C   UNL     1      -7.452  12.624  21.870  0.00  0.00    +0.000 A 
ATOM     31  C   UNL     1      -6.076  12.642  21.606  0.00  0.00    +0.000 A 
ENDBRANCH  23  26
ENDBRANCH  19  20
ENDBRANCH  18  19
ENDBRANCH  17  18
ENDBRANCH   9  17
TORSDOF 5
ENDMDL
