MODEL 1
REMARK VINA RESULT:      -8.6      0.000      0.000
REMARK  Name = 
REMARK  5 active torsions:
REMARK  status: ('A' for Active; 'I' for Inactive)
REMARK    1  A    between atoms: C_1  and  C_2
REMARK    2  A    between atoms: C_2  and  C_4
REMARK    3  A    between atoms: C_8  and  C_9
REMARK    4  A    between atoms: C_11  and  C_12
REMARK    5  A    between atoms: C_23  and  C_24
REMARK                            x       y       z     vdW  Elec       q    Type
REMARK                         _______ _______ _______ _____ _____    ______ ____
ROOT
ATOM      1  C   UNL     1       4.118   6.310  18.126  0.00  0.00    +0.000 A 
ATOM      2  C   UNL     1       3.445   7.492  17.969  0.00  0.00    +0.000 A 
ATOM      3  C   UNL     1       2.370   7.523  18.916  0.00  0.00    +0.000 A 
ATOM      4  C   UNL     1       2.430   6.297  19.565  0.00  0.00    +0.000 A 
ATOM      5  C   UNL     1       1.672   5.581  20.614  0.00  0.00    +0.000 C 
ATOM      6  O   UNL     1       3.490   5.572  19.084  0.00  0.00    +0.000 OA
ENDROOT
BRANCH   3   7
ATOM      7  C   UNL     1       1.493   8.686  19.018  0.00  0.00    +0.000 C 
ATOM      8  O   UNL     1       1.146   9.226  17.971  0.00  0.00    +0.000 OA
ATOM      9  N   UNL     1       1.175   9.134  20.277  0.00  0.00    +0.000 N 
ATOM     10  C   UNL     1       0.373  10.225  20.527  0.00  0.00    +0.000 A 
ATOM     11  N   UNL     1       0.343  10.823  21.705  0.00  0.00    +0.000 NA
ATOM     12  C   UNL     1      -0.492  11.900  21.596  0.00  0.00    +0.000 A 
ATOM     13  C   UNL     1      -1.107  12.071  20.389  0.00  0.00    +0.000 A 
ATOM     14  S   UNL     1      -0.700  10.867  19.324  0.00  0.00    +0.000 S 
ATOM     15  C   UNL     1      -1.952  13.274  20.297  0.00  0.00    +0.000 C 
ATOM     16  C   UNL     1      -1.493  14.039  21.582  0.00  0.00    +0.000 C 
ATOM     17  C   UNL     1      -0.842  12.980  22.541  0.00  0.00    +0.000 C 
ATOM     18  H   UNL     1       1.693   8.823  21.079  0.00  0.00    +0.000 HD
ENDBRANCH   3   7
BRANCH   1  23
ATOM     19  C   UNL     1       6.594   4.994  15.607  0.00  0.00    +0.000 A 
ATOM     20  C   UNL     1       7.600   4.509  16.452  0.00  0.00    +0.000 A 
ATOM     21  C   UNL     1       7.495   4.672  17.832  0.00  0.00    +0.000 A 
ATOM     22  C   UNL     1       6.370   5.296  18.372  0.00  0.00    +0.000 A 
ATOM     23  C   UNL     1       5.338   5.766  17.544  0.00  0.00    +0.000 A 
ATOM     24  C   UNL     1       5.476   5.632  16.157  0.00  0.00    +0.000 A 
BRANCH  19  26
ATOM     25  C   UNL     1       5.810   3.800  13.457  0.00  0.00    +0.000 C 
ATOM     26  C   UNL     1       6.727   4.784  14.137  0.00  0.00    +0.000 C 
ATOM     27  O   UNL     1       7.571   5.412  13.501  0.00  0.00    +0.000 OA
ENDBRANCH  19  26
ENDBRANCH   1  23
TORSDOF 3
ENDMDL
MODEL 2
REMARK VINA RESULT:      -8.5      3.079      4.156
REMARK  Name = 
REMARK  5 active torsions:
REMARK  status: ('A' for Active; 'I' for Inactive)
REMARK    1  A    between atoms: C_1  and  C_2
REMARK    2  A    between atoms: C_2  and  C_4
REMARK    3  A    between atoms: C_8  and  C_9
REMARK    4  A    between atoms: C_11  and  C_12
REMARK    5  A    between atoms: C_23  and  C_24
REMARK                            x       y       z     vdW  Elec       q    Type
REMARK                         _______ _______ _______ _____ _____    ______ ____
ROOT
ATOM      1  C   UNL     1       2.132   7.681  18.676  0.00  0.00    +0.000 A 
ATOM      2  C   UNL     1       1.715   8.884  18.172  0.00  0.00    +0.000 A 
ATOM      3  C   UNL     1       1.201   9.667  19.258  0.00  0.00    +0.000 A 
ATOM      4  C   UNL     1       1.291   8.841  20.369  0.00  0.00    +0.000 A 
ATOM      5  C   UNL     1       0.949   8.905  21.806  0.00  0.00    +0.000 C 
ATOM      6  O   UNL     1       1.857   7.644  20.010  0.00  0.00    +0.000 OA
ENDROOT
BRANCH   3   7
ATOM      7  C   UNL     1       0.716  11.027  19.037  0.00  0.00    +0.000 C 
ATOM      8  O   UNL     1      -0.427  11.157  18.607  0.00  0.00    +0.000 OA
ATOM      9  N   UNL     1       1.594  12.059  19.260  0.00  0.00    +0.000 N 
ATOM     10  C   UNL     1       1.284  13.388  19.081  0.00  0.00    +0.000 A 
ATOM     11  N   UNL     1       2.213  14.323  18.988  0.00  0.00    +0.000 NA
ATOM     12  C   UNL     1       1.577  15.509  18.745  0.00  0.00    +0.000 A 
ATOM     13  C   UNL     1       0.213  15.469  18.711  0.00  0.00    +0.000 A 
ATOM     14  S   UNL     1      -0.359  13.942  19.014  0.00  0.00    +0.000 S 
ATOM     15  C   UNL     1      -0.429  16.755  18.391  0.00  0.00    +0.000 C 
ATOM     16  C   UNL     1       0.808  17.570  17.887  0.00  0.00    +0.000 C 
ATOM     17  C   UNL     1       2.088  16.865  18.461  0.00  0.00    +0.000 C 
ATOM     18  H   UNL     1       2.579  11.885  19.352  0.00  0.00    +0.000 HD
ENDBRANCH   3   7
BRANCH   1  23
ATOM     19  C   UNL     1       3.081   4.135  17.818  0.00  0.00    +0.000 A 
ATOM     20  C   UNL     1       4.306   4.337  17.170  0.00  0.00    +0.000 A 
ATOM     21  C   UNL     1       4.782   5.630  16.960  0.00  0.00    +0.000 A 
ATOM     22  C   UNL     1       4.047   6.722  17.421  0.00  0.00    +0.000 A 
ATOM     23  C   UNL     1       2.830   6.540  18.097  0.00  0.00    +0.000 A 
ATOM     24  C   UNL     1       2.344   5.237  18.265  0.00  0.00    +0.000 A 
BRANCH  19  26
ATOM     25  C   UNL     1       1.222   2.519  18.589  0.00  0.00    +0.000 C 
ATOM     26  C   UNL     1       2.611   2.738  18.047  0.00  0.00    +0.000 C 
ATOM     27  O   UNL     1       3.352   1.792  17.789  0.00  0.00    +0.000 OA
ENDBRANCH  19  26
ENDBRANCH   1  23
TORSDOF 3
ENDMDL
MODEL 3
REMARK VINA RESULT:      -8.5      2.855      3.559
REMARK  Name = 
REMARK  5 active torsions:
REMARK  status: ('A' for Active; 'I' for Inactive)
REMARK    1  A    between atoms: C_1  and  C_2
REMARK    2  A    between atoms: C_2  and  C_4
REMARK    3  A    between atoms: C_8  and  C_9
REMARK    4  A    between atoms: C_11  and  C_12
REMARK    5  A    between atoms: C_23  and  C_24
REMARK                            x       y       z     vdW  Elec       q    Type
REMARK                         _______ _______ _______ _____ _____    ______ ____
ROOT
ATOM      1  C   UNL     1       2.208   7.650  18.718  0.00  0.00    +0.000 A 
ATOM      2  C   UNL     1       1.808   8.853  18.200  0.00  0.00    +0.000 A 
ATOM      3  C   UNL     1       1.235   9.626  19.263  0.00  0.00    +0.000 A 
ATOM      4  C   UNL     1       1.275   8.794  20.373  0.00  0.00    +0.000 A 
ATOM      5  C   UNL     1       0.860   8.848  21.792  0.00  0.00    +0.000 C 
ATOM      6  O   UNL     1       1.867   7.603  20.037  0.00  0.00    +0.000 OA
ENDROOT
BRANCH   3   7
ATOM      7  C   UNL     1       0.752  10.984  19.026  0.00  0.00    +0.000 C 
ATOM      8  O   UNL     1      -0.371  11.109  18.545  0.00  0.00    +0.000 OA
ATOM      9  N   UNL     1       1.613  12.020  19.293  0.00  0.00    +0.000 N 
ATOM     10  C   UNL     1       1.303  13.348  19.104  0.00  0.00    +0.000 A 
ATOM     11  N   UNL     1       2.229  14.289  19.057  0.00  0.00    +0.000 NA
ATOM     12  C   UNL     1       1.597  15.472  18.791  0.00  0.00    +0.000 A 
ATOM     13  C   UNL     1       0.236  15.424  18.694  0.00  0.00    +0.000 A 
ATOM     14  S   UNL     1      -0.339  13.893  18.965  0.00  0.00    +0.000 S 
ATOM     15  C   UNL     1      -0.399  16.708  18.350  0.00  0.00    +0.000 C 
ATOM     16  C   UNL     1       0.855  17.532  17.906  0.00  0.00    +0.000 C 
ATOM     17  C   UNL     1       2.112  16.833  18.534  0.00  0.00    +0.000 C 
ATOM     18  H   UNL     1       2.594  11.852  19.428  0.00  0.00    +0.000 HD
ENDBRANCH   3   7
BRANCH   1  23
ATOM     19  C   UNL     1       4.869   5.624  16.979  0.00  0.00    +0.000 A 
ATOM     20  C   UNL     1       4.248   4.371  16.911  0.00  0.00    +0.000 A 
ATOM     21  C   UNL     1       2.994   4.179  17.489  0.00  0.00    +0.000 A 
ATOM     22  C   UNL     1       2.348   5.246  18.113  0.00  0.00    +0.000 A 
ATOM     23  C   UNL     1       2.943   6.517  18.169  0.00  0.00    +0.000 A 
ATOM     24  C   UNL     1       4.220   6.686  17.619  0.00  0.00    +0.000 A 
BRANCH  19  26
ATOM     25  C   UNL     1       6.815   4.636  15.601  0.00  0.00    +0.000 C 
ATOM     26  C   UNL     1       6.201   5.802  16.331  0.00  0.00    +0.000 C 
ATOM     27  O   UNL     1       6.774   6.888  16.396  0.00  0.00    +0.000 OA
ENDBRANCH  19  26
ENDBRANCH   1  23
TORSDOF 3
ENDMDL
MODEL 4
REMARK VINA RESULT:      -8.4      2.212      3.722
REMARK  Name = 
REMARK  5 active torsions:
REMARK  status: ('A' for Active; 'I' for Inactive)
REMARK    1  A    between atoms: C_1  and  C_2
REMARK    2  A    between atoms: C_2  and  C_4
REMARK    3  A    between atoms: C_8  and  C_9
REMARK    4  A    between atoms: C_11  and  C_12
REMARK    5  A    between atoms: C_23  and  C_24
REMARK                            x       y       z     vdW  Elec       q    Type
REMARK                         _______ _______ _______ _____ _____    ______ ____
ROOT
ATOM      1  C   UNL     1       5.614   5.206  15.827  0.00  0.00    +0.000 A 
ATOM      2  C   UNL     1       4.483   5.843  16.262  0.00  0.00    +0.000 A 
ATOM      3  C   UNL     1       4.601   6.042  17.677  0.00  0.00    +0.000 A 
ATOM      4  C   UNL     1       5.804   5.445  18.024  0.00  0.00    +0.000 A 
ATOM      5  C   UNL     1       6.591   5.210  19.254  0.00  0.00    +0.000 C 
ATOM      6  O   UNL     1       6.412   4.945  16.900  0.00  0.00    +0.000 OA
ENDROOT
BRANCH   3   7
ATOM      7  C   UNL     1       3.558   6.740  18.425  0.00  0.00    +0.000 C 
ATOM      8  O   UNL     1       3.084   6.167  19.403  0.00  0.00    +0.000 OA
ATOM      9  N   UNL     1       3.135   7.954  17.944  0.00  0.00    +0.000 N 
ATOM     10  C   UNL     1       2.153   8.718  18.533  0.00  0.00    +0.000 A 
ATOM     11  N   UNL     1       1.546   9.702  17.894  0.00  0.00    +0.000 NA
ATOM     12  C   UNL     1       0.587  10.203  18.731  0.00  0.00    +0.000 A 
ATOM     13  C   UNL     1       0.516   9.645  19.974  0.00  0.00    +0.000 A 
ATOM     14  S   UNL     1       1.674   8.476  20.183  0.00  0.00    +0.000 S 
ATOM     15  C   UNL     1      -0.566  10.174  20.822  0.00  0.00    +0.000 C 
ATOM     16  C   UNL     1      -1.404  10.953  19.755  0.00  0.00    +0.000 C 
ATOM     17  C   UNL     1      -0.454  11.233  18.538  0.00  0.00    +0.000 C 
ATOM     18  H   UNL     1       3.364   8.245  17.010  0.00  0.00    +0.000 HD
ENDBRANCH   3   7
BRANCH   1  23
ATOM     19  C   UNL     1       5.930   3.537  12.462  0.00  0.00    +0.000 A 
ATOM     20  C   UNL     1       7.199   3.978  12.065  0.00  0.00    +0.000 A 
ATOM     21  C   UNL     1       7.915   4.866  12.866  0.00  0.00    +0.000 A 
ATOM     22  C   UNL     1       7.374   5.294  14.078  0.00  0.00    +0.000 A 
ATOM     23  C   UNL     1       6.115   4.844  14.507  0.00  0.00    +0.000 A 
ATOM     24  C   UNL     1       5.390   3.984  13.673  0.00  0.00    +0.000 A 
BRANCH  19  26
ATOM     25  C   UNL     1       3.863   2.969  11.026  0.00  0.00    +0.000 C 
ATOM     26  C   UNL     1       5.201   2.570  11.592  0.00  0.00    +0.000 C 
ATOM     27  O   UNL     1       5.696   1.472  11.346  0.00  0.00    +0.000 OA
ENDBRANCH  19  26
ENDBRANCH   1  23
TORSDOF 3
ENDMDL
MODEL 5
REMARK VINA RESULT:      -8.3      2.123      3.063
REMARK  Name = 
REMARK  5 active torsions:
REMARK  status: ('A' for Active; 'I' for Inactive)
REMARK    1  A    between atoms: C_1  and  C_2
REMARK    2  A    between atoms: C_2  and  C_4
REMARK    3  A    between atoms: C_8  and  C_9
REMARK    4  A    between atoms: C_11  and  C_12
REMARK    5  A    between atoms: C_23  and  C_24
REMARK                            x       y       z     vdW  Elec       q    Type
REMARK                         _______ _______ _______ _____ _____    ______ ____
ROOT
ATOM      1  C   UNL     1       4.612   4.761  16.593  0.00  0.00    +0.000 A 
ATOM      2  C   UNL     1       3.921   5.782  17.188  0.00  0.00    +0.000 A 
ATOM      3  C   UNL     1       3.402   5.302  18.435  0.00  0.00    +0.000 A 
ATOM      4  C   UNL     1       3.777   3.967  18.488  0.00  0.00    +0.000 A 
ATOM      5  C   UNL     1       3.602   2.821  19.406  0.00  0.00    +0.000 C 
ATOM      6  O   UNL     1       4.510   3.648  17.374  0.00  0.00    +0.000 OA
ENDROOT
BRANCH   3   7
ATOM      7  C   UNL     1       2.649   6.183  19.323  0.00  0.00    +0.000 C 
ATOM      8  O   UNL     1       2.212   5.699  20.364  0.00  0.00    +0.000 OA
ATOM      9  N   UNL     1       2.424   7.471  18.900  0.00  0.00    +0.000 N 
ATOM     10  C   UNL     1       1.719   8.408  19.622  0.00  0.00    +0.000 A 
ATOM     11  N   UNL     1       1.246   9.511  19.071  0.00  0.00    +0.000 NA
ATOM     12  C   UNL     1       0.544  10.180  20.036  0.00  0.00    +0.000 A 
ATOM     13  C   UNL     1       0.539   9.620  21.281  0.00  0.00    +0.000 A 
ATOM     14  S   UNL     1       1.445   8.232  21.326  0.00  0.00    +0.000 S 
ATOM     15  C   UNL     1      -0.273  10.343  22.274  0.00  0.00    +0.000 C 
ATOM     16  C   UNL     1      -1.075  11.304  21.336  0.00  0.00    +0.000 C 
ATOM     17  C   UNL     1      -0.274  11.409  19.990  0.00  0.00    +0.000 C 
ATOM     18  H   UNL     1       2.571   7.729  17.940  0.00  0.00    +0.000 HD
ENDBRANCH   3   7
BRANCH   1  23
ATOM     19  C   UNL     1       5.843   3.779  13.168  0.00  0.00    +0.000 A 
ATOM     20  C   UNL     1       7.132   4.325  13.182  0.00  0.00    +0.000 A 
ATOM     21  C   UNL     1       7.568   5.064  14.281  0.00  0.00    +0.000 A 
ATOM     22  C   UNL     1       6.724   5.236  15.378  0.00  0.00    +0.000 A 
ATOM     23  C   UNL     1       5.438   4.674  15.395  0.00  0.00    +0.000 A 
ATOM     24  C   UNL     1       4.998   3.969  14.268  0.00  0.00    +0.000 A 
BRANCH  19  26
ATOM     25  C   UNL     1       4.108   3.308  11.316  0.00  0.00    +0.000 C 
ATOM     26  C   UNL     1       5.416   2.975  11.987  0.00  0.00    +0.000 C 
ATOM     27  O   UNL     1       6.129   2.062  11.576  0.00  0.00    +0.000 OA
ENDBRANCH  19  26
ENDBRANCH   1  23
TORSDOF 3
ENDMDL
MODEL 6
REMARK VINA RESULT:      -8.1      1.276      1.506
REMARK  Name = 
REMARK  5 active torsions:
REMARK  status: ('A' for Active; 'I' for Inactive)
REMARK    1  A    between atoms: C_1  and  C_2
REMARK    2  A    between atoms: C_2  and  C_4
REMARK    3  A    between atoms: C_8  and  C_9
REMARK    4  A    between atoms: C_11  and  C_12
REMARK    5  A    between atoms: C_23  and  C_24
REMARK                            x       y       z     vdW  Elec       q    Type
REMARK                         _______ _______ _______ _____ _____    ______ ____
ROOT
ATOM      1  C   UNL     1       3.982   5.813  18.671  0.00  0.00    +0.000 A 
ATOM      2  C   UNL     1       3.406   7.005  19.022  0.00  0.00    +0.000 A 
ATOM      3  C   UNL     1       2.238   6.721  19.804  0.00  0.00    +0.000 A 
ATOM      4  C   UNL     1       2.152   5.336  19.828  0.00  0.00    +0.000 A 
ATOM      5  C   UNL     1       1.242   4.310  20.383  0.00  0.00    +0.000 C 
ATOM      6  O   UNL     1       3.210   4.795  19.144  0.00  0.00    +0.000 OA
ENDROOT
BRANCH   3   7
ATOM      7  C   UNL     1       1.429   7.801  20.363  0.00  0.00    +0.000 C 
ATOM      8  O   UNL     1       0.871   7.592  21.437  0.00  0.00    +0.000 OA
ATOM      9  N   UNL     1       1.294   8.946  19.616  0.00  0.00    +0.000 N 
ATOM     10  C   UNL     1       0.553  10.038  20.006  0.00  0.00    +0.000 A 
ATOM     11  N   UNL     1       0.177  10.976  19.155  0.00  0.00    +0.000 NA
ATOM     12  C   UNL     1      -0.596  11.868  19.846  0.00  0.00    +0.000 A 
ATOM     13  C   UNL     1      -0.748  11.633  21.181  0.00  0.00    +0.000 A 
ATOM     14  S   UNL     1       0.099  10.291  21.662  0.00  0.00    +0.000 S 
ATOM     15  C   UNL     1      -1.632  12.586  21.875  0.00  0.00    +0.000 C 
ATOM     16  C   UNL     1      -2.299  13.292  20.649  0.00  0.00    +0.000 C 
ATOM     17  C   UNL     1      -1.361  13.055  19.413  0.00  0.00    +0.000 C 
ATOM     18  H   UNL     1       1.547   8.958  18.644  0.00  0.00    +0.000 HD
ENDBRANCH   3   7
BRANCH   1  23
ATOM     19  C   UNL     1       6.435   4.932  15.948  0.00  0.00    +0.000 A 
ATOM     20  C   UNL     1       7.554   4.566  16.706  0.00  0.00    +0.000 A 
ATOM     21  C   UNL     1       7.524   4.670  18.096  0.00  0.00    +0.000 A 
ATOM     22  C   UNL     1       6.364   5.116  18.731  0.00  0.00    +0.000 A 
ATOM     23  C   UNL     1       5.222   5.463  17.991  0.00  0.00    +0.000 A 
ATOM     24  C   UNL     1       5.281   5.392  16.593  0.00  0.00    +0.000 A 
BRANCH  19  26
ATOM     25  C   UNL     1       5.462   3.931  13.777  0.00  0.00    +0.000 C 
ATOM     26  C   UNL     1       6.493   4.787  14.465  0.00  0.00    +0.000 C 
ATOM     27  O   UNL     1       7.370   5.365  13.826  0.00  0.00    +0.000 OA
ENDBRANCH  19  26
ENDBRANCH   1  23
TORSDOF 3
ENDMDL
MODEL 7
REMARK VINA RESULT:      -8.1      2.084      3.077
REMARK  Name = 
REMARK  5 active torsions:
REMARK  status: ('A' for Active; 'I' for Inactive)
REMARK    1  A    between atoms: C_1  and  C_2
REMARK    2  A    between atoms: C_2  and  C_4
REMARK    3  A    between atoms: C_8  and  C_9
REMARK    4  A    between atoms: C_11  and  C_12
REMARK    5  A    between atoms: C_23  and  C_24
REMARK                            x       y       z     vdW  Elec       q    Type
REMARK                         _______ _______ _______ _____ _____    ______ ____
ROOT
ATOM      1  C   UNL     1       2.637   7.522  18.518  0.00  0.00    +0.000 A 
ATOM      2  C   UNL     1       1.830   7.744  19.601  0.00  0.00    +0.000 A 
ATOM      3  C   UNL     1       1.389   9.108  19.556  0.00  0.00    +0.000 A 
ATOM      4  C   UNL     1       2.022   9.652  18.447  0.00  0.00    +0.000 A 
ATOM      5  C   UNL     1       2.102  10.966  17.773  0.00  0.00    +0.000 C 
ATOM      6  O   UNL     1       2.771   8.688  17.824  0.00  0.00    +0.000 OA
ENDROOT
BRANCH   3   7
ATOM      7  C   UNL     1       0.474   9.634  20.566  0.00  0.00    +0.000 C 
ATOM      8  O   UNL     1       0.341   8.986  21.601  0.00  0.00    +0.000 OA
ATOM      9  N   UNL     1      -0.223  10.777  20.259  0.00  0.00    +0.000 N 
ATOM     10  C   UNL     1      -1.129  11.378  21.103  0.00  0.00    +0.000 A 
ATOM     11  N   UNL     1      -2.008  12.267  20.676  0.00  0.00    +0.000 NA
ATOM     12  C   UNL     1      -2.794  12.609  21.742  0.00  0.00    +0.000 A 
ATOM     13  C   UNL     1      -2.477  12.034  22.939  0.00  0.00    +0.000 A 
ATOM     14  S   UNL     1      -1.149  11.049  22.807  0.00  0.00    +0.000 S 
ATOM     15  C   UNL     1      -3.381  12.385  24.046  0.00  0.00    +0.000 C 
ATOM     16  C   UNL     1      -4.558  13.041  23.251  0.00  0.00    +0.000 C 
ATOM     17  C   UNL     1      -3.986  13.474  21.855  0.00  0.00    +0.000 C 
ATOM     18  H   UNL     1      -0.275  11.108  19.312  0.00  0.00    +0.000 HD
ENDBRANCH   3   7
BRANCH   1  23
ATOM     19  C   UNL     1       5.031   5.298  16.639  0.00  0.00    +0.000 A 
ATOM     20  C   UNL     1       4.377   4.064  16.734  0.00  0.00    +0.000 A 
ATOM     21  C   UNL     1       3.195   3.951  17.464  0.00  0.00    +0.000 A 
ATOM     22  C   UNL     1       2.650   5.079  18.077  0.00  0.00    +0.000 A 
ATOM     23  C   UNL     1       3.276   6.332  17.972  0.00  0.00    +0.000 A 
ATOM     24  C   UNL     1       4.485   6.422  17.271  0.00  0.00    +0.000 A 
BRANCH  19  26
ATOM     25  C   UNL     1       6.352   4.663  14.514  0.00  0.00    +0.000 C 
ATOM     26  C   UNL     1       6.283   5.389  15.833  0.00  0.00    +0.000 C 
ATOM     27  O   UNL     1       7.232   6.051  16.247  0.00  0.00    +0.000 OA
ENDBRANCH  19  26
ENDBRANCH   1  23
TORSDOF 3
ENDMDL
MODEL 8
REMARK VINA RESULT:      -8.1      1.816      2.356
REMARK  Name = 
REMARK  5 active torsions:
REMARK  status: ('A' for Active; 'I' for Inactive)
REMARK    1  A    between atoms: C_1  and  C_2
REMARK    2  A    between atoms: C_2  and  C_4
REMARK    3  A    between atoms: C_8  and  C_9
REMARK    4  A    between atoms: C_11  and  C_12
REMARK    5  A    between atoms: C_23  and  C_24
REMARK                            x       y       z     vdW  Elec       q    Type
REMARK                         _______ _______ _______ _____ _____    ______ ____
ROOT
ATOM      1  C   UNL     1       4.199   5.187  17.265  0.00  0.00    +0.000 A 
ATOM      2  C   UNL     1       3.640   6.267  17.896  0.00  0.00    +0.000 A 
ATOM      3  C   UNL     1       2.766   5.779  18.923  0.00  0.00    +0.000 A 
ATOM      4  C   UNL     1       2.812   4.397  18.805  0.00  0.00    +0.000 A 
ATOM      5  C   UNL     1       2.187   3.226  19.458  0.00  0.00    +0.000 C 
ATOM      6  O   UNL     1       3.682   4.047  17.804  0.00  0.00    +0.000 OA
ENDROOT
BRANCH   3   7
ATOM      7  C   UNL     1       2.054   6.703  19.801  0.00  0.00    +0.000 C 
ATOM      8  O   UNL     1       1.591   6.248  20.844  0.00  0.00    +0.000 OA
ATOM      9  N   UNL     1       1.892   7.996  19.367  0.00  0.00    +0.000 N 
ATOM     10  C   UNL     1       1.230   8.971  20.079  0.00  0.00    +0.000 A 
ATOM     11  N   UNL     1       0.811  10.091  19.518  0.00  0.00    +0.000 NA
ATOM     12  C   UNL     1       0.140  10.801  20.476  0.00  0.00    +0.000 A 
ATOM     13  C   UNL     1       0.105  10.252  21.725  0.00  0.00    +0.000 A 
ATOM     14  S   UNL     1       0.943   8.822  21.784  0.00  0.00    +0.000 S 
ATOM     15  C   UNL     1      -0.675  11.020  22.710  0.00  0.00    +0.000 C 
ATOM     16  C   UNL     1      -1.428  12.011  21.762  0.00  0.00    +0.000 C 
ATOM     17  C   UNL     1      -0.619  12.067  20.418  0.00  0.00    +0.000 C 
ATOM     18  H   UNL     1       2.053   8.239  18.406  0.00  0.00    +0.000 HD
ENDBRANCH   3   7
BRANCH   1  23
ATOM     19  C   UNL     1       5.930   4.259  14.048  0.00  0.00    +0.000 A 
ATOM     20  C   UNL     1       7.259   4.572  14.362  0.00  0.00    +0.000 A 
ATOM     21  C   UNL     1       7.572   5.143  15.594  0.00  0.00    +0.000 A 
ATOM     22  C   UNL     1       6.561   5.377  16.525  0.00  0.00    +0.000 A 
ATOM     23  C   UNL     1       5.226   5.046  16.241  0.00  0.00    +0.000 A 
ATOM     24  C   UNL     1       4.920   4.511  14.983  0.00  0.00    +0.000 A 
BRANCH  19  26
ATOM     25  C   UNL     1       6.779   3.173  11.866  0.00  0.00    +0.000 C 
ATOM     26  C   UNL     1       5.632   3.628  12.730  0.00  0.00    +0.000 C 
ATOM     27  O   UNL     1       4.466   3.485  12.368  0.00  0.00    +0.000 OA
ENDBRANCH  19  26
ENDBRANCH   1  23
TORSDOF 3
ENDMDL
MODEL 9
REMARK VINA RESULT:      -8.0      2.037      3.220
REMARK  Name = 
REMARK  5 active torsions:
REMARK  status: ('A' for Active; 'I' for Inactive)
REMARK    1  A    between atoms: C_1  and  C_2
REMARK    2  A    between atoms: C_2  and  C_4
REMARK    3  A    between atoms: C_8  and  C_9
REMARK    4  A    between atoms: C_11  and  C_12
REMARK    5  A    between atoms: C_23  and  C_24
REMARK                            x       y       z     vdW  Elec       q    Type
REMARK                         _______ _______ _______ _____ _____    ______ ____
ROOT
ATOM      1  C   UNL     1       5.194   5.498  15.858  0.00  0.00    +0.000 A 
ATOM      2  C   UNL     1       4.294   6.495  16.126  0.00  0.00    +0.000 A 
ATOM      3  C   UNL     1       4.109   6.557  17.547  0.00  0.00    +0.000 A 
ATOM      4  C   UNL     1       4.888   5.527  18.054  0.00  0.00    +0.000 A 
ATOM      5  C   UNL     1       5.195   4.942  19.378  0.00  0.00    +0.000 C 
ATOM      6  O   UNL     1       5.542   4.894  17.028  0.00  0.00    +0.000 OA
ENDROOT
BRANCH   3   7
ATOM      7  C   UNL     1       3.231   7.559  18.145  0.00  0.00    +0.000 C 
ATOM      8  O   UNL     1       3.226   8.679  17.642  0.00  0.00    +0.000 OA
ATOM      9  N   UNL     1       2.526   7.198  19.267  0.00  0.00    +0.000 N 
ATOM     10  C   UNL     1       1.673   8.039  19.946  0.00  0.00    +0.000 A 
ATOM     11  N   UNL     1       1.266   7.786  21.177  0.00  0.00    +0.000 NA
ATOM     12  C   UNL     1       0.495   8.843  21.577  0.00  0.00    +0.000 A 
ATOM     13  C   UNL     1       0.291   9.828  20.655  0.00  0.00    +0.000 A 
ATOM     14  S   UNL     1       1.028   9.473  19.213  0.00  0.00    +0.000 S 
ATOM     15  C   UNL     1      -0.497  10.972  21.146  0.00  0.00    +0.000 C 
ATOM     16  C   UNL     1      -0.476  10.688  22.684  0.00  0.00    +0.000 C 
ATOM     17  C   UNL     1      -0.148   9.164  22.868  0.00  0.00    +0.000 C 
ATOM     18  H   UNL     1       2.768   6.370  19.782  0.00  0.00    +0.000 HD
ENDBRANCH   3   7
BRANCH   1  23
ATOM     19  C   UNL     1       5.869   3.662  12.635  0.00  0.00    +0.000 A 
ATOM     20  C   UNL     1       7.211   3.997  12.415  0.00  0.00    +0.000 A 
ATOM     21  C   UNL     1       7.867   4.870  13.281  0.00  0.00    +0.000 A 
ATOM     22  C   UNL     1       7.189   5.388  14.385  0.00  0.00    +0.000 A 
ATOM     23  C   UNL     1       5.852   5.044  14.639  0.00  0.00    +0.000 A 
ATOM     24  C   UNL     1       5.193   4.199  13.737  0.00  0.00    +0.000 A 
BRANCH  19  26
ATOM     25  C   UNL     1       3.884   3.097  11.085  0.00  0.00    +0.000 C 
ATOM     26  C   UNL     1       5.203   2.709  11.701  0.00  0.00    +0.000 C 
ATOM     27  O   UNL     1       5.734   1.631  11.444  0.00  0.00    +0.000 OA
ENDBRANCH  19  26
ENDBRANCH   1  23
TORSDOF 3
ENDMDL
