MODEL 1
REMARK VINA RESULT:      -6.9      0.000      0.000
REMARK  Name = 
REMARK  9 active torsions:
REMARK  status: ('A' for Active; 'I' for Inactive)
REMARK    1  A    between atoms: C_2  and  C_3
REMARK    2  A    between atoms: C_3  and  O_4
REMARK    3  A    between atoms: O_4  and  N_5
REMARK    4  A    between atoms: C_6  and  C_7
REMARK    5  A    between atoms: C_6  and  C_24
REMARK    6  A    between atoms: N_9  and  C_10
REMARK    7  A    between atoms: C_14  and  C_15
REMARK    8  A    between atoms: C_17  and  C_18
REMARK    9  A    between atoms: C_18  and  O_20
REMARK                            x       y       z     vdW  Elec       q    Type
REMARK                         _______ _______ _______ _____ _____    ______ ____
ROOT
ATOM      1  C   UNL     1       1.941   8.674  18.288  0.00  0.00    +0.000 C 
ATOM      2  O   UNL     1       2.025   9.146  17.164  0.00  0.00    +0.000 OA
ATOM      3  N   UNL     1       2.354   7.394  18.592  0.00  0.00    +0.000 N 
ATOM      4  H   UNL     1       2.670   7.241  19.541  0.00  0.00    +0.000 HD
ENDROOT
BRANCH   3   5
ATOM      5  C   UNL     1       2.871   6.459  17.588  0.00  0.00    +0.000 C 
ATOM      6  C   UNL     1       4.358   6.104  17.833  0.00  0.00    +0.000 C 
ATOM      7  N   UNL     1       4.200   5.243  18.995  0.00  0.00    +0.000 NA
ATOM      8  C   UNL     1       5.243   4.343  19.467  0.00  0.00    +0.000 C 
ATOM      9  C   UNL     1       4.433   3.118  19.819  0.00  0.00    +0.000 C 
ATOM     10  C   UNL     1       3.193   3.226  19.303  0.00  0.00    +0.000 C 
ATOM     11  N   UNL     1       3.081   4.461  18.726  0.00  0.00    +0.000 N 
ATOM     12  C   UNL     1       2.208   5.096  17.865  0.00  0.00    +0.000 C 
ATOM     13  O   UNL     1       1.095   4.704  17.540  0.00  0.00    +0.000 OA
BRANCH   9  14
ATOM     14  C   UNL     1       4.965   2.072  20.603  0.00  0.00    +0.000 C 
ATOM     15  N   UNL     1       5.402   1.152  21.162  0.00  0.00    +0.000 NA
ENDBRANCH   9  14
BRANCH  10  16
ATOM     16  C   UNL     1       2.153   2.176  19.376  0.00  0.00    +0.000 C 
ATOM     17  O   UNL     1       1.555   1.923  20.413  0.00  0.00    +0.000 OA
BRANCH  16  18
ATOM     18  O   UNL     1       1.884   1.501  18.243  0.00  0.00    +0.000 OA
ATOM     19  H   UNL     1       1.787   0.524  18.286  0.00  0.00    +0.000 HD
ENDBRANCH  16  18
ENDBRANCH  10  16
ENDBRANCH   3   5
BRANCH   1  21
ATOM     20  N   UNL     1       1.530   8.972  20.666  0.00  0.00    +0.000 NA
ATOM     21  C   UNL     1       1.360   9.488  19.476  0.00  0.00    +0.000 C 
BRANCH  21  22
ATOM     22  C   UNL     1       0.684  10.779  19.224  0.00  0.00    +0.000 A 
ATOM     23  C   UNL     1       1.289  12.026  19.217  0.00  0.00    +0.000 A 
ATOM     24  S   UNL     1       0.147  13.268  18.927  0.00  0.00    +0.000 S 
ATOM     25  C   UNL     1      -1.085  12.089  18.834  0.00  0.00    +0.000 A 
ATOM     26  N   UNL     1      -2.358  12.444  18.619  0.00  0.00    +0.000 N 
ATOM     27  N   UNL     1      -0.694  10.850  18.988  0.00  0.00    +0.000 NA
ATOM     28  H   UNL     1      -2.548  13.373  18.265  0.00  0.00    +0.000 HD
ATOM     29  H   UNL     1      -2.980  11.717  18.285  0.00  0.00    +0.000 HD
ENDBRANCH  21  22
BRANCH  20  30
ATOM     30  O   UNL     1       0.957   9.769  21.677  0.00  0.00    +0.000 OA
BRANCH  30  31
ATOM     31  C   UNL     1      -0.242   9.168  22.171  0.00  0.00    +0.000 C 
BRANCH  31  33
ATOM     32  C   UNL     1      -1.355  11.278  23.001  0.00  0.00    +0.000 C 
ATOM     33  C   UNL     1      -0.798  10.079  23.228  0.00  0.00    +0.000 C 
ENDBRANCH  31  33
ENDBRANCH  30  31
ENDBRANCH  20  30
ENDBRANCH   1  21
TORSDOF 9
ENDMDL
MODEL 2
REMARK VINA RESULT:      -6.9      0.947      1.044
REMARK  Name = 
REMARK  9 active torsions:
REMARK  status: ('A' for Active; 'I' for Inactive)
REMARK    1  A    between atoms: C_2  and  C_3
REMARK    2  A    between atoms: C_3  and  O_4
REMARK    3  A    between atoms: O_4  and  N_5
REMARK    4  A    between atoms: C_6  and  C_7
REMARK    5  A    between atoms: C_6  and  C_24
REMARK    6  A    between atoms: N_9  and  C_10
REMARK    7  A    between atoms: C_14  and  C_15
REMARK    8  A    between atoms: C_17  and  C_18
REMARK    9  A    between atoms: C_18  and  O_20
REMARK                            x       y       z     vdW  Elec       q    Type
REMARK                         _______ _______ _______ _____ _____    ______ ____
ROOT
ATOM      1  C   UNL     1       1.857   8.712  18.403  0.00  0.00    +0.000 C 
ATOM      2  O   UNL     1       1.745   9.130  17.260  0.00  0.00    +0.000 OA
ATOM      3  N   UNL     1       2.458   7.507  18.702  0.00  0.00    +0.000 N 
ATOM      4  H   UNL     1       2.903   7.443  19.608  0.00  0.00    +0.000 HD
ENDROOT
BRANCH   3   5
ATOM      5  C   UNL     1       2.961   6.586  17.677  0.00  0.00    +0.000 C 
ATOM      6  C   UNL     1       4.434   6.183  17.929  0.00  0.00    +0.000 C 
ATOM      7  N   UNL     1       4.238   5.293  19.063  0.00  0.00    +0.000 NA
ATOM      8  C   UNL     1       5.249   4.350  19.521  0.00  0.00    +0.000 C 
ATOM      9  C   UNL     1       4.400   3.139  19.829  0.00  0.00    +0.000 C 
ATOM     10  C   UNL     1       3.170   3.298  19.301  0.00  0.00    +0.000 C 
ATOM     11  N   UNL     1       3.101   4.552  18.759  0.00  0.00    +0.000 N 
ATOM     12  C   UNL     1       2.256   5.236  17.906  0.00  0.00    +0.000 C 
ATOM     13  O   UNL     1       1.137   4.886  17.557  0.00  0.00    +0.000 OA
BRANCH   9  14
ATOM     14  C   UNL     1       4.893   2.057  20.588  0.00  0.00    +0.000 C 
ATOM     15  N   UNL     1       5.371   1.232  21.252  0.00  0.00    +0.000 NA
ENDBRANCH   9  14
BRANCH  10  16
ATOM     16  C   UNL     1       2.100   2.277  19.331  0.00  0.00    +0.000 C 
ATOM     17  O   UNL     1       1.521   1.972  20.365  0.00  0.00    +0.000 OA
BRANCH  16  18
ATOM     18  O   UNL     1       1.782   1.689  18.163  0.00  0.00    +0.000 OA
ATOM     19  H   UNL     1       2.411   1.759  17.411  0.00  0.00    +0.000 HD
ENDBRANCH  16  18
ENDBRANCH  10  16
ENDBRANCH   3   5
BRANCH   1  21
ATOM     20  N   UNL     1       1.565   8.995  20.800  0.00  0.00    +0.000 NA
ATOM     21  C   UNL     1       1.329   9.514  19.623  0.00  0.00    +0.000 C 
BRANCH  21  22
ATOM     22  C   UNL     1       0.627  10.799  19.412  0.00  0.00    +0.000 A 
ATOM     23  C   UNL     1      -0.719  10.952  19.119  0.00  0.00    +0.000 A 
ATOM     24  S   UNL     1      -1.125  12.601  18.909  0.00  0.00    +0.000 S 
ATOM     25  C   UNL     1       0.503  13.022  19.209  0.00  0.00    +0.000 A 
ATOM     26  N   UNL     1       0.898  14.300  19.173  0.00  0.00    +0.000 N 
ATOM     27  N   UNL     1       1.306  12.021  19.468  0.00  0.00    +0.000 NA
ATOM     28  H   UNL     1       0.194  15.026  19.218  0.00  0.00    +0.000 HD
ATOM     29  H   UNL     1       1.773  14.517  19.636  0.00  0.00    +0.000 HD
ENDBRANCH  21  22
BRANCH  20  30
ATOM     30  O   UNL     1       1.034   9.781  21.843  0.00  0.00    +0.000 OA
BRANCH  30  31
ATOM     31  C   UNL     1      -0.077   9.123  22.454  0.00  0.00    +0.000 C 
BRANCH  31  33
ATOM     32  C   UNL     1      -0.962  11.465  22.793  0.00  0.00    +0.000 C 
ATOM     33  C   UNL     1      -0.893  10.174  23.151  0.00  0.00    +0.000 C 
ENDBRANCH  31  33
ENDBRANCH  30  31
ENDBRANCH  20  30
ENDBRANCH   1  21
TORSDOF 9
ENDMDL
MODEL 3
REMARK VINA RESULT:      -6.4      3.097      8.528
REMARK  Name = 
REMARK  9 active torsions:
REMARK  status: ('A' for Active; 'I' for Inactive)
REMARK    1  A    between atoms: C_2  and  C_3
REMARK    2  A    between atoms: C_3  and  O_4
REMARK    3  A    between atoms: O_4  and  N_5
REMARK    4  A    between atoms: C_6  and  C_7
REMARK    5  A    between atoms: C_6  and  C_24
REMARK    6  A    between atoms: N_9  and  C_10
REMARK    7  A    between atoms: C_14  and  C_15
REMARK    8  A    between atoms: C_17  and  C_18
REMARK    9  A    between atoms: C_18  and  O_20
REMARK                            x       y       z     vdW  Elec       q    Type
REMARK                         _______ _______ _______ _____ _____    ______ ____
ROOT
ATOM      1  C   UNL     1       2.216   8.041  18.107  0.00  0.00    +0.000 C 
ATOM      2  O   UNL     1       2.815   8.309  17.077  0.00  0.00    +0.000 OA
ATOM      3  N   UNL     1       1.172   8.806  18.584  0.00  0.00    +0.000 N 
ATOM      4  H   UNL     1       0.474   8.320  19.131  0.00  0.00    +0.000 HD
ENDROOT
BRANCH   3   5
ATOM      5  C   UNL     1       0.725  10.045  17.937  0.00  0.00    +0.000 C 
ATOM      6  C   UNL     1      -0.647  10.520  18.474  0.00  0.00    +0.000 C 
ATOM      7  N   UNL     1      -0.228  10.998  19.783  0.00  0.00    +0.000 NA
ATOM      8  C   UNL     1      -1.048  11.869  20.613  0.00  0.00    +0.000 C 
ATOM      9  C   UNL     1      -0.009  12.825  21.149  0.00  0.00    +0.000 C 
ATOM     10  C   UNL     1       1.136  12.692  20.450  0.00  0.00    +0.000 C 
ATOM     11  N   UNL     1       0.976  11.661  19.567  0.00  0.00    +0.000 N 
ATOM     12  C   UNL     1       1.637  11.173  18.456  0.00  0.00    +0.000 C 
ATOM     13  O   UNL     1       2.762  11.481  18.088  0.00  0.00    +0.000 OA
BRANCH   9  14
ATOM     14  C   UNL     1      -0.273  13.677  22.241  0.00  0.00    +0.000 C 
ATOM     15  N   UNL     1      -0.441  14.309  23.202  0.00  0.00    +0.000 NA
ENDBRANCH   9  14
BRANCH  10  16
ATOM     16  C   UNL     1       2.342  13.527  20.641  0.00  0.00    +0.000 C 
ATOM     17  O   UNL     1       3.013  13.478  21.663  0.00  0.00    +0.000 OA
BRANCH  16  18
ATOM     18  O   UNL     1       2.682  14.352  19.633  0.00  0.00    +0.000 OA
ATOM     19  H   UNL     1       2.586  15.322  19.762  0.00  0.00    +0.000 HD
ENDBRANCH  16  18
ENDBRANCH  10  16
ENDBRANCH   3   5
BRANCH   1  21
ATOM     20  N   UNL     1       2.018   6.734  20.148  0.00  0.00    +0.000 NA
ATOM     21  C   UNL     1       2.583   6.804  18.970  0.00  0.00    +0.000 C 
BRANCH  21  22
ATOM     22  C   UNL     1       3.504   5.779  18.433  0.00  0.00    +0.000 A 
ATOM     23  C   UNL     1       3.181   4.800  17.506  0.00  0.00    +0.000 A 
ATOM     24  S   UNL     1       4.521   3.786  17.181  0.00  0.00    +0.000 S 
ATOM     25  C   UNL     1       5.453   4.693  18.290  0.00  0.00    +0.000 A 
ATOM     26  N   UNL     1       6.728   4.370  18.537  0.00  0.00    +0.000 N 
ATOM     27  N   UNL     1       4.834   5.695  18.860  0.00  0.00    +0.000 NA
ATOM     28  H   UNL     1       7.207   3.757  17.890  0.00  0.00    +0.000 HD
ATOM     29  H   UNL     1       7.304   5.090  18.958  0.00  0.00    +0.000 HD
ENDBRANCH  21  22
BRANCH  20  30
ATOM     30  O   UNL     1       2.424   5.589  20.864  0.00  0.00    +0.000 OA
BRANCH  30  31
ATOM     31  C   UNL     1       1.405   4.587  20.828  0.00  0.00    +0.000 C 
BRANCH  31  33
ATOM     32  C   UNL     1       3.058   2.687  20.638  0.00  0.00    +0.000 C 
ATOM     33  C   UNL     1       2.034   3.293  21.257  0.00  0.00    +0.000 C 
ENDBRANCH  31  33
ENDBRANCH  30  31
ENDBRANCH  20  30
ENDBRANCH   1  21
TORSDOF 9
ENDMDL
MODEL 4
REMARK VINA RESULT:      -6.3      3.227      8.354
REMARK  Name = 
REMARK  9 active torsions:
REMARK  status: ('A' for Active; 'I' for Inactive)
REMARK    1  A    between atoms: C_2  and  C_3
REMARK    2  A    between atoms: C_3  and  O_4
REMARK    3  A    between atoms: O_4  and  N_5
REMARK    4  A    between atoms: C_6  and  C_7
REMARK    5  A    between atoms: C_6  and  C_24
REMARK    6  A    between atoms: N_9  and  C_10
REMARK    7  A    between atoms: C_14  and  C_15
REMARK    8  A    between atoms: C_17  and  C_18
REMARK    9  A    between atoms: C_18  and  O_20
REMARK                            x       y       z     vdW  Elec       q    Type
REMARK                         _______ _______ _______ _____ _____    ______ ____
ROOT
ATOM      1  C   UNL     1       2.561   7.838  17.840  0.00  0.00    +0.000 C 
ATOM      2  O   UNL     1       2.996   8.140  16.738  0.00  0.00    +0.000 OA
ATOM      3  N   UNL     1       1.526   8.518  18.446  0.00  0.00    +0.000 N 
ATOM      4  H   UNL     1       0.951   7.981  19.082  0.00  0.00    +0.000 HD
ENDROOT
BRANCH   3   5
ATOM      5  C   UNL     1       0.893   9.703  17.859  0.00  0.00    +0.000 C 
ATOM      6  C   UNL     1      -0.494   9.992  18.482  0.00  0.00    +0.000 C 
ATOM      7  N   UNL     1      -0.064  10.491  19.779  0.00  0.00    +0.000 NA
ATOM      8  C   UNL     1      -0.937  11.235  20.676  0.00  0.00    +0.000 C 
ATOM      9  C   UNL     1       0.005  12.303  21.181  0.00  0.00    +0.000 C 
ATOM     10  C   UNL     1       1.115  12.329  20.418  0.00  0.00    +0.000 C 
ATOM     11  N   UNL     1       1.034  11.304  19.517  0.00  0.00    +0.000 N 
ATOM     12  C   UNL     1       1.686  10.926  18.359  0.00  0.00    +0.000 C 
ATOM     13  O   UNL     1       2.741  11.380  17.939  0.00  0.00    +0.000 OA
BRANCH   9  14
ATOM     14  C   UNL     1      -0.301  13.093  22.309  0.00  0.00    +0.000 C 
ATOM     15  N   UNL     1      -0.498  13.673  23.296  0.00  0.00    +0.000 NA
ENDBRANCH   9  14
BRANCH  10  16
ATOM     16  C   UNL     1       2.218  13.304  20.566  0.00  0.00    +0.000 C 
ATOM     17  O   UNL     1       2.895  13.371  21.582  0.00  0.00    +0.000 OA
BRANCH  16  18
ATOM     18  O   UNL     1       2.453  14.125  19.526  0.00  0.00    +0.000 OA
ATOM     19  H   UNL     1       2.481  15.096  19.685  0.00  0.00    +0.000 HD
ENDBRANCH  16  18
ENDBRANCH  10  16
ENDBRANCH   3   5
BRANCH   1  21
ATOM     20  N   UNL     1       2.499   6.324  19.742  0.00  0.00    +0.000 NA
ATOM     21  C   UNL     1       3.144   6.649  18.652  0.00  0.00    +0.000 C 
BRANCH  21  22
ATOM     22  C   UNL     1       4.348   5.942  18.162  0.00  0.00    +0.000 A 
ATOM     23  C   UNL     1       5.662   6.294  18.427  0.00  0.00    +0.000 A 
ATOM     24  S   UNL     1       6.757   5.243  17.638  0.00  0.00    +0.000 S 
ATOM     25  C   UNL     1       5.433   4.383  16.984  0.00  0.00    +0.000 A 
ATOM     26  N   UNL     1       5.630   3.336  16.173  0.00  0.00    +0.000 N 
ATOM     27  N   UNL     1       4.250   4.821  17.330  0.00  0.00    +0.000 NA
ATOM     28  H   UNL     1       6.545   2.905  16.152  0.00  0.00    +0.000 HD
ATOM     29  H   UNL     1       4.849   2.700  16.058  0.00  0.00    +0.000 HD
ENDBRANCH  21  22
BRANCH  20  30
ATOM     30  O   UNL     1       3.109   5.250  20.420  0.00  0.00    +0.000 OA
BRANCH  30  31
ATOM     31  C   UNL     1       2.128   4.458  21.094  0.00  0.00    +0.000 C 
BRANCH  31  33
ATOM     32  C   UNL     1       0.846   2.856  19.621  0.00  0.00    +0.000 C 
ATOM     33  C   UNL     1       1.076   4.093  20.086  0.00  0.00    +0.000 C 
ENDBRANCH  31  33
ENDBRANCH  30  31
ENDBRANCH  20  30
ENDBRANCH   1  21
TORSDOF 9
ENDMDL
MODEL 5
REMARK VINA RESULT:      -6.2      3.234      4.534
REMARK  Name = 
REMARK  9 active torsions:
REMARK  status: ('A' for Active; 'I' for Inactive)
REMARK    1  A    between atoms: C_2  and  C_3
REMARK    2  A    between atoms: C_3  and  O_4
REMARK    3  A    between atoms: O_4  and  N_5
REMARK    4  A    between atoms: C_6  and  C_7
REMARK    5  A    between atoms: C_6  and  C_24
REMARK    6  A    between atoms: N_9  and  C_10
REMARK    7  A    between atoms: C_14  and  C_15
REMARK    8  A    between atoms: C_17  and  C_18
REMARK    9  A    between atoms: C_18  and  O_20
REMARK                            x       y       z     vdW  Elec       q    Type
REMARK                         _______ _______ _______ _____ _____    ______ ____
ROOT
ATOM      1  C   UNL     1       1.909   6.934  20.115  0.00  0.00    +0.000 C 
ATOM      2  O   UNL     1       1.285   6.217  20.882  0.00  0.00    +0.000 OA
ATOM      3  N   UNL     1       3.012   6.496  19.413  0.00  0.00    +0.000 N 
ATOM      4  H   UNL     1       3.182   6.946  18.523  0.00  0.00    +0.000 HD
ENDROOT
BRANCH   3   5
ATOM      5  C   UNL     1       3.578   5.152  19.567  0.00  0.00    +0.000 C 
ATOM      6  C   UNL     1       3.020   4.161  18.516  0.00  0.00    +0.000 C 
ATOM      7  N   UNL     1       3.725   4.652  17.341  0.00  0.00    +0.000 NA
ATOM      8  C   UNL     1       3.848   3.887  16.108  0.00  0.00    +0.000 C 
ATOM      9  C   UNL     1       5.282   4.171  15.731  0.00  0.00    +0.000 C 
ATOM     10  C   UNL     1       5.927   4.728  16.775  0.00  0.00    +0.000 C 
ATOM     11  N   UNL     1       5.017   4.931  17.775  0.00  0.00    +0.000 N 
ATOM     12  C   UNL     1       5.050   5.235  19.123  0.00  0.00    +0.000 C 
ATOM     13  O   UNL     1       6.021   5.628  19.754  0.00  0.00    +0.000 OA
BRANCH   9  14
ATOM     14  C   UNL     1       5.784   3.887  14.444  0.00  0.00    +0.000 C 
ATOM     15  N   UNL     1       6.135   3.569  13.383  0.00  0.00    +0.000 NA
ENDBRANCH   9  14
BRANCH  10  16
ATOM     16  C   UNL     1       7.368   5.061  16.797  0.00  0.00    +0.000 C 
ATOM     17  O   UNL     1       8.208   4.289  17.239  0.00  0.00    +0.000 OA
BRANCH  16  18
ATOM     18  O   UNL     1       7.728   6.260  16.303  0.00  0.00    +0.000 OA
ATOM     19  H   UNL     1       7.932   6.989  16.931  0.00  0.00    +0.000 HD
ENDBRANCH  16  18
ENDBRANCH  10  16
ENDBRANCH   3   5
BRANCH   1  21
ATOM     20  N   UNL     1       1.841   8.914  18.705  0.00  0.00    +0.000 NA
ATOM     21  C   UNL     1       1.503   8.412  19.864  0.00  0.00    +0.000 C 
BRANCH  21  22
ATOM     22  C   UNL     1       0.756   9.157  20.901  0.00  0.00    +0.000 A 
ATOM     23  C   UNL     1       0.816   8.932  22.267  0.00  0.00    +0.000 A 
ATOM     24  S   UNL     1      -0.235   9.982  23.117  0.00  0.00    +0.000 S 
ATOM     25  C   UNL     1      -0.717  10.673  21.630  0.00  0.00    +0.000 A 
ATOM     26  N   UNL     1      -1.632  11.649  21.594  0.00  0.00    +0.000 N 
ATOM     27  N   UNL     1      -0.136  10.183  20.566  0.00  0.00    +0.000 NA
ATOM     28  H   UNL     1      -1.848  12.143  22.451  0.00  0.00    +0.000 HD
ATOM     29  H   UNL     1      -1.662  12.210  20.751  0.00  0.00    +0.000 HD
ENDBRANCH  21  22
BRANCH  20  30
ATOM     30  O   UNL     1       1.448  10.262  18.575  0.00  0.00    +0.000 OA
BRANCH  30  31
ATOM     31  C   UNL     1       2.464  11.021  17.916  0.00  0.00    +0.000 C 
BRANCH  31  33
ATOM     32  C   UNL     1       1.965  12.884  19.547  0.00  0.00    +0.000 C 
ATOM     33  C   UNL     1       2.280  12.457  18.315  0.00  0.00    +0.000 C 
ENDBRANCH  31  33
ENDBRANCH  30  31
ENDBRANCH  20  30
ENDBRANCH   1  21
TORSDOF 9
ENDMDL
MODEL 6
REMARK VINA RESULT:      -6.1      3.025      4.175
REMARK  Name = 
REMARK  9 active torsions:
REMARK  status: ('A' for Active; 'I' for Inactive)
REMARK    1  A    between atoms: C_2  and  C_3
REMARK    2  A    between atoms: C_3  and  O_4
REMARK    3  A    between atoms: O_4  and  N_5
REMARK    4  A    between atoms: C_6  and  C_7
REMARK    5  A    between atoms: C_6  and  C_24
REMARK    6  A    between atoms: N_9  and  C_10
REMARK    7  A    between atoms: C_14  and  C_15
REMARK    8  A    between atoms: C_17  and  C_18
REMARK    9  A    between atoms: C_18  and  O_20
REMARK                            x       y       z     vdW  Elec       q    Type
REMARK                         _______ _______ _______ _____ _____    ______ ____
ROOT
ATOM      1  C   UNL     1       1.951   5.998  20.566  0.00  0.00    +0.000 C 
ATOM      2  O   UNL     1       1.165   5.080  20.746  0.00  0.00    +0.000 OA
ATOM      3  N   UNL     1       3.258   5.796  20.175  0.00  0.00    +0.000 N 
ATOM      4  H   UNL     1       3.682   6.538  19.634  0.00  0.00    +0.000 HD
ENDROOT
BRANCH   3   5
ATOM      5  C   UNL     1       3.845   4.463  20.001  0.00  0.00    +0.000 C 
ATOM      6  C   UNL     1       3.165   3.672  18.857  0.00  0.00    +0.000 C 
ATOM      7  N   UNL     1       3.714   4.394  17.720  0.00  0.00    +0.000 NA
ATOM      8  C   UNL     1       3.685   3.878  16.358  0.00  0.00    +0.000 C 
ATOM      9  C   UNL     1       5.059   4.268  15.869  0.00  0.00    +0.000 C 
ATOM     10  C   UNL     1       5.827   4.638  16.913  0.00  0.00    +0.000 C 
ATOM     11  N   UNL     1       5.049   4.624  18.037  0.00  0.00    +0.000 N 
ATOM     12  C   UNL     1       5.250   4.670  19.403  0.00  0.00    +0.000 C 
ATOM     13  O   UNL     1       6.291   4.965  19.974  0.00  0.00    +0.000 OA
BRANCH   9  14
ATOM     14  C   UNL     1       5.397   4.245  14.500  0.00  0.00    +0.000 C 
ATOM     15  N   UNL     1       5.745   4.152  13.395  0.00  0.00    +0.000 NA
ENDBRANCH   9  14
BRANCH  10  16
ATOM     16  C   UNL     1       7.258   5.002  16.821  0.00  0.00    +0.000 C 
ATOM     17  O   UNL     1       7.634   6.033  16.279  0.00  0.00    +0.000 OA
BRANCH  16  18
ATOM     18  O   UNL     1       8.144   4.147  17.364  0.00  0.00    +0.000 OA
ATOM     19  H   UNL     1       7.867   3.607  18.139  0.00  0.00    +0.000 HD
ENDBRANCH  16  18
ENDBRANCH  10  16
ENDBRANCH   3   5
BRANCH   1  21
ATOM     20  N   UNL     1       1.221   7.836  21.980  0.00  0.00    +0.000 NA
ATOM     21  C   UNL     1       1.536   7.481  20.761  0.00  0.00    +0.000 C 
BRANCH  21  22
ATOM     22  C   UNL     1       1.537   8.405  19.606  0.00  0.00    +0.000 A 
ATOM     23  C   UNL     1       2.407   8.358  18.528  0.00  0.00    +0.000 A 
ATOM     24  S   UNL     1       2.101   9.633  17.427  0.00  0.00    +0.000 S 
ATOM     25  C   UNL     1       0.839  10.181  18.441  0.00  0.00    +0.000 A 
ATOM     26  N   UNL     1       0.131  11.271  18.123  0.00  0.00    +0.000 N 
ATOM     27  N   UNL     1       0.632   9.470  19.519  0.00  0.00    +0.000 NA
ATOM     28  H   UNL     1       0.174  11.617  17.173  0.00  0.00    +0.000 HD
ATOM     29  H   UNL     1      -0.766  11.377  18.582  0.00  0.00    +0.000 HD
ENDBRANCH  21  22
BRANCH  20  30
ATOM     30  O   UNL     1       0.842   9.192  22.057  0.00  0.00    +0.000 OA
BRANCH  30  31
ATOM     31  C   UNL     1       0.132   9.447  23.271  0.00  0.00    +0.000 C 
BRANCH  31  33
ATOM     32  C   UNL     1      -0.746  11.694  22.520  0.00  0.00    +0.000 C 
ATOM     33  C   UNL     1      -0.949  10.442  22.957  0.00  0.00    +0.000 C 
ENDBRANCH  31  33
ENDBRANCH  30  31
ENDBRANCH  20  30
ENDBRANCH   1  21
TORSDOF 9
ENDMDL
MODEL 7
REMARK VINA RESULT:      -6.1      3.130      8.854
REMARK  Name = 
REMARK  9 active torsions:
REMARK  status: ('A' for Active; 'I' for Inactive)
REMARK    1  A    between atoms: C_2  and  C_3
REMARK    2  A    between atoms: C_3  and  O_4
REMARK    3  A    between atoms: O_4  and  N_5
REMARK    4  A    between atoms: C_6  and  C_7
REMARK    5  A    between atoms: C_6  and  C_24
REMARK    6  A    between atoms: N_9  and  C_10
REMARK    7  A    between atoms: C_14  and  C_15
REMARK    8  A    between atoms: C_17  and  C_18
REMARK    9  A    between atoms: C_18  and  O_20
REMARK                            x       y       z     vdW  Elec       q    Type
REMARK                         _______ _______ _______ _____ _____    ______ ____
ROOT
ATOM      1  C   UNL     1       1.951   7.025  19.942  0.00  0.00    +0.000 C 
ATOM      2  O   UNL     1       1.558   6.305  20.848  0.00  0.00    +0.000 OA
ATOM      3  N   UNL     1       1.633   8.364  19.862  0.00  0.00    +0.000 N 
ATOM      4  H   UNL     1       2.309   8.957  19.399  0.00  0.00    +0.000 HD
ENDROOT
BRANCH   3   5
ATOM      5  C   UNL     1       0.746   9.036  20.818  0.00  0.00    +0.000 C 
ATOM      6  C   UNL     1       1.425  10.256  21.485  0.00  0.00    +0.000 C 
ATOM      7  N   UNL     1       1.406  11.176  20.358  0.00  0.00    +0.000 NA
ATOM      8  C   UNL     1       1.617  12.610  20.494  0.00  0.00    +0.000 C 
ATOM      9  C   UNL     1       0.578  13.150  19.540  0.00  0.00    +0.000 C 
ATOM     10  C   UNL     1      -0.281  12.169  19.198  0.00  0.00    +0.000 C 
ATOM     11  N   UNL     1       0.160  11.005  19.763  0.00  0.00    +0.000 N 
ATOM     12  C   UNL     1      -0.347   9.740  19.992  0.00  0.00    +0.000 C 
ATOM     13  O   UNL     1      -1.364   9.267  19.503  0.00  0.00    +0.000 OA
BRANCH   9  14
ATOM     14  C   UNL     1       0.594  14.490  19.101  0.00  0.00    +0.000 C 
ATOM     15  N   UNL     1       0.535  15.614  18.812  0.00  0.00    +0.000 NA
ENDBRANCH   9  14
BRANCH  10  16
ATOM     16  C   UNL     1      -1.477  12.353  18.346  0.00  0.00    +0.000 C 
ATOM     17  O   UNL     1      -2.612  12.305  18.800  0.00  0.00    +0.000 OA
BRANCH  16  18
ATOM     18  O   UNL     1      -1.267  12.582  17.037  0.00  0.00    +0.000 OA
ATOM     19  H   UNL     1      -1.067  11.820  16.449  0.00  0.00    +0.000 HD
ENDBRANCH  16  18
ENDBRANCH  10  16
ENDBRANCH   3   5
BRANCH   1  21
ATOM     20  N   UNL     1       3.380   7.381  18.007  0.00  0.00    +0.000 NA
ATOM     21  C   UNL     1       2.850   6.484  18.798  0.00  0.00    +0.000 C 
BRANCH  21  22
ATOM     22  C   UNL     1       3.083   5.029  18.670  0.00  0.00    +0.000 A 
ATOM     23  C   UNL     1       2.343   4.152  17.892  0.00  0.00    +0.000 A 
ATOM     24  S   UNL     1       2.912   2.546  18.054  0.00  0.00    +0.000 S 
ATOM     25  C   UNL     1       4.102   3.097  19.150  0.00  0.00    +0.000 A 
ATOM     26  N   UNL     1       4.958   2.240  19.719  0.00  0.00    +0.000 N 
ATOM     27  N   UNL     1       4.104   4.385  19.379  0.00  0.00    +0.000 NA
ATOM     28  H   UNL     1       5.062   1.319  19.313  0.00  0.00    +0.000 HD
ATOM     29  H   UNL     1       5.802   2.639  20.112  0.00  0.00    +0.000 HD
ENDBRANCH  21  22
BRANCH  20  30
ATOM     30  O   UNL     1       4.164   6.797  16.992  0.00  0.00    +0.000 OA
BRANCH  30  31
ATOM     31  C   UNL     1       5.552   7.051  17.219  0.00  0.00    +0.000 C 
BRANCH  31  33
ATOM     32  C   UNL     1       5.809   4.802  16.099  0.00  0.00    +0.000 C 
ATOM     33  C   UNL     1       6.305   5.811  16.831  0.00  0.00    +0.000 C 
ENDBRANCH  31  33
ENDBRANCH  30  31
ENDBRANCH  20  30
ENDBRANCH   1  21
TORSDOF 9
ENDMDL
MODEL 8
REMARK VINA RESULT:      -6.1      3.314      8.406
REMARK  Name = 
REMARK  9 active torsions:
REMARK  status: ('A' for Active; 'I' for Inactive)
REMARK    1  A    between atoms: C_2  and  C_3
REMARK    2  A    between atoms: C_3  and  O_4
REMARK    3  A    between atoms: O_4  and  N_5
REMARK    4  A    between atoms: C_6  and  C_7
REMARK    5  A    between atoms: C_6  and  C_24
REMARK    6  A    between atoms: N_9  and  C_10
REMARK    7  A    between atoms: C_14  and  C_15
REMARK    8  A    between atoms: C_17  and  C_18
REMARK    9  A    between atoms: C_18  and  O_20
REMARK                            x       y       z     vdW  Elec       q    Type
REMARK                         _______ _______ _______ _____ _____    ______ ____
ROOT
ATOM      1  C   UNL     1       2.281   8.152  17.871  0.00  0.00    +0.000 C 
ATOM      2  O   UNL     1       2.626   8.461  16.740  0.00  0.00    +0.000 OA
ATOM      3  N   UNL     1       1.295   8.825  18.561  0.00  0.00    +0.000 N 
ATOM      4  H   UNL     1       0.773   8.283  19.237  0.00  0.00    +0.000 HD
ENDROOT
BRANCH   3   5
ATOM      5  C   UNL     1       0.613  10.011  18.031  0.00  0.00    +0.000 C 
ATOM      6  C   UNL     1      -0.768  10.233  18.694  0.00  0.00    +0.000 C 
ATOM      7  N   UNL     1      -0.325  10.698  19.999  0.00  0.00    +0.000 NA
ATOM      8  C   UNL     1      -1.200  11.381  20.941  0.00  0.00    +0.000 C 
ATOM      9  C   UNL     1      -0.280  12.458  21.465  0.00  0.00    +0.000 C 
ATOM     10  C   UNL     1       0.812  12.547  20.681  0.00  0.00    +0.000 C 
ATOM     11  N   UNL     1       0.742  11.553  19.744  0.00  0.00    +0.000 N 
ATOM     12  C   UNL     1       1.379  11.238  18.559  0.00  0.00    +0.000 C 
ATOM     13  O   UNL     1       2.410  11.740  18.134  0.00  0.00    +0.000 OA
BRANCH   9  14
ATOM     14  C   UNL     1      -0.583  13.197  22.628  0.00  0.00    +0.000 C 
ATOM     15  N   UNL     1      -0.745  13.767  23.628  0.00  0.00    +0.000 NA
ENDBRANCH   9  14
BRANCH  10  16
ATOM     16  C   UNL     1       1.887  13.550  20.841  0.00  0.00    +0.000 C 
ATOM     17  O   UNL     1       1.785  14.689  20.405  0.00  0.00    +0.000 OA
BRANCH  16  18
ATOM     18  O   UNL     1       2.997  13.160  21.496  0.00  0.00    +0.000 OA
ATOM     19  H   UNL     1       2.920  12.889  22.438  0.00  0.00    +0.000 HD
ENDBRANCH  16  18
ENDBRANCH  10  16
ENDBRANCH   3   5
BRANCH   1  21
ATOM     20  N   UNL     1       2.406   6.661  19.788  0.00  0.00    +0.000 NA
ATOM     21  C   UNL     1       2.930   6.962  18.628  0.00  0.00    +0.000 C 
BRANCH  21  22
ATOM     22  C   UNL     1       4.059   6.227  18.016  0.00  0.00    +0.000 A 
ATOM     23  C   UNL     1       4.088   4.871  17.730  0.00  0.00    +0.000 A 
ATOM     24  S   UNL     1       5.595   4.408  17.066  0.00  0.00    +0.000 S 
ATOM     25  C   UNL     1       6.130   6.025  17.200  0.00  0.00    +0.000 A 
ATOM     26  N   UNL     1       7.368   6.370  16.824  0.00  0.00    +0.000 N 
ATOM     27  N   UNL     1       5.258   6.870  17.686  0.00  0.00    +0.000 NA
ATOM     28  H   UNL     1       7.890   5.734  16.235  0.00  0.00    +0.000 HD
ATOM     29  H   UNL     1       7.530   7.355  16.648  0.00  0.00    +0.000 HD
ENDBRANCH  21  22
BRANCH  20  30
ATOM     30  O   UNL     1       3.070   5.583  20.407  0.00  0.00    +0.000 OA
BRANCH  30  31
ATOM     31  C   UNL     1       2.152   4.802  21.175  0.00  0.00    +0.000 C 
BRANCH  31  33
ATOM     32  C   UNL     1       0.910   3.038  19.860  0.00  0.00    +0.000 C 
ATOM     33  C   UNL     1       1.085   4.313  20.237  0.00  0.00    +0.000 C 
ENDBRANCH  31  33
ENDBRANCH  30  31
ENDBRANCH  20  30
ENDBRANCH   1  21
TORSDOF 9
ENDMDL
MODEL 9
REMARK VINA RESULT:      -6.1      2.926      8.655
REMARK  Name = 
REMARK  9 active torsions:
REMARK  status: ('A' for Active; 'I' for Inactive)
REMARK    1  A    between atoms: C_2  and  C_3
REMARK    2  A    between atoms: C_3  and  O_4
REMARK    3  A    between atoms: O_4  and  N_5
REMARK    4  A    between atoms: C_6  and  C_7
REMARK    5  A    between atoms: C_6  and  C_24
REMARK    6  A    between atoms: N_9  and  C_10
REMARK    7  A    between atoms: C_14  and  C_15
REMARK    8  A    between atoms: C_17  and  C_18
REMARK    9  A    between atoms: C_18  and  O_20
REMARK                            x       y       z     vdW  Elec       q    Type
REMARK                         _______ _______ _______ _____ _____    ______ ____
ROOT
ATOM      1  C   UNL     1       2.211   8.326  18.602  0.00  0.00    +0.000 C 
ATOM      2  O   UNL     1       2.697   8.513  17.497  0.00  0.00    +0.000 OA
ATOM      3  N   UNL     1       1.533   9.307  19.295  0.00  0.00    +0.000 N 
ATOM      4  H   UNL     1       0.814   8.988  19.931  0.00  0.00    +0.000 HD
ENDROOT
BRANCH   3   5
ATOM      5  C   UNL     1       1.386  10.680  18.802  0.00  0.00    +0.000 C 
ATOM      6  C   UNL     1       0.093  10.866  17.972  0.00  0.00    +0.000 C 
ATOM      7  N   UNL     1      -0.881  10.827  19.052  0.00  0.00    +0.000 NA
ATOM      8  C   UNL     1      -2.255  11.288  18.903  0.00  0.00    +0.000 C 
ATOM      9  C   UNL     1      -2.464  12.007  20.215  0.00  0.00    +0.000 C 
ATOM     10  C   UNL     1      -1.279  12.192  20.829  0.00  0.00    +0.000 C 
ATOM     11  N   UNL     1      -0.316  11.566  20.086  0.00  0.00    +0.000 N 
ATOM     12  C   UNL     1       1.064  11.561  20.024  0.00  0.00    +0.000 C 
ATOM     13  O   UNL     1       1.830  12.027  20.857  0.00  0.00    +0.000 OA
BRANCH   9  14
ATOM     14  C   UNL     1      -3.750  12.372  20.667  0.00  0.00    +0.000 C 
ATOM     15  N   UNL     1      -4.832  12.570  21.042  0.00  0.00    +0.000 NA
ENDBRANCH   9  14
BRANCH  10  16
ATOM     16  C   UNL     1      -1.090  12.937  22.093  0.00  0.00    +0.000 C 
ATOM     17  O   UNL     1      -1.398  14.115  22.205  0.00  0.00    +0.000 OA
BRANCH  16  18
ATOM     18  O   UNL     1      -0.563  12.260  23.130  0.00  0.00    +0.000 OA
ATOM     19  H   UNL     1      -0.891  12.453  24.037  0.00  0.00    +0.000 HD
ENDBRANCH  16  18
ENDBRANCH  10  16
ENDBRANCH   3   5
BRANCH   1  21
ATOM     20  N   UNL     1       1.611   6.820  20.415  0.00  0.00    +0.000 NA
ATOM     21  C   UNL     1       2.317   6.954  19.322  0.00  0.00    +0.000 C 
BRANCH  21  22
ATOM     22  C   UNL     1       3.163   5.885  18.748  0.00  0.00    +0.000 A 
ATOM     23  C   UNL     1       2.808   5.033  17.714  0.00  0.00    +0.000 A 
ATOM     24  S   UNL     1       4.055   3.910  17.378  0.00  0.00    +0.000 S 
ATOM     25  C   UNL     1       4.993   4.607  18.625  0.00  0.00    +0.000 A 
ATOM     26  N   UNL     1       6.207   4.125  18.919  0.00  0.00    +0.000 N 
ATOM     27  N   UNL     1       4.443   5.617  19.248  0.00  0.00    +0.000 NA
ATOM     28  H   UNL     1       6.664   3.522  18.247  0.00  0.00    +0.000 HD
ATOM     29  H   UNL     1       6.822   4.737  19.441  0.00  0.00    +0.000 HD
ENDBRANCH  21  22
BRANCH  20  30
ATOM     30  O   UNL     1       1.783   5.552  21.006  0.00  0.00    +0.000 OA
BRANCH  30  31
ATOM     31  C   UNL     1       0.824   4.624  20.493  0.00  0.00    +0.000 C 
BRANCH  31  33
ATOM     32  C   UNL     1       2.517   2.881  21.183  0.00  0.00    +0.000 C 
ATOM     33  C   UNL     1       1.254   3.251  20.923  0.00  0.00    +0.000 C 
ENDBRANCH  31  33
ENDBRANCH  30  31
ENDBRANCH  20  30
ENDBRANCH   1  21
TORSDOF 9
ENDMDL
