MODEL 1
REMARK VINA RESULT:      -8.1      0.000      0.000
REMARK  Name = 
REMARK  4 active torsions:
REMARK  status: ('A' for Active; 'I' for Inactive)
REMARK    1  A    between atoms: C_1  and  N_2
REMARK    2  A    between atoms: C_8  and  O_9
REMARK    3  A    between atoms: O_9  and  C_10
REMARK    4  A    between atoms: C_10  and  C_12
REMARK                            x       y       z     vdW  Elec       q    Type
REMARK                         _______ _______ _______ _____ _____    ______ ____
ROOT
ATOM      1  C   UNL     1       3.745   3.376  17.056  0.00  0.00    +0.000 C 
ATOM      2  O   UNL     1       2.779   3.262  16.316  0.00  0.00    +0.000 OA
ENDROOT
BRANCH   1   3
ATOM      3  C   UNL     1       3.792   3.062  18.452  0.00  0.00    +0.000 A 
ATOM      4  N   UNL     1       4.847   2.468  19.109  0.00  0.00    +0.000 N 
ATOM      5  N   UNL     1       4.612   2.135  20.401  0.00  0.00    +0.000 NA
ATOM      6  C   UNL     1       3.365   2.574  20.629  0.00  0.00    +0.000 A 
ATOM      7  C   UNL     1       2.568   2.475  21.785  0.00  0.00    +0.000 A 
ATOM      8  C   UNL     1       1.282   3.046  21.648  0.00  0.00    +0.000 A 
ATOM      9  C   UNL     1       0.822   3.678  20.453  0.00  0.00    +0.000 A 
ATOM     10  C   UNL     1       1.592   3.785  19.281  0.00  0.00    +0.000 A 
ATOM     11  C   UNL     1       2.849   3.210  19.440  0.00  0.00    +0.000 A 
ATOM     12  H   UNL     1       5.748   2.207  18.712  0.00  0.00    +0.000 HD
ENDBRANCH   1   3
BRANCH   1  13
ATOM     13  O   UNL     1       4.983   3.713  16.602  0.00  0.00    +0.000 OA
BRANCH  13  21
ATOM     14  C   UNL     1       7.766   8.007  17.462  0.00  0.00    +0.000 C 
ATOM     15  N   UNL     1       6.801   7.039  16.972  0.00  0.00    +0.000 NA
ATOM     16  C   UNL     1       7.389   5.717  16.747  0.00  0.00    +0.000 C 
ATOM     17  C   UNL     1       7.294   5.034  18.119  0.00  0.00    +0.000 C 
ATOM     18  C   UNL     1       6.091   5.666  18.811  0.00  0.00    +0.000 C 
ATOM     19  C   UNL     1       5.642   6.752  17.836  0.00  0.00    +0.000 C 
ATOM     20  C   UNL     1       4.541   6.174  16.923  0.00  0.00    +0.000 C 
ATOM     21  C   UNL     1       5.045   5.029  16.007  0.00  0.00    +0.000 C 
ATOM     22  C   UNL     1       6.511   5.190  15.601  0.00  0.00    +0.000 C 
ENDBRANCH  13  21
ENDBRANCH   1  13
TORSDOF 3
ENDMDL
MODEL 2
REMARK VINA RESULT:      -7.9      1.741      2.836
REMARK  Name = 
REMARK  4 active torsions:
REMARK  status: ('A' for Active; 'I' for Inactive)
REMARK    1  A    between atoms: C_1  and  N_2
REMARK    2  A    between atoms: C_8  and  O_9
REMARK    3  A    between atoms: O_9  and  C_10
REMARK    4  A    between atoms: C_10  and  C_12
REMARK                            x       y       z     vdW  Elec       q    Type
REMARK                         _______ _______ _______ _____ _____    ______ ____
ROOT
ATOM      1  C   UNL     1       5.703   4.992  19.277  0.00  0.00    +0.000 C 
ATOM      2  O   UNL     1       6.635   5.282  20.013  0.00  0.00    +0.000 OA
ENDROOT
BRANCH   1   3
ATOM      3  C   UNL     1       4.762   3.931  19.470  0.00  0.00    +0.000 A 
ATOM      4  N   UNL     1       4.998   2.593  19.242  0.00  0.00    +0.000 N 
ATOM      5  N   UNL     1       3.916   1.786  19.355  0.00  0.00    +0.000 NA
ATOM      6  C   UNL     1       2.928   2.614  19.727  0.00  0.00    +0.000 A 
ATOM      7  C   UNL     1       1.565   2.351  19.960  0.00  0.00    +0.000 A 
ATOM      8  C   UNL     1       0.813   3.491  20.325  0.00  0.00    +0.000 A 
ATOM      9  C   UNL     1       1.374   4.798  20.458  0.00  0.00    +0.000 A 
ATOM     10  C   UNL     1       2.730   5.093  20.225  0.00  0.00    +0.000 A 
ATOM     11  C   UNL     1       3.445   3.956  19.862  0.00  0.00    +0.000 A 
ATOM     12  H   UNL     1       5.874   2.167  18.946  0.00  0.00    +0.000 HD
ENDBRANCH   1   3
BRANCH   1  13
ATOM     13  O   UNL     1       5.353   5.748  18.201  0.00  0.00    +0.000 OA
BRANCH  13  21
ATOM     14  C   UNL     1       6.967   4.827  13.356  0.00  0.00    +0.000 C 
ATOM     15  N   UNL     1       6.858   5.268  14.735  0.00  0.00    +0.000 NA
ATOM     16  C   UNL     1       5.519   5.754  15.070  0.00  0.00    +0.000 C 
ATOM     17  C   UNL     1       4.756   4.485  15.474  0.00  0.00    +0.000 C 
ATOM     18  C   UNL     1       5.811   3.525  16.016  0.00  0.00    +0.000 C 
ATOM     19  C   UNL     1       7.127   4.265  15.782  0.00  0.00    +0.000 C 
ATOM     20  C   UNL     1       7.490   5.047  17.062  0.00  0.00    +0.000 C 
ATOM     21  C   UNL     1       6.479   6.172  17.398  0.00  0.00    +0.000 C 
ATOM     22  C   UNL     1       5.841   6.795  16.155  0.00  0.00    +0.000 C 
ENDBRANCH  13  21
ENDBRANCH   1  13
TORSDOF 3
ENDMDL
MODEL 3
REMARK VINA RESULT:      -7.6      2.357      3.180
REMARK  Name = 
REMARK  4 active torsions:
REMARK  status: ('A' for Active; 'I' for Inactive)
REMARK    1  A    between atoms: C_1  and  N_2
REMARK    2  A    between atoms: C_8  and  O_9
REMARK    3  A    between atoms: O_9  and  C_10
REMARK    4  A    between atoms: C_10  and  C_12
REMARK                            x       y       z     vdW  Elec       q    Type
REMARK                         _______ _______ _______ _____ _____    ______ ____
ROOT
ATOM      1  C   UNL     1       3.489   6.974  18.275  0.00  0.00    +0.000 C 
ATOM      2  O   UNL     1       3.165   8.013  17.719  0.00  0.00    +0.000 OA
ENDROOT
BRANCH   1   3
ATOM      3  C   UNL     1       2.662   6.162  19.115  0.00  0.00    +0.000 A 
ATOM      4  N   UNL     1       2.267   6.471  20.398  0.00  0.00    +0.000 N 
ATOM      5  N   UNL     1       1.606   5.487  21.054  0.00  0.00    +0.000 NA
ATOM      6  C   UNL     1       1.510   4.500  20.151  0.00  0.00    +0.000 A 
ATOM      7  C   UNL     1       0.955   3.212  20.273  0.00  0.00    +0.000 A 
ATOM      8  C   UNL     1       1.052   2.431  19.099  0.00  0.00    +0.000 A 
ATOM      9  C   UNL     1       1.648   2.896  17.887  0.00  0.00    +0.000 A 
ATOM     10  C   UNL     1       2.216   4.173  17.737  0.00  0.00    +0.000 A 
ATOM     11  C   UNL     1       2.114   4.919  18.907  0.00  0.00    +0.000 A 
ATOM     12  H   UNL     1       2.469   7.326  20.912  0.00  0.00    +0.000 HD
ENDBRANCH   1   3
BRANCH   1  13
ATOM     13  O   UNL     1       4.688   6.367  18.057  0.00  0.00    +0.000 OA
BRANCH  13  21
ATOM     14  C   UNL     1       7.400   4.831  13.909  0.00  0.00    +0.000 C 
ATOM     15  N   UNL     1       6.809   5.602  14.988  0.00  0.00    +0.000 NA
ATOM     16  C   UNL     1       5.395   5.289  15.200  0.00  0.00    +0.000 C 
ATOM     17  C   UNL     1       5.424   4.084  16.151  0.00  0.00    +0.000 C 
ATOM     18  C   UNL     1       6.714   4.223  16.953  0.00  0.00    +0.000 C 
ATOM     19  C   UNL     1       7.398   5.438  16.329  0.00  0.00    +0.000 C 
ATOM     20  C   UNL     1       7.013   6.693  17.139  0.00  0.00    +0.000 C 
ATOM     21  C   UNL     1       5.502   7.030  17.063  0.00  0.00    +0.000 C 
ATOM     22  C   UNL     1       4.867   6.631  15.729  0.00  0.00    +0.000 C 
ENDBRANCH  13  21
ENDBRANCH   1  13
TORSDOF 3
ENDMDL
MODEL 4
REMARK VINA RESULT:      -7.6      1.350      5.798
REMARK  Name = 
REMARK  4 active torsions:
REMARK  status: ('A' for Active; 'I' for Inactive)
REMARK    1  A    between atoms: C_1  and  N_2
REMARK    2  A    between atoms: C_8  and  O_9
REMARK    3  A    between atoms: O_9  and  C_10
REMARK    4  A    between atoms: C_10  and  C_12
REMARK                            x       y       z     vdW  Elec       q    Type
REMARK                         _______ _______ _______ _____ _____    ______ ____
ROOT
ATOM      1  C   UNL     1       4.923   3.771  16.507  0.00  0.00    +0.000 C 
ATOM      2  O   UNL     1       5.502   2.855  15.941  0.00  0.00    +0.000 OA
ENDROOT
BRANCH   1   3
ATOM      3  C   UNL     1       5.378   5.122  16.629  0.00  0.00    +0.000 A 
ATOM      4  N   UNL     1       4.976   6.182  15.846  0.00  0.00    +0.000 N 
ATOM      5  N   UNL     1       5.649   7.340  16.049  0.00  0.00    +0.000 NA
ATOM      6  C   UNL     1       6.499   7.054  17.047  0.00  0.00    +0.000 A 
ATOM      7  C   UNL     1       7.478   7.858  17.660  0.00  0.00    +0.000 A 
ATOM      8  C   UNL     1       8.204   7.201  18.680  0.00  0.00    +0.000 A 
ATOM      9  C   UNL     1       7.970   5.848  19.071  0.00  0.00    +0.000 A 
ATOM     10  C   UNL     1       7.005   5.019  18.471  0.00  0.00    +0.000 A 
ATOM     11  C   UNL     1       6.309   5.685  17.468  0.00  0.00    +0.000 A 
ATOM     12  H   UNL     1       4.278   6.166  15.105  0.00  0.00    +0.000 HD
ENDBRANCH   1   3
BRANCH   1  13
ATOM     13  O   UNL     1       3.663   3.646  17.006  0.00  0.00    +0.000 OA
BRANCH  13  21
ATOM     14  C   UNL     1       1.355   2.746  21.566  0.00  0.00    +0.000 C 
ATOM     15  N   UNL     1       2.121   2.630  20.338  0.00  0.00    +0.000 NA
ATOM     16  C   UNL     1       1.452   3.250  19.193  0.00  0.00    +0.000 C 
ATOM     17  C   UNL     1       1.890   4.720  19.262  0.00  0.00    +0.000 C 
ATOM     18  C   UNL     1       3.255   4.712  19.942  0.00  0.00    +0.000 C 
ATOM     19  C   UNL     1       3.460   3.247  20.322  0.00  0.00    +0.000 C 
ATOM     20  C   UNL     1       4.255   2.550  19.198  0.00  0.00    +0.000 C 
ATOM     21  C   UNL     1       3.486   2.488  17.854  0.00  0.00    +0.000 C 
ATOM     22  C   UNL     1       1.971   2.382  18.036  0.00  0.00    +0.000 C 
ENDBRANCH  13  21
ENDBRANCH   1  13
TORSDOF 3
ENDMDL
MODEL 5
REMARK VINA RESULT:      -7.5      2.189      2.942
REMARK  Name = 
REMARK  4 active torsions:
REMARK  status: ('A' for Active; 'I' for Inactive)
REMARK    1  A    between atoms: C_1  and  N_2
REMARK    2  A    between atoms: C_8  and  O_9
REMARK    3  A    between atoms: O_9  and  C_10
REMARK    4  A    between atoms: C_10  and  C_12
REMARK                            x       y       z     vdW  Elec       q    Type
REMARK                         _______ _______ _______ _____ _____    ______ ____
ROOT
ATOM      1  C   UNL     1       3.327   6.569  18.337  0.00  0.00    +0.000 C 
ATOM      2  O   UNL     1       2.871   7.695  18.207  0.00  0.00    +0.000 OA
ENDROOT
BRANCH   1   3
ATOM      3  C   UNL     1       2.581   5.349  18.403  0.00  0.00    +0.000 A 
ATOM      4  N   UNL     1       1.916   4.753  17.355  0.00  0.00    +0.000 N 
ATOM      5  N   UNL     1       1.157   3.680  17.684  0.00  0.00    +0.000 NA
ATOM      6  C   UNL     1       1.369   3.522  19.000  0.00  0.00    +0.000 A 
ATOM      7  C   UNL     1       0.818   2.590  19.899  0.00  0.00    +0.000 A 
ATOM      8  C   UNL     1       1.269   2.741  21.231  0.00  0.00    +0.000 A 
ATOM      9  C   UNL     1       2.206   3.738  21.639  0.00  0.00    +0.000 A 
ATOM     10  C   UNL     1       2.767   4.686  20.765  0.00  0.00    +0.000 A 
ATOM     11  C   UNL     1       2.303   4.521  19.464  0.00  0.00    +0.000 A 
ATOM     12  H   UNL     1       1.892   5.067  16.387  0.00  0.00    +0.000 HD
ENDBRANCH   1   3
BRANCH   1  13
ATOM     13  O   UNL     1       4.663   6.309  18.311  0.00  0.00    +0.000 OA
BRANCH  13  21
ATOM     14  C   UNL     1       7.344   4.940  14.085  0.00  0.00    +0.000 C 
ATOM     15  N   UNL     1       6.726   5.677  15.173  0.00  0.00    +0.000 NA
ATOM     16  C   UNL     1       5.357   5.239  15.448  0.00  0.00    +0.000 C 
ATOM     17  C   UNL     1       5.534   4.063  16.419  0.00  0.00    +0.000 C 
ATOM     18  C   UNL     1       6.836   4.338  17.165  0.00  0.00    +0.000 C 
ATOM     19  C   UNL     1       7.380   5.597  16.492  0.00  0.00    +0.000 C 
ATOM     20  C   UNL     1       6.910   6.829  17.294  0.00  0.00    +0.000 C 
ATOM     21  C   UNL     1       5.373   7.022  17.273  0.00  0.00    +0.000 C 
ATOM     22  C   UNL     1       4.727   6.538  15.974  0.00  0.00    +0.000 C 
ENDBRANCH  13  21
ENDBRANCH   1  13
TORSDOF 3
ENDMDL
MODEL 6
REMARK VINA RESULT:      -7.5      2.180      6.296
REMARK  Name = 
REMARK  4 active torsions:
REMARK  status: ('A' for Active; 'I' for Inactive)
REMARK    1  A    between atoms: C_1  and  N_2
REMARK    2  A    between atoms: C_8  and  O_9
REMARK    3  A    between atoms: O_9  and  C_10
REMARK    4  A    between atoms: C_10  and  C_12
REMARK                            x       y       z     vdW  Elec       q    Type
REMARK                         _______ _______ _______ _____ _____    ______ ____
ROOT
ATOM      1  C   UNL     1       4.820   5.925  16.556  0.00  0.00    +0.000 C 
ATOM      2  O   UNL     1       4.457   7.067  16.797  0.00  0.00    +0.000 OA
ENDROOT
BRANCH   1   3
ATOM      3  C   UNL     1       5.867   5.534  15.661  0.00  0.00    +0.000 A 
ATOM      4  N   UNL     1       7.183   5.933  15.737  0.00  0.00    +0.000 N 
ATOM      5  N   UNL     1       7.965   5.553  14.698  0.00  0.00    +0.000 NA
ATOM      6  C   UNL     1       7.147   4.824  13.923  0.00  0.00    +0.000 A 
ATOM      7  C   UNL     1       7.392   4.198  12.687  0.00  0.00    +0.000 A 
ATOM      8  C   UNL     1       6.270   3.524  12.152  0.00  0.00    +0.000 A 
ATOM      9  C   UNL     1       4.999   3.466  12.802  0.00  0.00    +0.000 A 
ATOM     10  C   UNL     1       4.723   4.087  14.033  0.00  0.00    +0.000 A 
ATOM     11  C   UNL     1       5.840   4.748  14.534  0.00  0.00    +0.000 A 
ATOM     12  H   UNL     1       7.604   6.523  16.452  0.00  0.00    +0.000 HD
ENDBRANCH   1   3
BRANCH   1  13
ATOM     13  O   UNL     1       4.339   4.843  17.227  0.00  0.00    +0.000 OA
BRANCH  13  21
ATOM     14  C   UNL     1       1.577   2.501  20.944  0.00  0.00    +0.000 C 
ATOM     15  N   UNL     1       2.023   3.364  19.864  0.00  0.00    +0.000 NA
ATOM     16  C   UNL     1       3.401   3.824  20.039  0.00  0.00    +0.000 C 
ATOM     17  C   UNL     1       4.246   2.704  19.417  0.00  0.00    +0.000 C 
ATOM     18  C   UNL     1       3.363   2.066  18.349  0.00  0.00    +0.000 C 
ATOM     19  C   UNL     1       2.027   2.790  18.506  0.00  0.00    +0.000 C 
ATOM     20  C   UNL     1       1.989   3.979  17.522  0.00  0.00    +0.000 C 
ATOM     21  C   UNL     1       3.047   5.066  17.838  0.00  0.00    +0.000 C 
ATOM     22  C   UNL     1       3.354   5.188  19.332  0.00  0.00    +0.000 C 
ENDBRANCH  13  21
ENDBRANCH   1  13
TORSDOF 3
ENDMDL
MODEL 7
REMARK VINA RESULT:      -7.4      2.085      6.324
REMARK  Name = 
REMARK  4 active torsions:
REMARK  status: ('A' for Active; 'I' for Inactive)
REMARK    1  A    between atoms: C_1  and  N_2
REMARK    2  A    between atoms: C_8  and  O_9
REMARK    3  A    between atoms: O_9  and  C_10
REMARK    4  A    between atoms: C_10  and  C_12
REMARK                            x       y       z     vdW  Elec       q    Type
REMARK                         _______ _______ _______ _____ _____    ______ ____
ROOT
ATOM      1  C   UNL     1       4.722   5.555  16.462  0.00  0.00    +0.000 C 
ATOM      2  O   UNL     1       4.406   6.622  16.968  0.00  0.00    +0.000 OA
ENDROOT
BRANCH   1   3
ATOM      3  C   UNL     1       5.831   5.321  15.588  0.00  0.00    +0.000 A 
ATOM      4  N   UNL     1       7.105   5.820  15.750  0.00  0.00    +0.000 N 
ATOM      5  N   UNL     1       7.955   5.586  14.721  0.00  0.00    +0.000 NA
ATOM      6  C   UNL     1       7.232   4.853  13.861  0.00  0.00    +0.000 A 
ATOM      7  C   UNL     1       7.576   4.345  12.594  0.00  0.00    +0.000 A 
ATOM      8  C   UNL     1       6.536   3.623  11.963  0.00  0.00    +0.000 A 
ATOM      9  C   UNL     1       5.252   3.412  12.551  0.00  0.00    +0.000 A 
ATOM     10  C   UNL     1       4.878   3.913  13.811  0.00  0.00    +0.000 A 
ATOM     11  C   UNL     1       5.914   4.624  14.406  0.00  0.00    +0.000 A 
ATOM     12  H   UNL     1       7.447   6.387  16.524  0.00  0.00    +0.000 HD
ENDBRANCH   1   3
BRANCH   1  13
ATOM     13  O   UNL     1       4.108   4.382  16.775  0.00  0.00    +0.000 OA
BRANCH  13  21
ATOM     14  C   UNL     1       1.929   2.682  21.167  0.00  0.00    +0.000 C 
ATOM     15  N   UNL     1       2.867   3.080  20.133  0.00  0.00    +0.000 NA
ATOM     16  C   UNL     1       2.455   2.648  18.797  0.00  0.00    +0.000 C 
ATOM     17  C   UNL     1       1.530   3.774  18.314  0.00  0.00    +0.000 C 
ATOM     18  C   UNL     1       2.007   5.034  19.030  0.00  0.00    +0.000 C 
ATOM     19  C   UNL     1       3.103   4.526  19.964  0.00  0.00    +0.000 C 
ATOM     20  C   UNL     1       4.466   4.672  19.254  0.00  0.00    +0.000 C 
ATOM     21  C   UNL     1       4.598   3.778  17.995  0.00  0.00    +0.000 C 
ATOM     22  C   UNL     1       3.816   2.468  18.107  0.00  0.00    +0.000 C 
ENDBRANCH  13  21
ENDBRANCH   1  13
TORSDOF 3
ENDMDL
MODEL 8
REMARK VINA RESULT:      -7.4      1.600      5.584
REMARK  Name = 
REMARK  4 active torsions:
REMARK  status: ('A' for Active; 'I' for Inactive)
REMARK    1  A    between atoms: C_1  and  N_2
REMARK    2  A    between atoms: C_8  and  O_9
REMARK    3  A    between atoms: O_9  and  C_10
REMARK    4  A    between atoms: C_10  and  C_12
REMARK                            x       y       z     vdW  Elec       q    Type
REMARK                         _______ _______ _______ _____ _____    ______ ____
ROOT
ATOM      1  C   UNL     1       4.961   4.514  16.381  0.00  0.00    +0.000 C 
ATOM      2  O   UNL     1       4.975   4.091  15.234  0.00  0.00    +0.000 OA
ENDROOT
BRANCH   1   3
ATOM      3  C   UNL     1       6.098   4.891  17.165  0.00  0.00    +0.000 A 
ATOM      4  N   UNL     1       6.835   4.051  17.970  0.00  0.00    +0.000 N 
ATOM      5  N   UNL     1       7.778   4.658  18.731  0.00  0.00    +0.000 NA
ATOM      6  C   UNL     1       7.702   5.950  18.377  0.00  0.00    +0.000 A 
ATOM      7  C   UNL     1       8.413   7.063  18.860  0.00  0.00    +0.000 A 
ATOM      8  C   UNL     1       8.046   8.287  18.253  0.00  0.00    +0.000 A 
ATOM      9  C   UNL     1       7.051   8.397  17.235  0.00  0.00    +0.000 A 
ATOM     10  C   UNL     1       6.320   7.303  16.738  0.00  0.00    +0.000 A 
ATOM     11  C   UNL     1       6.695   6.114  17.355  0.00  0.00    +0.000 A 
ATOM     12  H   UNL     1       6.706   3.049  18.092  0.00  0.00    +0.000 HD
ENDBRANCH   1   3
BRANCH   1  13
ATOM     13  O   UNL     1       3.809   4.810  17.042  0.00  0.00    +0.000 OA
BRANCH  13  21
ATOM     14  C   UNL     1       1.254   2.753  21.063  0.00  0.00    +0.000 C 
ATOM     15  N   UNL     1       1.841   3.007  19.759  0.00  0.00    +0.000 NA
ATOM     16  C   UNL     1       1.725   4.407  19.349  0.00  0.00    +0.000 C 
ATOM     17  C   UNL     1       2.958   5.077  19.973  0.00  0.00    +0.000 C 
ATOM     18  C   UNL     1       4.014   3.982  20.074  0.00  0.00    +0.000 C 
ATOM     19  C   UNL     1       3.280   2.727  19.607  0.00  0.00    +0.000 C 
ATOM     20  C   UNL     1       3.537   2.536  18.097  0.00  0.00    +0.000 C 
ATOM     21  C   UNL     1       2.937   3.671  17.228  0.00  0.00    +0.000 C 
ATOM     22  C   UNL     1       1.659   4.267  17.820  0.00  0.00    +0.000 C 
ENDBRANCH  13  21
ENDBRANCH   1  13
TORSDOF 3
ENDMDL
MODEL 9
REMARK VINA RESULT:      -7.2      2.201      3.253
REMARK  Name = 
REMARK  4 active torsions:
REMARK  status: ('A' for Active; 'I' for Inactive)
REMARK    1  A    between atoms: C_1  and  N_2
REMARK    2  A    between atoms: C_8  and  O_9
REMARK    3  A    between atoms: O_9  and  C_10
REMARK    4  A    between atoms: C_10  and  C_12
REMARK                            x       y       z     vdW  Elec       q    Type
REMARK                         _______ _______ _______ _____ _____    ______ ____
ROOT
ATOM      1  C   UNL     1       5.430   5.175  19.348  0.00  0.00    +0.000 C 
ATOM      2  O   UNL     1       6.318   4.742  20.068  0.00  0.00    +0.000 OA
ENDROOT
BRANCH   1   3
ATOM      3  C   UNL     1       4.021   5.014  19.540  0.00  0.00    +0.000 A 
ATOM      4  N   UNL     1       3.204   5.858  20.259  0.00  0.00    +0.000 N 
ATOM      5  N   UNL     1       1.930   5.428  20.427  0.00  0.00    +0.000 NA
ATOM      6  C   UNL     1       1.882   4.274  19.745  0.00  0.00    +0.000 A 
ATOM      7  C   UNL     1       0.826   3.357  19.591  0.00  0.00    +0.000 A 
ATOM      8  C   UNL     1       1.155   2.228  18.806  0.00  0.00    +0.000 A 
ATOM      9  C   UNL     1       2.436   2.027  18.208  0.00  0.00    +0.000 A 
ATOM     10  C   UNL     1       3.512   2.922  18.350  0.00  0.00    +0.000 A 
ATOM     11  C   UNL     1       3.165   4.019  19.132  0.00  0.00    +0.000 A 
ATOM     12  H   UNL     1       3.472   6.727  20.716  0.00  0.00    +0.000 HD
ENDBRANCH   1   3
BRANCH   1  13
ATOM     13  O   UNL     1       5.675   6.003  18.296  0.00  0.00    +0.000 OA
BRANCH  13  21
ATOM     14  C   UNL     1       7.612   5.060  13.575  0.00  0.00    +0.000 C 
ATOM     15  N   UNL     1       7.444   5.287  14.999  0.00  0.00    +0.000 NA
ATOM     16  C   UNL     1       6.499   6.366  15.293  0.00  0.00    +0.000 C 
ATOM     17  C   UNL     1       5.132   5.667  15.300  0.00  0.00    +0.000 C 
ATOM     18  C   UNL     1       5.409   4.224  15.710  0.00  0.00    +0.000 C 
ATOM     19  C   UNL     1       6.933   4.161  15.801  0.00  0.00    +0.000 C 
ATOM     20  C   UNL     1       7.353   4.430  17.262  0.00  0.00    +0.000 C 
ATOM     21  C   UNL     1       7.004   5.862  17.743  0.00  0.00    +0.000 C 
ATOM     22  C   UNL     1       7.057   6.900  16.621  0.00  0.00    +0.000 C 
ENDBRANCH  13  21
ENDBRANCH   1  13
TORSDOF 3
ENDMDL
