MODEL 1
REMARK VINA RESULT:      -8.3      0.000      0.000
REMARK  Name = 
REMARK  5 active torsions:
REMARK  status: ('A' for Active; 'I' for Inactive)
REMARK    1  A    between atoms: C_1  and  O_2
REMARK    2  A    between atoms: O_2  and  C_3
REMARK    3  A    between atoms: C_5  and  N_6
REMARK    4  A    between atoms: C_13  and  C_14
REMARK    5  A    between atoms: N_16  and  C_17
REMARK                            x       y       z     vdW  Elec       q    Type
REMARK                         _______ _______ _______ _____ _____    ______ ____
ROOT
ATOM      1  N   UNL     1       5.684   5.101  15.819  0.00  0.00    +0.000 N 
ATOM      2  C   UNL     1       5.074   6.427  15.945  0.00  0.00    +0.000 C 
ATOM      3  C   UNL     1       4.897   6.741  17.447  0.00  0.00    +0.000 C 
ATOM      4  O   UNL     1       4.020   7.869  17.613  0.00  0.00    +0.000 OA
ATOM      5  C   UNL     1       2.726   7.390  18.015  0.00  0.00    +0.000 C 
ATOM      6  C   UNL     1       2.774   5.876  17.987  0.00  0.00    +0.000 C 
ATOM      7  C   UNL     1       4.246   5.603  18.237  0.00  0.00    +0.000 C 
ATOM      8  C   UNL     1       4.756   4.204  17.860  0.00  0.00    +0.000 C 
ATOM      9  C   UNL     1       4.835   4.015  16.341  0.00  0.00    +0.000 C 
ENDROOT
BRANCH   1  12
ATOM     10  C   UNL     1       6.200   3.607  12.558  0.00  0.00    +0.000 A 
ATOM     11  C   UNL     1       5.617   3.887  13.769  0.00  0.00    +0.000 A 
ATOM     12  C   UNL     1       6.248   4.819  14.568  0.00  0.00    +0.000 A 
ATOM     13  N   UNL     1       7.395   5.406  14.187  0.00  0.00    +0.000 NA
ATOM     14  C   UNL     1       7.876   5.060  12.980  0.00  0.00    +0.000 A 
ATOM     15  N   UNL     1       7.331   4.184  12.129  0.00  0.00    +0.000 NA
BRANCH  10  17
ATOM     16  C   UNL     1       4.291   3.113  11.303  0.00  0.00    +0.000 C 
ATOM     17  O   UNL     1       5.562   2.666  11.775  0.00  0.00    +0.000 OA
ENDBRANCH  10  17
ENDBRANCH   1  12
BRANCH   8  18
ATOM     18  C   UNL     1       3.929   3.106  18.510  0.00  0.00    +0.000 C 
ATOM     19  O   UNL     1       3.683   2.040  17.957  0.00  0.00    +0.000 OA
ATOM     20  N   UNL     1       3.486   3.433  19.780  0.00  0.00    +0.000 N 
ATOM     21  H   UNL     1       3.789   4.302  20.203  0.00  0.00    +0.000 HD
BRANCH  20  22
ATOM     22  C   UNL     1       2.670   2.556  20.557  0.00  0.00    +0.000 C 
ATOM     23  C   UNL     1       2.131   2.984  21.895  0.00  0.00    +0.000 C 
ATOM     24  C   UNL     1       1.203   2.840  20.726  0.00  0.00    +0.000 C 
ENDBRANCH  20  22
ENDBRANCH   8  18
TORSDOF 4
ENDMDL
MODEL 2
REMARK VINA RESULT:      -7.7      2.958      7.194
REMARK  Name = 
REMARK  5 active torsions:
REMARK  status: ('A' for Active; 'I' for Inactive)
REMARK    1  A    between atoms: C_1  and  O_2
REMARK    2  A    between atoms: O_2  and  C_3
REMARK    3  A    between atoms: C_5  and  N_6
REMARK    4  A    between atoms: C_13  and  C_14
REMARK    5  A    between atoms: N_16  and  C_17
REMARK                            x       y       z     vdW  Elec       q    Type
REMARK                         _______ _______ _______ _____ _____    ______ ____
ROOT
ATOM      1  N   UNL     1       2.980   6.248  19.336  0.00  0.00    +0.000 N 
ATOM      2  C   UNL     1       2.069   5.142  19.646  0.00  0.00    +0.000 C 
ATOM      3  C   UNL     1       2.897   3.978  20.231  0.00  0.00    +0.000 C 
ATOM      4  O   UNL     1       2.110   2.774  20.246  0.00  0.00    +0.000 OA
ATOM      5  C   UNL     1       2.528   1.937  19.156  0.00  0.00    +0.000 C 
ATOM      6  C   UNL     1       3.554   2.715  18.355  0.00  0.00    +0.000 C 
ATOM      7  C   UNL     1       4.141   3.637  19.408  0.00  0.00    +0.000 C 
ATOM      8  C   UNL     1       4.908   4.863  18.890  0.00  0.00    +0.000 C 
ATOM      9  C   UNL     1       3.967   5.916  18.293  0.00  0.00    +0.000 C 
ENDROOT
BRANCH   1  12
ATOM     10  C   UNL     1       1.064   9.250  20.004  0.00  0.00    +0.000 A 
ATOM     11  C   UNL     1       1.678   8.040  20.214  0.00  0.00    +0.000 A 
ATOM     12  C   UNL     1       2.368   7.493  19.151  0.00  0.00    +0.000 A 
ATOM     13  N   UNL     1       2.412   8.107  17.956  0.00  0.00    +0.000 NA
ATOM     14  C   UNL     1       1.778   9.289  17.862  0.00  0.00    +0.000 A 
ATOM     15  N   UNL     1       1.101   9.906  18.836  0.00  0.00    +0.000 NA
BRANCH  10  17
ATOM     16  C   UNL     1      -0.295   8.777  21.846  0.00  0.00    +0.000 C 
ATOM     17  O   UNL     1       0.370   9.778  21.074  0.00  0.00    +0.000 OA
ENDBRANCH  10  17
ENDBRANCH   1  12
BRANCH   8  18
ATOM     18  C   UNL     1       5.999   4.475  17.905  0.00  0.00    +0.000 C 
ATOM     19  O   UNL     1       7.177   4.359  18.225  0.00  0.00    +0.000 OA
ATOM     20  N   UNL     1       5.528   4.267  16.620  0.00  0.00    +0.000 N 
ATOM     21  H   UNL     1       4.531   4.309  16.444  0.00  0.00    +0.000 HD
BRANCH  20  22
ATOM     22  C   UNL     1       6.389   3.923  15.534  0.00  0.00    +0.000 C 
ATOM     23  C   UNL     1       5.937   4.086  14.107  0.00  0.00    +0.000 C 
ATOM     24  C   UNL     1       6.984   5.000  14.670  0.00  0.00    +0.000 C 
ENDBRANCH  20  22
ENDBRANCH   8  18
TORSDOF 4
ENDMDL
MODEL 3
REMARK VINA RESULT:      -7.7      1.799      2.242
REMARK  Name = 
REMARK  5 active torsions:
REMARK  status: ('A' for Active; 'I' for Inactive)
REMARK    1  A    between atoms: C_1  and  O_2
REMARK    2  A    between atoms: O_2  and  C_3
REMARK    3  A    between atoms: C_5  and  N_6
REMARK    4  A    between atoms: C_13  and  C_14
REMARK    5  A    between atoms: N_16  and  C_17
REMARK                            x       y       z     vdW  Elec       q    Type
REMARK                         _______ _______ _______ _____ _____    ______ ____
ROOT
ATOM      1  N   UNL     1       6.416   4.241  15.785  0.00  0.00    +0.000 N 
ATOM      2  C   UNL     1       7.470   4.783  16.646  0.00  0.00    +0.000 C 
ATOM      3  C   UNL     1       7.263   4.234  18.074  0.00  0.00    +0.000 C 
ATOM      4  O   UNL     1       8.062   4.980  19.008  0.00  0.00    +0.000 OA
ATOM      5  C   UNL     1       7.210   5.896  19.714  0.00  0.00    +0.000 C 
ATOM      6  C   UNL     1       5.826   5.790  19.105  0.00  0.00    +0.000 C 
ATOM      7  C   UNL     1       5.824   4.367  18.578  0.00  0.00    +0.000 C 
ATOM      8  C   UNL     1       4.756   4.029  17.526  0.00  0.00    +0.000 C 
ATOM      9  C   UNL     1       5.063   4.678  16.172  0.00  0.00    +0.000 C 
ENDROOT
BRANCH   1  12
ATOM     10  C   UNL     1       6.240   3.575  12.227  0.00  0.00    +0.000 A 
ATOM     11  C   UNL     1       5.965   3.486  13.569  0.00  0.00    +0.000 A 
ATOM     12  C   UNL     1       6.661   4.332  14.409  0.00  0.00    +0.000 A 
ATOM     13  N   UNL     1       7.585   5.186  13.934  0.00  0.00    +0.000 NA
ATOM     14  C   UNL     1       7.771   5.191  12.603  0.00  0.00    +0.000 A 
ATOM     15  N   UNL     1       7.136   4.426  11.709  0.00  0.00    +0.000 NA
BRANCH  10  17
ATOM     16  C   UNL     1       4.183   3.109  11.221  0.00  0.00    +0.000 C 
ATOM     17  O   UNL     1       5.543   2.715  11.402  0.00  0.00    +0.000 OA
ENDBRANCH  10  17
ENDBRANCH   1  12
BRANCH   8  18
ATOM     18  C   UNL     1       3.357   4.385  18.005  0.00  0.00    +0.000 C 
ATOM     19  O   UNL     1       2.777   5.410  17.665  0.00  0.00    +0.000 OA
ATOM     20  N   UNL     1       2.813   3.440  18.857  0.00  0.00    +0.000 N 
ATOM     21  H   UNL     1       3.321   2.582  19.037  0.00  0.00    +0.000 HD
BRANCH  20  22
ATOM     22  C   UNL     1       1.521   3.592  19.446  0.00  0.00    +0.000 C 
ATOM     23  C   UNL     1       1.220   3.025  20.808  0.00  0.00    +0.000 C 
ATOM     24  C   UNL     1       1.328   4.510  20.621  0.00  0.00    +0.000 C 
ENDBRANCH  20  22
ENDBRANCH   8  18
TORSDOF 4
ENDMDL
MODEL 4
REMARK VINA RESULT:      -7.7      0.953      1.031
REMARK  Name = 
REMARK  5 active torsions:
REMARK  status: ('A' for Active; 'I' for Inactive)
REMARK    1  A    between atoms: C_1  and  O_2
REMARK    2  A    between atoms: O_2  and  C_3
REMARK    3  A    between atoms: C_5  and  N_6
REMARK    4  A    between atoms: C_13  and  C_14
REMARK    5  A    between atoms: N_16  and  C_17
REMARK                            x       y       z     vdW  Elec       q    Type
REMARK                         _______ _______ _______ _____ _____    ______ ____
ROOT
ATOM      1  N   UNL     1       5.778   5.211  15.808  0.00  0.00    +0.000 N 
ATOM      2  C   UNL     1       5.081   6.499  15.866  0.00  0.00    +0.000 C 
ATOM      3  C   UNL     1       5.000   6.944  17.342  0.00  0.00    +0.000 C 
ATOM      4  O   UNL     1       4.055   8.020  17.479  0.00  0.00    +0.000 OA
ATOM      5  C   UNL     1       2.837   7.496  18.032  0.00  0.00    +0.000 C 
ATOM      6  C   UNL     1       2.998   5.993  18.139  0.00  0.00    +0.000 C 
ATOM      7  C   UNL     1       4.501   5.847  18.285  0.00  0.00    +0.000 C 
ATOM      8  C   UNL     1       5.084   4.455  17.995  0.00  0.00    +0.000 C 
ATOM      9  C   UNL     1       5.058   4.126  16.497  0.00  0.00    +0.000 C 
ENDROOT
BRANCH   1  12
ATOM     10  C   UNL     1       6.047   3.561  12.594  0.00  0.00    +0.000 A 
ATOM     11  C   UNL     1       5.542   3.921  13.819  0.00  0.00    +0.000 A 
ATOM     12  C   UNL     1       6.261   4.848  14.545  0.00  0.00    +0.000 A 
ATOM     13  N   UNL     1       7.417   5.355  14.083  0.00  0.00    +0.000 NA
ATOM     14  C   UNL     1       7.817   4.935  12.870  0.00  0.00    +0.000 A 
ATOM     15  N   UNL     1       7.183   4.057  12.086  0.00  0.00    +0.000 NA
BRANCH  10  17
ATOM     16  C   UNL     1       6.142   1.596  11.331  0.00  0.00    +0.000 C 
ATOM     17  O   UNL     1       5.321   2.625  11.885  0.00  0.00    +0.000 OA
ENDBRANCH  10  17
ENDBRANCH   1  12
BRANCH   8  18
ATOM     18  C   UNL     1       4.396   3.372  18.811  0.00  0.00    +0.000 C 
ATOM     19  O   UNL     1       4.970   2.731  19.685  0.00  0.00    +0.000 OA
ATOM     20  N   UNL     1       3.069   3.186  18.467  0.00  0.00    +0.000 N 
ATOM     21  H   UNL     1       2.642   3.802  17.785  0.00  0.00    +0.000 HD
BRANCH  20  22
ATOM     22  C   UNL     1       2.247   2.198  19.089  0.00  0.00    +0.000 C 
ATOM     23  C   UNL     1       1.289   2.570  20.189  0.00  0.00    +0.000 C 
ATOM     24  C   UNL     1       0.764   2.182  18.839  0.00  0.00    +0.000 C 
ENDBRANCH  20  22
ENDBRANCH   8  18
TORSDOF 4
ENDMDL
MODEL 5
REMARK VINA RESULT:      -7.6      2.558      4.868
REMARK  Name = 
REMARK  5 active torsions:
REMARK  status: ('A' for Active; 'I' for Inactive)
REMARK    1  A    between atoms: C_1  and  O_2
REMARK    2  A    between atoms: O_2  and  C_3
REMARK    3  A    between atoms: C_5  and  N_6
REMARK    4  A    between atoms: C_13  and  C_14
REMARK    5  A    between atoms: N_16  and  C_17
REMARK                            x       y       z     vdW  Elec       q    Type
REMARK                         _______ _______ _______ _____ _____    ______ ____
ROOT
ATOM      1  N   UNL     1       4.138   4.554  18.254  0.00  0.00    +0.000 N 
ATOM      2  C   UNL     1       3.776   3.313  18.945  0.00  0.00    +0.000 C 
ATOM      3  C   UNL     1       2.243   3.283  19.121  0.00  0.00    +0.000 C 
ATOM      4  O   UNL     1       1.877   2.261  20.065  0.00  0.00    +0.000 OA
ATOM      5  C   UNL     1       1.564   2.885  21.320  0.00  0.00    +0.000 C 
ATOM      6  C   UNL     1       1.860   4.365  21.178  0.00  0.00    +0.000 C 
ATOM      7  C   UNL     1       1.666   4.582  19.688  0.00  0.00    +0.000 C 
ATOM      8  C   UNL     1       2.287   5.857  19.097  0.00  0.00    +0.000 C 
ATOM      9  C   UNL     1       3.816   5.767  19.026  0.00  0.00    +0.000 C 
ENDROOT
BRANCH   1  12
ATOM     10  C   UNL     1       6.788   4.583  15.783  0.00  0.00    +0.000 A 
ATOM     11  C   UNL     1       5.522   4.591  16.315  0.00  0.00    +0.000 A 
ATOM     12  C   UNL     1       5.420   4.573  17.691  0.00  0.00    +0.000 A 
ATOM     13  N   UNL     1       6.512   4.524  18.474  0.00  0.00    +0.000 NA
ATOM     14  C   UNL     1       7.702   4.524  17.847  0.00  0.00    +0.000 A 
ATOM     15  N   UNL     1       7.903   4.557  16.526  0.00  0.00    +0.000 NA
BRANCH  10  17
ATOM     16  C   UNL     1       5.784   3.908  13.784  0.00  0.00    +0.000 C 
ATOM     17  O   UNL     1       6.873   4.591  14.406  0.00  0.00    +0.000 OA
ENDBRANCH  10  17
ENDBRANCH   1  12
BRANCH   8  18
ATOM     18  C   UNL     1       1.840   7.103  19.844  0.00  0.00    +0.000 C 
ATOM     19  O   UNL     1       1.495   7.087  21.021  0.00  0.00    +0.000 OA
ATOM     20  N   UNL     1       1.864   8.247  19.066  0.00  0.00    +0.000 N 
ATOM     21  H   UNL     1       2.230   8.198  18.122  0.00  0.00    +0.000 HD
BRANCH  20  22
ATOM     22  C   UNL     1       1.455   9.522  19.562  0.00  0.00    +0.000 C 
ATOM     23  C   UNL     1       0.855  10.553  18.645  0.00  0.00    +0.000 C 
ATOM     24  C   UNL     1      -0.006   9.862  19.660  0.00  0.00    +0.000 C 
ENDBRANCH  20  22
ENDBRANCH   8  18
TORSDOF 4
ENDMDL
MODEL 6
REMARK VINA RESULT:      -7.5      2.659      4.290
REMARK  Name = 
REMARK  5 active torsions:
REMARK  status: ('A' for Active; 'I' for Inactive)
REMARK    1  A    between atoms: C_1  and  O_2
REMARK    2  A    between atoms: O_2  and  C_3
REMARK    3  A    between atoms: C_5  and  N_6
REMARK    4  A    between atoms: C_13  and  C_14
REMARK    5  A    between atoms: N_16  and  C_17
REMARK                            x       y       z     vdW  Elec       q    Type
REMARK                         _______ _______ _______ _____ _____    ______ ____
ROOT
ATOM      1  N   UNL     1       3.923   5.075  17.361  0.00  0.00    +0.000 N 
ATOM      2  C   UNL     1       3.554   3.658  17.286  0.00  0.00    +0.000 C 
ATOM      3  C   UNL     1       2.034   3.536  17.526  0.00  0.00    +0.000 C 
ATOM      4  O   UNL     1       1.686   2.164  17.783  0.00  0.00    +0.000 OA
ATOM      5  C   UNL     1       1.473   2.000  19.194  0.00  0.00    +0.000 C 
ATOM      6  C   UNL     1       1.818   3.317  19.861  0.00  0.00    +0.000 C 
ATOM      7  C   UNL     1       1.544   4.313  18.750  0.00  0.00    +0.000 C 
ATOM      8  C   UNL     1       2.177   5.704  18.907  0.00  0.00    +0.000 C 
ATOM      9  C   UNL     1       3.695   5.668  18.690  0.00  0.00    +0.000 C 
ENDROOT
BRANCH   1  12
ATOM     10  C   UNL     1       6.698   5.228  15.037  0.00  0.00    +0.000 A 
ATOM     11  C   UNL     1       5.462   4.920  15.548  0.00  0.00    +0.000 A 
ATOM     12  C   UNL     1       5.168   5.399  16.809  0.00  0.00    +0.000 A 
ATOM     13  N   UNL     1       6.064   6.112  17.513  0.00  0.00    +0.000 NA
ATOM     14  C   UNL     1       7.242   6.357  16.915  0.00  0.00    +0.000 A 
ATOM     15  N   UNL     1       7.612   5.954  15.695  0.00  0.00    +0.000 NA
BRANCH  10  17
ATOM     16  C   UNL     1       6.076   3.703  13.378  0.00  0.00    +0.000 C 
ATOM     17  O   UNL     1       6.980   4.734  13.779  0.00  0.00    +0.000 OA
ENDBRANCH  10  17
ENDBRANCH   1  12
BRANCH   8  18
ATOM     18  C   UNL     1       1.825   6.338  20.243  0.00  0.00    +0.000 C 
ATOM     19  O   UNL     1       1.686   5.689  21.274  0.00  0.00    +0.000 OA
ATOM     20  N   UNL     1       1.679   7.713  20.176  0.00  0.00    +0.000 N 
ATOM     21  H   UNL     1       1.881   8.192  19.306  0.00  0.00    +0.000 HD
BRANCH  20  22
ATOM     22  C   UNL     1       1.321   8.503  21.310  0.00  0.00    +0.000 C 
ATOM     23  C   UNL     1       0.709   9.867  21.140  0.00  0.00    +0.000 C 
ATOM     24  C   UNL     1      -0.126   8.729  21.647  0.00  0.00    +0.000 C 
ENDBRANCH  20  22
ENDBRANCH   8  18
TORSDOF 4
ENDMDL
MODEL 7
REMARK VINA RESULT:      -7.4      2.643      4.840
REMARK  Name = 
REMARK  5 active torsions:
REMARK  status: ('A' for Active; 'I' for Inactive)
REMARK    1  A    between atoms: C_1  and  O_2
REMARK    2  A    between atoms: O_2  and  C_3
REMARK    3  A    between atoms: C_5  and  N_6
REMARK    4  A    between atoms: C_13  and  C_14
REMARK    5  A    between atoms: N_16  and  C_17
REMARK                            x       y       z     vdW  Elec       q    Type
REMARK                         _______ _______ _______ _____ _____    ______ ____
ROOT
ATOM      1  N   UNL     1       3.937   4.752  17.247  0.00  0.00    +0.000 N 
ATOM      2  C   UNL     1       3.484   3.359  17.295  0.00  0.00    +0.000 C 
ATOM      3  C   UNL     1       1.972   3.349  17.608  0.00  0.00    +0.000 C 
ATOM      4  O   UNL     1       1.557   2.023  17.981  0.00  0.00    +0.000 OA
ATOM      5  C   UNL     1       1.402   1.974  19.409  0.00  0.00    +0.000 C 
ATOM      6  C   UNL     1       1.854   3.312  19.960  0.00  0.00    +0.000 C 
ATOM      7  C   UNL     1       1.586   4.240  18.790  0.00  0.00    +0.000 C 
ATOM      8  C   UNL     1       2.306   5.598  18.815  0.00  0.00    +0.000 C 
ATOM      9  C   UNL     1       3.807   5.453  18.537  0.00  0.00    +0.000 C 
ENDROOT
BRANCH   1  12
ATOM     10  C   UNL     1       7.130   6.232  16.384  0.00  0.00    +0.000 A 
ATOM     11  C   UNL     1       5.935   6.034  17.030  0.00  0.00    +0.000 A 
ATOM     12  C   UNL     1       5.172   4.958  16.620  0.00  0.00    +0.000 A 
ATOM     13  N   UNL     1       5.572   4.158  15.617  0.00  0.00    +0.000 NA
ATOM     14  C   UNL     1       6.761   4.443  15.057  0.00  0.00    +0.000 A 
ATOM     15  N   UNL     1       7.577   5.447  15.395  0.00  0.00    +0.000 NA
BRANCH  10  17
ATOM     16  C   UNL     1       7.934   7.434  18.221  0.00  0.00    +0.000 C 
ATOM     17  O   UNL     1       7.876   7.317  16.799  0.00  0.00    +0.000 OA
ENDBRANCH  10  17
ENDBRANCH   1  12
BRANCH   8  18
ATOM     18  C   UNL     1       2.055   6.347  20.114  0.00  0.00    +0.000 C 
ATOM     19  O   UNL     1       2.099   5.808  21.214  0.00  0.00    +0.000 OA
ATOM     20  N   UNL     1       1.774   7.689  19.926  0.00  0.00    +0.000 N 
ATOM     21  H   UNL     1       1.827   8.082  18.994  0.00  0.00    +0.000 HD
BRANCH  20  22
ATOM     22  C   UNL     1       1.478   8.570  21.011  0.00  0.00    +0.000 C 
ATOM     23  C   UNL     1       0.663   9.817  20.795  0.00  0.00    +0.000 C 
ATOM     24  C   UNL     1       0.079   8.661  21.551  0.00  0.00    +0.000 C 
ENDBRANCH  20  22
ENDBRANCH   8  18
TORSDOF 4
ENDMDL
MODEL 8
REMARK VINA RESULT:      -7.4      2.711      7.031
REMARK  Name = 
REMARK  5 active torsions:
REMARK  status: ('A' for Active; 'I' for Inactive)
REMARK    1  A    between atoms: C_1  and  O_2
REMARK    2  A    between atoms: O_2  and  C_3
REMARK    3  A    between atoms: C_5  and  N_6
REMARK    4  A    between atoms: C_13  and  C_14
REMARK    5  A    between atoms: N_16  and  C_17
REMARK                            x       y       z     vdW  Elec       q    Type
REMARK                         _______ _______ _______ _____ _____    ______ ____
ROOT
ATOM      1  N   UNL     1       2.755   5.990  19.806  0.00  0.00    +0.000 N 
ATOM      2  C   UNL     1       1.845   4.854  19.977  0.00  0.00    +0.000 C 
ATOM      3  C   UNL     1       2.673   3.626  20.413  0.00  0.00    +0.000 C 
ATOM      4  O   UNL     1       1.887   2.429  20.279  0.00  0.00    +0.000 OA
ATOM      5  C   UNL     1       2.305   1.734  19.093  0.00  0.00    +0.000 C 
ATOM      6  C   UNL     1       3.331   2.606  18.395  0.00  0.00    +0.000 C 
ATOM      7  C   UNL     1       3.917   3.391  19.554  0.00  0.00    +0.000 C 
ATOM      8  C   UNL     1       4.684   4.672  19.193  0.00  0.00    +0.000 C 
ATOM      9  C   UNL     1       3.742   5.790  18.731  0.00  0.00    +0.000 C 
ENDROOT
BRANCH   1  12
ATOM     10  C   UNL     1       1.742   9.275  18.662  0.00  0.00    +0.000 A 
ATOM     11  C   UNL     1       2.332   8.035  18.659  0.00  0.00    +0.000 A 
ATOM     12  C   UNL     1       2.142   7.248  19.777  0.00  0.00    +0.000 A 
ATOM     13  N   UNL     1       1.433   7.688  20.831  0.00  0.00    +0.000 NA
ATOM     14  C   UNL     1       0.898   8.917  20.725  0.00  0.00    +0.000 A 
ATOM     15  N   UNL     1       1.010   9.745  19.681  0.00  0.00    +0.000 NA
BRANCH  10  17
ATOM     16  C   UNL     1       2.306  11.398  17.863  0.00  0.00    +0.000 C 
ATOM     17  O   UNL     1       1.951  10.053  17.541  0.00  0.00    +0.000 OA
ENDBRANCH  10  17
ENDBRANCH   1  12
BRANCH   8  18
ATOM     18  C   UNL     1       5.775   4.409  18.167  0.00  0.00    +0.000 C 
ATOM     19  O   UNL     1       6.965   4.353  18.459  0.00  0.00    +0.000 OA
ATOM     20  N   UNL     1       5.290   4.241  16.882  0.00  0.00    +0.000 N 
ATOM     21  H   UNL     1       4.289   4.228  16.727  0.00  0.00    +0.000 HD
BRANCH  20  22
ATOM     22  C   UNL     1       6.146   4.013  15.763  0.00  0.00    +0.000 C 
ATOM     23  C   UNL     1       5.663   4.253  14.357  0.00  0.00    +0.000 C 
ATOM     24  C   UNL     1       6.678   5.174  14.968  0.00  0.00    +0.000 C 
ENDBRANCH  20  22
ENDBRANCH   8  18
TORSDOF 4
ENDMDL
MODEL 9
REMARK VINA RESULT:      -7.4      2.586      5.237
REMARK  Name = 
REMARK  5 active torsions:
REMARK  status: ('A' for Active; 'I' for Inactive)
REMARK    1  A    between atoms: C_1  and  O_2
REMARK    2  A    between atoms: O_2  and  C_3
REMARK    3  A    between atoms: C_5  and  N_6
REMARK    4  A    between atoms: C_13  and  C_14
REMARK    5  A    between atoms: N_16  and  C_17
REMARK                            x       y       z     vdW  Elec       q    Type
REMARK                         _______ _______ _______ _____ _____    ______ ____
ROOT
ATOM      1  N   UNL     1       3.903   4.682  17.923  0.00  0.00    +0.000 N 
ATOM      2  C   UNL     1       3.750   3.456  18.710  0.00  0.00    +0.000 C 
ATOM      3  C   UNL     1       2.281   3.354  19.174  0.00  0.00    +0.000 C 
ATOM      4  O   UNL     1       2.159   2.357  20.204  0.00  0.00    +0.000 OA
ATOM      5  C   UNL     1       2.050   3.018  21.474  0.00  0.00    +0.000 C 
ATOM      6  C   UNL     1       2.226   4.504  21.229  0.00  0.00    +0.000 C 
ATOM      7  C   UNL     1       1.746   4.645  19.797  0.00  0.00    +0.000 C 
ATOM      8  C   UNL     1       2.169   5.923  19.056  0.00  0.00    +0.000 C 
ATOM      9  C   UNL     1       3.660   5.910  18.701  0.00  0.00    +0.000 C 
ENDROOT
BRANCH   1  12
ATOM     10  C   UNL     1       6.969   5.908  16.430  0.00  0.00    +0.000 A 
ATOM     11  C   UNL     1       5.860   5.858  17.237  0.00  0.00    +0.000 A 
ATOM     12  C   UNL     1       5.054   4.742  17.127  0.00  0.00    +0.000 A 
ATOM     13  N   UNL     1       5.331   3.763  16.250  0.00  0.00    +0.000 NA
ATOM     14  C   UNL     1       6.444   3.913  15.511  0.00  0.00    +0.000 A 
ATOM     15  N   UNL     1       7.294   4.944  15.558  0.00  0.00    +0.000 NA
BRANCH  10  17
ATOM     16  C   UNL     1       7.746   7.582  17.864  0.00  0.00    +0.000 C 
ATOM     17  O   UNL     1       7.758   7.035  16.545  0.00  0.00    +0.000 OA
ENDBRANCH  10  17
ENDBRANCH   1  12
BRANCH   8  18
ATOM     18  C   UNL     1       1.797   7.176  19.832  0.00  0.00    +0.000 C 
ATOM     19  O   UNL     1       1.525   7.164  21.028  0.00  0.00    +0.000 OA
ATOM     20  N   UNL     1       1.796   8.322  19.056  0.00  0.00    +0.000 N 
ATOM     21  H   UNL     1       2.102   8.268  18.092  0.00  0.00    +0.000 HD
BRANCH  20  22
ATOM     22  C   UNL     1       1.447   9.603  19.580  0.00  0.00    +0.000 C 
ATOM     23  C   UNL     1       0.913  10.687  18.682  0.00  0.00    +0.000 C 
ATOM     24  C   UNL     1       0.004  10.016  19.670  0.00  0.00    +0.000 C 
ENDBRANCH  20  22
ENDBRANCH   8  18
TORSDOF 4
ENDMDL
