MODEL 1
REMARK VINA RESULT:      -8.8      0.000      0.000
REMARK  Name = 
REMARK  3 active torsions:
REMARK  status: ('A' for Active; 'I' for Inactive)
REMARK    1  A    between atoms: C_2  and  C_3
REMARK    2  A    between atoms: C_5  and  N_6
REMARK    3  A    between atoms: N_14  and  C_15
REMARK                            x       y       z     vdW  Elec       q    Type
REMARK                         _______ _______ _______ _____ _____    ______ ____
ROOT
ATOM      1  N   UNL     1       1.808   8.743  19.492  0.00  0.00    +0.000 NA
ATOM      2  C   UNL     1       2.066   8.264  18.118  0.00  0.00    +0.000 C 
ATOM      3  C   UNL     1       3.120   7.150  18.037  0.00  0.00    +0.000 C 
ATOM      4  N   UNL     1       2.783   6.030  18.921  0.00  0.00    +0.000 N 
ATOM      5  C   UNL     1       2.473   4.797  18.423  0.00  0.00    +0.000 A 
ATOM      6  N   UNL     1       1.448   4.024  18.713  0.00  0.00    +0.000 NA
ATOM      7  N   UNL     1       1.463   2.999  17.799  0.00  0.00    +0.000 NA
ATOM      8  N   UNL     1       2.497   3.100  16.974  0.00  0.00    +0.000 NA
ATOM      9  N   UNL     1       3.232   4.138  17.443  0.00  0.00    +0.000 N 
ATOM     10  C   UNL     1       2.472   6.394  20.298  0.00  0.00    +0.000 C 
ATOM     11  C   UNL     1       1.503   7.597  20.389  0.00  0.00    +0.000 C 
ENDROOT
BRANCH   1  14
ATOM     12  C   UNL     1      -0.778  11.151  20.696  0.00  0.00    +0.000 C 
ATOM     13  C   UNL     1      -0.095   9.792  20.787  0.00  0.00    +0.000 C 
ATOM     14  C   UNL     1       0.709   9.732  19.493  0.00  0.00    +0.000 C 
ATOM     15  C   UNL     1       1.126  11.206  19.290  0.00  0.00    +0.000 C 
ATOM     16  N   UNL     1       0.261  12.035  20.136  0.00  0.00    +0.000 NA
ATOM     17  H   UNL     1      -0.134  12.820  19.627  0.00  0.00    +0.000 HD
BRANCH  12  19
ATOM     18  O   UNL     1      -0.588  11.425  23.102  0.00  0.00    +0.000 OA
ATOM     19  C   UNL     1      -1.232  11.665  22.077  0.00  0.00    +0.000 C 
ATOM     20  N   UNL     1      -2.393  12.419  22.131  0.00  0.00    +0.000 N 
ATOM     21  C   UNL     1      -3.264  12.750  21.011  0.00  0.00    +0.000 C 
ATOM     22  C   UNL     1      -4.505  13.493  21.492  0.00  0.00    +0.000 C 
ATOM     23  S   UNL     1      -4.648  13.089  23.243  0.00  0.00    +0.000 S 
ATOM     24  C   UNL     1      -2.870  12.850  23.425  0.00  0.00    +0.000 C 
ENDBRANCH  12  19
ENDBRANCH   1  14
BRANCH   9  25
ATOM     25  C   UNL     1       4.549   4.400  16.994  0.00  0.00    +0.000 A 
ATOM     26  C   UNL     1       5.612   4.441  17.903  0.00  0.00    +0.000 A 
ATOM     27  C   UNL     1       6.916   4.602  17.433  0.00  0.00    +0.000 A 
ATOM     28  C   UNL     1       7.161   4.746  16.063  0.00  0.00    +0.000 A 
ATOM     29  C   UNL     1       6.102   4.759  15.163  0.00  0.00    +0.000 A 
ATOM     30  C   UNL     1       4.803   4.599  15.626  0.00  0.00    +0.000 A 
ENDBRANCH   9  25
TORSDOF 3
ENDMDL
MODEL 2
REMARK VINA RESULT:      -8.5      2.392      2.850
REMARK  Name = 
REMARK  3 active torsions:
REMARK  status: ('A' for Active; 'I' for Inactive)
REMARK    1  A    between atoms: C_2  and  C_3
REMARK    2  A    between atoms: C_5  and  N_6
REMARK    3  A    between atoms: N_14  and  C_15
REMARK                            x       y       z     vdW  Elec       q    Type
REMARK                         _______ _______ _______ _____ _____    ______ ____
ROOT
ATOM      1  N   UNL     1       2.086   8.954  19.190  0.00  0.00    +0.000 NA
ATOM      2  C   UNL     1       2.345   8.392  17.847  0.00  0.00    +0.000 C 
ATOM      3  C   UNL     1       3.315   7.200  17.851  0.00  0.00    +0.000 C 
ATOM      4  N   UNL     1       2.869   6.152  18.774  0.00  0.00    +0.000 N 
ATOM      5  C   UNL     1       2.481   4.923  18.323  0.00  0.00    +0.000 A 
ATOM      6  N   UNL     1       1.393   4.243  18.615  0.00  0.00    +0.000 NA
ATOM      7  N   UNL     1       1.356   3.177  17.751  0.00  0.00    +0.000 NA
ATOM      8  N   UNL     1       2.418   3.161  16.955  0.00  0.00    +0.000 NA
ATOM      9  N   UNL     1       3.215   4.163  17.399  0.00  0.00    +0.000 N 
ATOM     10  C   UNL     1       2.548   6.603  20.123  0.00  0.00    +0.000 C 
ATOM     11  C   UNL     1       1.671   7.878  20.128  0.00  0.00    +0.000 C 
ENDROOT
BRANCH   1  14
ATOM     12  C   UNL     1      -1.047  10.788  18.324  0.00  0.00    +0.000 C 
ATOM     13  C   UNL     1       0.139   9.928  17.904  0.00  0.00    +0.000 C 
ATOM     14  C   UNL     1       1.065  10.020  19.111  0.00  0.00    +0.000 C 
ATOM     15  C   UNL     1       0.070  10.091  20.292  0.00  0.00    +0.000 C 
ATOM     16  N   UNL     1      -1.242  10.455  19.747  0.00  0.00    +0.000 NA
ATOM     17  H   UNL     1      -1.675  11.214  20.265  0.00  0.00    +0.000 HD
BRANCH  12  19
ATOM     18  O   UNL     1      -2.293   9.684  16.554  0.00  0.00    +0.000 OA
ATOM     19  C   UNL     1      -2.318  10.456  17.517  0.00  0.00    +0.000 C 
ATOM     20  N   UNL     1      -3.504  11.051  17.915  0.00  0.00    +0.000 N 
ATOM     21  C   UNL     1      -3.674  12.000  19.007  0.00  0.00    +0.000 C 
ATOM     22  C   UNL     1      -5.106  12.521  19.054  0.00  0.00    +0.000 C 
ATOM     23  S   UNL     1      -5.771  12.223  17.407  0.00  0.00    +0.000 S 
ATOM     24  C   UNL     1      -4.692  10.806  17.128  0.00  0.00    +0.000 C 
ENDBRANCH  12  19
ENDBRANCH   1  14
BRANCH   9  25
ATOM     25  C   UNL     1       4.560   4.305  16.979  0.00  0.00    +0.000 A 
ATOM     26  C   UNL     1       4.866   4.438  15.620  0.00  0.00    +0.000 A 
ATOM     27  C   UNL     1       6.185   4.676  15.231  0.00  0.00    +0.000 A 
ATOM     28  C   UNL     1       7.202   4.756  16.188  0.00  0.00    +0.000 A 
ATOM     29  C   UNL     1       6.909   4.570  17.534  0.00  0.00    +0.000 A 
ATOM     30  C   UNL     1       5.598   4.334  17.927  0.00  0.00    +0.000 A 
ENDBRANCH   9  25
TORSDOF 3
ENDMDL
MODEL 3
REMARK VINA RESULT:      -8.3      0.929      1.292
REMARK  Name = 
REMARK  3 active torsions:
REMARK  status: ('A' for Active; 'I' for Inactive)
REMARK    1  A    between atoms: C_2  and  C_3
REMARK    2  A    between atoms: C_5  and  N_6
REMARK    3  A    between atoms: N_14  and  C_15
REMARK                            x       y       z     vdW  Elec       q    Type
REMARK                         _______ _______ _______ _____ _____    ______ ____
ROOT
ATOM      1  N   UNL     1       1.814   8.681  19.547  0.00  0.00    +0.000 NA
ATOM      2  C   UNL     1       2.129   8.178  18.192  0.00  0.00    +0.000 C 
ATOM      3  C   UNL     1       3.147   7.028  18.179  0.00  0.00    +0.000 C 
ATOM      4  N   UNL     1       2.724   5.930  19.054  0.00  0.00    +0.000 N 
ATOM      5  C   UNL     1       2.399   4.703  18.552  0.00  0.00    +0.000 A 
ATOM      6  N   UNL     1       1.334   3.969  18.793  0.00  0.00    +0.000 NA
ATOM      7  N   UNL     1       1.362   2.934  17.891  0.00  0.00    +0.000 NA
ATOM      8  N   UNL     1       2.442   2.990  17.122  0.00  0.00    +0.000 NA
ATOM      9  N   UNL     1       3.186   4.007  17.621  0.00  0.00    +0.000 N 
ATOM     10  C   UNL     1       2.352   6.320  20.409  0.00  0.00    +0.000 C 
ATOM     11  C   UNL     1       1.423   7.556  20.436  0.00  0.00    +0.000 C 
ENDROOT
BRANCH   1  14
ATOM     12  C   UNL     1      -0.276  11.663  20.367  0.00  0.00    +0.000 C 
ATOM     13  C   UNL     1       0.439  10.390  20.805  0.00  0.00    +0.000 C 
ATOM     14  C   UNL     1       0.751   9.706  19.479  0.00  0.00    +0.000 C 
ATOM     15  C   UNL     1       1.028  10.904  18.541  0.00  0.00    +0.000 C 
ATOM     16  N   UNL     1       0.479  12.105  19.180  0.00  0.00    +0.000 NA
ATOM     17  H   UNL     1      -0.091  12.652  18.541  0.00  0.00    +0.000 HD
BRANCH  12  19
ATOM     18  O   UNL     1       0.815  13.253  21.844  0.00  0.00    +0.000 OA
ATOM     19  C   UNL     1      -0.245  12.751  21.459  0.00  0.00    +0.000 C 
ATOM     20  N   UNL     1      -1.456  13.156  21.995  0.00  0.00    +0.000 N 
ATOM     21  C   UNL     1      -2.772  12.630  21.659  0.00  0.00    +0.000 C 
ATOM     22  C   UNL     1      -3.845  13.247  22.550  0.00  0.00    +0.000 C 
ATOM     23  S   UNL     1      -2.963  13.859  23.996  0.00  0.00    +0.000 S 
ATOM     24  C   UNL     1      -1.440  14.124  23.068  0.00  0.00    +0.000 C 
ENDBRANCH  12  19
ENDBRANCH   1  14
BRANCH   9  25
ATOM     25  C   UNL     1       4.534   4.219  17.240  0.00  0.00    +0.000 A 
ATOM     26  C   UNL     1       4.871   4.373  15.891  0.00  0.00    +0.000 A 
ATOM     27  C   UNL     1       6.187   4.680  15.540  0.00  0.00    +0.000 A 
ATOM     28  C   UNL     1       7.170   4.807  16.527  0.00  0.00    +0.000 A 
ATOM     29  C   UNL     1       6.849   4.601  17.863  0.00  0.00    +0.000 A 
ATOM     30  C   UNL     1       5.540   4.297  18.217  0.00  0.00    +0.000 A 
ENDBRANCH   9  25
TORSDOF 3
ENDMDL
MODEL 4
REMARK VINA RESULT:      -8.2      1.971      2.369
REMARK  Name = 
REMARK  3 active torsions:
REMARK  status: ('A' for Active; 'I' for Inactive)
REMARK    1  A    between atoms: C_2  and  C_3
REMARK    2  A    between atoms: C_5  and  N_6
REMARK    3  A    between atoms: N_14  and  C_15
REMARK                            x       y       z     vdW  Elec       q    Type
REMARK                         _______ _______ _______ _____ _____    ______ ____
ROOT
ATOM      1  N   UNL     1       2.091   9.338  18.622  0.00  0.00    +0.000 NA
ATOM      2  C   UNL     1       2.582   8.610  17.433  0.00  0.00    +0.000 C 
ATOM      3  C   UNL     1       3.453   7.390  17.769  0.00  0.00    +0.000 C 
ATOM      4  N   UNL     1       2.762   6.478  18.686  0.00  0.00    +0.000 N 
ATOM      5  C   UNL     1       2.396   5.220  18.300  0.00  0.00    +0.000 A 
ATOM      6  N   UNL     1       1.231   4.624  18.429  0.00  0.00    +0.000 NA
ATOM      7  N   UNL     1       1.303   3.465  17.696  0.00  0.00    +0.000 NA
ATOM      8  N   UNL     1       2.502   3.312  17.148  0.00  0.00    +0.000 NA
ATOM      9  N   UNL     1       3.254   4.327  17.638  0.00  0.00    +0.000 N 
ATOM     10  C   UNL     1       2.202   7.099  19.880  0.00  0.00    +0.000 C 
ATOM     11  C   UNL     1       1.426   8.399  19.563  0.00  0.00    +0.000 C 
ENDROOT
BRANCH   1  14
ATOM     12  C   UNL     1      -0.838  11.651  18.549  0.00  0.00    +0.000 C 
ATOM     13  C   UNL     1      -0.271  10.239  18.649  0.00  0.00    +0.000 C 
ATOM     14  C   UNL     1       1.178  10.427  18.215  0.00  0.00    +0.000 C 
ATOM     15  C   UNL     1       1.513  11.832  18.767  0.00  0.00    +0.000 C 
ATOM     16  N   UNL     1       0.246  12.507  19.066  0.00  0.00    +0.000 NA
ATOM     17  H   UNL     1       0.212  13.447  18.682  0.00  0.00    +0.000 HD
BRANCH  12  19
ATOM     18  O   UNL     1      -2.058  11.998  20.621  0.00  0.00    +0.000 OA
ATOM     19  C   UNL     1      -2.112  11.826  19.400  0.00  0.00    +0.000 C 
ATOM     20  N   UNL     1      -3.331  11.790  18.744  0.00  0.00    +0.000 N 
ATOM     21  C   UNL     1      -3.543  11.565  17.320  0.00  0.00    +0.000 C 
ATOM     22  C   UNL     1      -5.032  11.477  17.002  0.00  0.00    +0.000 C 
ATOM     23  S   UNL     1      -5.827  11.073  18.568  0.00  0.00    +0.000 S 
ATOM     24  C   UNL     1      -4.538  11.883  19.535  0.00  0.00    +0.000 C 
ENDBRANCH  12  19
ENDBRANCH   1  14
BRANCH   9  25
ATOM     25  C   UNL     1       4.663   4.364  17.497  0.00  0.00    +0.000 A 
ATOM     26  C   UNL     1       5.249   4.263  16.231  0.00  0.00    +0.000 A 
ATOM     27  C   UNL     1       6.632   4.401  16.098  0.00  0.00    +0.000 A 
ATOM     28  C   UNL     1       7.433   4.612  17.226  0.00  0.00    +0.000 A 
ATOM     29  C   UNL     1       6.858   4.659  18.491  0.00  0.00    +0.000 A 
ATOM     30  C   UNL     1       5.482   4.523  18.627  0.00  0.00    +0.000 A 
ENDBRANCH   9  25
TORSDOF 3
ENDMDL
MODEL 5
REMARK VINA RESULT:      -8.1      2.167      2.422
REMARK  Name = 
REMARK  3 active torsions:
REMARK  status: ('A' for Active; 'I' for Inactive)
REMARK    1  A    between atoms: C_2  and  C_3
REMARK    2  A    between atoms: C_5  and  N_6
REMARK    3  A    between atoms: N_14  and  C_15
REMARK                            x       y       z     vdW  Elec       q    Type
REMARK                         _______ _______ _______ _____ _____    ______ ____
ROOT
ATOM      1  N   UNL     1       1.740   8.773  19.557  0.00  0.00    +0.000 NA
ATOM      2  C   UNL     1       2.059   8.292  18.195  0.00  0.00    +0.000 C 
ATOM      3  C   UNL     1       3.105   7.168  18.165  0.00  0.00    +0.000 C 
ATOM      4  N   UNL     1       2.714   6.051  19.030  0.00  0.00    +0.000 N 
ATOM      5  C   UNL     1       2.416   4.821  18.516  0.00  0.00    +0.000 A 
ATOM      6  N   UNL     1       1.371   4.059  18.755  0.00  0.00    +0.000 NA
ATOM      7  N   UNL     1       1.419   3.035  17.842  0.00  0.00    +0.000 NA
ATOM      8  N   UNL     1       2.493   3.126  17.068  0.00  0.00    +0.000 NA
ATOM      9  N   UNL     1       3.215   4.155  17.574  0.00  0.00    +0.000 N 
ATOM     10  C   UNL     1       2.340   6.417  20.391  0.00  0.00    +0.000 C 
ATOM     11  C   UNL     1       1.381   7.630  20.436  0.00  0.00    +0.000 C 
ENDROOT
BRANCH   1  14
ATOM     12  C   UNL     1      -0.054  12.029  19.216  0.00  0.00    +0.000 C 
ATOM     13  C   UNL     1       1.086  11.204  19.801  0.00  0.00    +0.000 C 
ATOM     14  C   UNL     1       0.652   9.773  19.505  0.00  0.00    +0.000 C 
ATOM     15  C   UNL     1      -0.070   9.916  18.146  0.00  0.00    +0.000 C 
ATOM     16  N   UNL     1      -0.384  11.337  17.956  0.00  0.00    +0.000 NA
ATOM     17  H   UNL     1      -1.350  11.481  17.678  0.00  0.00    +0.000 HD
BRANCH  12  19
ATOM     18  O   UNL     1       1.362  13.749  18.246  0.00  0.00    +0.000 OA
ATOM     19  C   UNL     1       0.371  13.484  18.932  0.00  0.00    +0.000 C 
ATOM     20  N   UNL     1      -0.408  14.496  19.470  0.00  0.00    +0.000 N 
ATOM     21  C   UNL     1      -1.581  14.329  20.318  0.00  0.00    +0.000 C 
ATOM     22  C   UNL     1      -2.091  15.679  20.807  0.00  0.00    +0.000 C 
ATOM     23  S   UNL     1      -0.692  16.802  20.641  0.00  0.00    +0.000 S 
ATOM     24  C   UNL     1       0.014  15.864  19.272  0.00  0.00    +0.000 C 
ENDBRANCH  12  19
ENDBRANCH   1  14
BRANCH   9  25
ATOM     25  C   UNL     1       4.555   4.404  17.188  0.00  0.00    +0.000 A 
ATOM     26  C   UNL     1       5.575   4.420  18.146  0.00  0.00    +0.000 A 
ATOM     27  C   UNL     1       6.901   4.567  17.739  0.00  0.00    +0.000 A 
ATOM     28  C   UNL     1       7.211   4.725  16.384  0.00  0.00    +0.000 A 
ATOM     29  C   UNL     1       6.195   4.764  15.435  0.00  0.00    +0.000 A 
ATOM     30  C   UNL     1       4.874   4.616  15.836  0.00  0.00    +0.000 A 
ENDBRANCH   9  25
TORSDOF 3
ENDMDL
MODEL 6
REMARK VINA RESULT:      -8.0      1.399      1.512
REMARK  Name = 
REMARK  3 active torsions:
REMARK  status: ('A' for Active; 'I' for Inactive)
REMARK    1  A    between atoms: C_2  and  C_3
REMARK    2  A    between atoms: C_5  and  N_6
REMARK    3  A    between atoms: N_14  and  C_15
REMARK                            x       y       z     vdW  Elec       q    Type
REMARK                         _______ _______ _______ _____ _____    ______ ____
ROOT
ATOM      1  N   UNL     1       1.640   8.626  19.897  0.00  0.00    +0.000 NA
ATOM      2  C   UNL     1       1.974   8.231  18.512  0.00  0.00    +0.000 C 
ATOM      3  C   UNL     1       3.027   7.117  18.422  0.00  0.00    +0.000 C 
ATOM      4  N   UNL     1       2.636   5.947  19.214  0.00  0.00    +0.000 N 
ATOM      5  C   UNL     1       2.350   4.749  18.624  0.00  0.00    +0.000 A 
ATOM      6  N   UNL     1       1.308   3.968  18.806  0.00  0.00    +0.000 NA
ATOM      7  N   UNL     1       1.371   3.001  17.833  0.00  0.00    +0.000 NA
ATOM      8  N   UNL     1       2.451   3.145  17.076  0.00  0.00    +0.000 NA
ATOM      9  N   UNL     1       3.162   4.147  17.650  0.00  0.00    +0.000 N 
ATOM     10  C   UNL     1       2.248   6.227  20.592  0.00  0.00    +0.000 C 
ATOM     11  C   UNL     1       1.281   7.429  20.702  0.00  0.00    +0.000 C 
ENDROOT
BRANCH   1  14
ATOM     12  C   UNL     1      -0.262  11.787  20.469  0.00  0.00    +0.000 C 
ATOM     13  C   UNL     1       0.646  10.679  20.989  0.00  0.00    +0.000 C 
ATOM     14  C   UNL     1       0.546   9.621  19.897  0.00  0.00    +0.000 C 
ATOM     15  C   UNL     1       0.410  10.475  18.615  0.00  0.00    +0.000 C 
ATOM     16  N   UNL     1       0.023  11.830  19.022  0.00  0.00    +0.000 NA
ATOM     17  H   UNL     1      -0.764  12.181  18.484  0.00  0.00    +0.000 HD
BRANCH  12  19
ATOM     18  O   UNL     1       1.062  13.795  20.813  0.00  0.00    +0.000 OA
ATOM     19  C   UNL     1       0.055  13.149  21.118  0.00  0.00    +0.000 C 
ATOM     20  N   UNL     1      -0.838  13.635  22.059  0.00  0.00    +0.000 N 
ATOM     21  C   UNL     1      -2.043  12.968  22.535  0.00  0.00    +0.000 C 
ATOM     22  C   UNL     1      -2.695  13.766  23.658  0.00  0.00    +0.000 C 
ATOM     23  S   UNL     1      -1.388  14.822  24.308  0.00  0.00    +0.000 S 
ATOM     24  C   UNL     1      -0.521  14.876  22.728  0.00  0.00    +0.000 C 
ENDBRANCH  12  19
ENDBRANCH   1  14
BRANCH   9  25
ATOM     25  C   UNL     1       4.503   4.426  17.292  0.00  0.00    +0.000 A 
ATOM     26  C   UNL     1       5.517   4.371  18.255  0.00  0.00    +0.000 A 
ATOM     27  C   UNL     1       6.846   4.552  17.868  0.00  0.00    +0.000 A 
ATOM     28  C   UNL     1       7.164   4.813  16.530  0.00  0.00    +0.000 A 
ATOM     29  C   UNL     1       6.153   4.921  15.582  0.00  0.00    +0.000 A 
ATOM     30  C   UNL     1       4.830   4.741  15.962  0.00  0.00    +0.000 A 
ENDBRANCH   9  25
TORSDOF 3
ENDMDL
MODEL 7
REMARK VINA RESULT:      -7.9      1.603      2.014
REMARK  Name = 
REMARK  3 active torsions:
REMARK  status: ('A' for Active; 'I' for Inactive)
REMARK    1  A    between atoms: C_2  and  C_3
REMARK    2  A    between atoms: C_5  and  N_6
REMARK    3  A    between atoms: N_14  and  C_15
REMARK                            x       y       z     vdW  Elec       q    Type
REMARK                         _______ _______ _______ _____ _____    ______ ____
ROOT
ATOM      1  N   UNL     1       1.370   9.694  18.975  0.00  0.00    +0.000 NA
ATOM      2  C   UNL     1       1.889   8.973  17.793  0.00  0.00    +0.000 C 
ATOM      3  C   UNL     1       2.979   7.943  18.125  0.00  0.00    +0.000 C 
ATOM      4  N   UNL     1       2.526   6.998  19.150  0.00  0.00    +0.000 N 
ATOM      5  C   UNL     1       2.355   5.672  18.871  0.00  0.00    +0.000 A 
ATOM      6  N   UNL     1       1.322   4.900  19.135  0.00  0.00    +0.000 NA
ATOM      7  N   UNL     1       1.538   3.720  18.469  0.00  0.00    +0.000 NA
ATOM      8  N   UNL     1       2.701   3.729  17.829  0.00  0.00    +0.000 NA
ATOM      9  N   UNL     1       3.302   4.888  18.193  0.00  0.00    +0.000 N 
ATOM     10  C   UNL     1       1.958   7.602  20.349  0.00  0.00    +0.000 C 
ATOM     11  C   UNL     1       0.948   8.728  20.023  0.00  0.00    +0.000 C 
ENDROOT
BRANCH   1  14
ATOM     12  C   UNL     1      -1.657  11.868  19.189  0.00  0.00    +0.000 C 
ATOM     13  C   UNL     1      -0.933  10.574  19.540  0.00  0.00    +0.000 C 
ATOM     14  C   UNL     1       0.255  10.583  18.585  0.00  0.00    +0.000 C 
ATOM     15  C   UNL     1       0.594  12.088  18.486  0.00  0.00    +0.000 C 
ATOM     16  N   UNL     1      -0.568  12.838  18.975  0.00  0.00    +0.000 NA
ATOM     17  H   UNL     1      -0.835  13.586  18.341  0.00  0.00    +0.000 HD
BRANCH  12  19
ATOM     18  O   UNL     1      -2.136  12.671  21.431  0.00  0.00    +0.000 OA
ATOM     19  C   UNL     1      -2.582  12.342  20.328  0.00  0.00    +0.000 C 
ATOM     20  N   UNL     1      -3.942  12.395  20.070  0.00  0.00    +0.000 N 
ATOM     21  C   UNL     1      -4.605  12.010  18.831  0.00  0.00    +0.000 C 
ATOM     22  C   UNL     1      -6.119  12.097  18.978  0.00  0.00    +0.000 C 
ATOM     23  S   UNL     1      -6.426  12.033  20.752  0.00  0.00    +0.000 S 
ATOM     24  C   UNL     1      -4.829  12.771  21.147  0.00  0.00    +0.000 C 
ENDBRANCH  12  19
ENDBRANCH   1  14
BRANCH   9  25
ATOM     25  C   UNL     1       4.668   5.149  17.929  0.00  0.00    +0.000 A 
ATOM     26  C   UNL     1       5.101   5.401  16.622  0.00  0.00    +0.000 A 
ATOM     27  C   UNL     1       6.432   5.754  16.393  0.00  0.00    +0.000 A 
ATOM     28  C   UNL     1       7.336   5.832  17.457  0.00  0.00    +0.000 A 
ATOM     29  C   UNL     1       6.921   5.530  18.749  0.00  0.00    +0.000 A 
ATOM     30  C   UNL     1       5.598   5.179  18.982  0.00  0.00    +0.000 A 
ENDBRANCH   9  25
TORSDOF 3
ENDMDL
MODEL 8
REMARK VINA RESULT:      -7.8      2.065      2.451
REMARK  Name = 
REMARK  3 active torsions:
REMARK  status: ('A' for Active; 'I' for Inactive)
REMARK    1  A    between atoms: C_2  and  C_3
REMARK    2  A    between atoms: C_5  and  N_6
REMARK    3  A    between atoms: N_14  and  C_15
REMARK                            x       y       z     vdW  Elec       q    Type
REMARK                         _______ _______ _______ _____ _____    ______ ____
ROOT
ATOM      1  N   UNL     1       1.184   9.902  18.791  0.00  0.00    +0.000 NA
ATOM      2  C   UNL     1       1.484   8.845  17.801  0.00  0.00    +0.000 C 
ATOM      3  C   UNL     1       2.567   7.857  18.259  0.00  0.00    +0.000 C 
ATOM      4  N   UNL     1       2.237   7.269  19.561  0.00  0.00    +0.000 N 
ATOM      5  C   UNL     1       1.968   5.937  19.695  0.00  0.00    +0.000 A 
ATOM      6  N   UNL     1       0.956   5.356  20.303  0.00  0.00    +0.000 NA
ATOM      7  N   UNL     1       1.017   4.024  19.975  0.00  0.00    +0.000 NA
ATOM      8  N   UNL     1       2.066   3.762  19.207  0.00  0.00    +0.000 NA
ATOM      9  N   UNL     1       2.765   4.921  19.143  0.00  0.00    +0.000 N 
ATOM     10  C   UNL     1       1.886   8.223  20.606  0.00  0.00    +0.000 C 
ATOM     11  C   UNL     1       0.887   9.298  20.116  0.00  0.00    +0.000 C 
ENDROOT
BRANCH   1  14
ATOM     12  C   UNL     1      -2.004  11.844  18.757  0.00  0.00    +0.000 C 
ATOM     13  C   UNL     1      -1.232  10.578  19.111  0.00  0.00    +0.000 C 
ATOM     14  C   UNL     1       0.061  10.741  18.320  0.00  0.00    +0.000 C 
ATOM     15  C   UNL     1       0.293  12.269  18.367  0.00  0.00    +0.000 C 
ATOM     16  N   UNL     1      -0.974  12.899  18.752  0.00  0.00    +0.000 NA
ATOM     17  H   UNL     1      -1.217  13.673  18.140  0.00  0.00    +0.000 HD
BRANCH  12  19
ATOM     18  O   UNL     1      -2.816  12.478  20.957  0.00  0.00    +0.000 OA
ATOM     19  C   UNL     1      -3.097  12.166  19.796  0.00  0.00    +0.000 C 
ATOM     20  N   UNL     1      -4.416  12.101  19.380  0.00  0.00    +0.000 N 
ATOM     21  C   UNL     1      -4.890  11.718  18.056  0.00  0.00    +0.000 C 
ATOM     22  C   UNL     1      -6.413  11.651  18.025  0.00  0.00    +0.000 C 
ATOM     23  S   UNL     1      -6.913  11.464  19.746  0.00  0.00    +0.000 S 
ATOM     24  C   UNL     1      -5.455  12.332  20.358  0.00  0.00    +0.000 C 
ENDBRANCH  12  19
ENDBRANCH   1  14
BRANCH   9  25
ATOM     25  C   UNL     1       4.085   4.984  18.634  0.00  0.00    +0.000 A 
ATOM     26  C   UNL     1       5.148   5.345  19.470  0.00  0.00    +0.000 A 
ATOM     27  C   UNL     1       6.455   5.306  18.979  0.00  0.00    +0.000 A 
ATOM     28  C   UNL     1       6.701   4.936  17.653  0.00  0.00    +0.000 A 
ATOM     29  C   UNL     1       5.642   4.630  16.806  0.00  0.00    +0.000 A 
ATOM     30  C   UNL     1       4.341   4.665  17.290  0.00  0.00    +0.000 A 
ENDBRANCH   9  25
TORSDOF 3
ENDMDL
MODEL 9
REMARK VINA RESULT:      -7.5      2.076      2.373
REMARK  Name = 
REMARK  3 active torsions:
REMARK  status: ('A' for Active; 'I' for Inactive)
REMARK    1  A    between atoms: C_2  and  C_3
REMARK    2  A    between atoms: C_5  and  N_6
REMARK    3  A    between atoms: N_14  and  C_15
REMARK                            x       y       z     vdW  Elec       q    Type
REMARK                         _______ _______ _______ _____ _____    ______ ____
ROOT
ATOM      1  N   UNL     1       1.187   9.174  19.706  0.00  0.00    +0.000 NA
ATOM      2  C   UNL     1       1.630   8.673  18.387  0.00  0.00    +0.000 C 
ATOM      3  C   UNL     1       2.799   7.680  18.463  0.00  0.00    +0.000 C 
ATOM      4  N   UNL     1       2.494   6.565  19.364  0.00  0.00    +0.000 N 
ATOM      5  C   UNL     1       2.367   5.286  18.900  0.00  0.00    +0.000 A 
ATOM      6  N   UNL     1       1.405   4.418  19.128  0.00  0.00    +0.000 NA
ATOM      7  N   UNL     1       1.619   3.366  18.272  0.00  0.00    +0.000 NA
ATOM      8  N   UNL     1       2.715   3.548  17.545  0.00  0.00    +0.000 NA
ATOM      9  N   UNL     1       3.286   4.677  18.031  0.00  0.00    +0.000 N 
ATOM     10  C   UNL     1       2.010   6.945  20.686  0.00  0.00    +0.000 C 
ATOM     11  C   UNL     1       0.916   8.037  20.625  0.00  0.00    +0.000 C 
ENDROOT
BRANCH   1  14
ATOM     12  C   UNL     1      -0.958  12.210  19.366  0.00  0.00    +0.000 C 
ATOM     13  C   UNL     1       0.167  11.460  20.069  0.00  0.00    +0.000 C 
ATOM     14  C   UNL     1      -0.005  10.036  19.553  0.00  0.00    +0.000 C 
ATOM     15  C   UNL     1      -0.494  10.261  18.104  0.00  0.00    +0.000 C 
ATOM     16  N   UNL     1      -0.966  11.647  18.004  0.00  0.00    +0.000 NA
ATOM     17  H   UNL     1      -1.880  11.709  17.565  0.00  0.00    +0.000 HD
BRANCH  12  19
ATOM     18  O   UNL     1       0.084  14.228  18.503  0.00  0.00    +0.000 OA
ATOM     19  C   UNL     1      -0.699  13.729  19.316  0.00  0.00    +0.000 C 
ATOM     20  N   UNL     1      -1.385  14.527  20.218  0.00  0.00    +0.000 N 
ATOM     21  C   UNL     1      -2.311  14.073  21.247  0.00  0.00    +0.000 C 
ATOM     22  C   UNL     1      -2.768  15.239  22.115  0.00  0.00    +0.000 C 
ATOM     23  S   UNL     1      -1.517  16.515  21.891  0.00  0.00    +0.000 S 
ATOM     24  C   UNL     1      -1.102  15.944  20.231  0.00  0.00    +0.000 C 
ENDBRANCH  12  19
ENDBRANCH   1  14
BRANCH   9  25
ATOM     25  C   UNL     1       4.606   5.064  17.697  0.00  0.00    +0.000 A 
ATOM     26  C   UNL     1       4.927   5.421  16.382  0.00  0.00    +0.000 A 
ATOM     27  C   UNL     1       6.207   5.895  16.089  0.00  0.00    +0.000 A 
ATOM     28  C   UNL     1       7.173   5.989  17.095  0.00  0.00    +0.000 A 
ATOM     29  C   UNL     1       6.873   5.584  18.391  0.00  0.00    +0.000 A 
ATOM     30  C   UNL     1       5.601   5.113  18.688  0.00  0.00    +0.000 A 
ENDBRANCH   9  25
TORSDOF 3
ENDMDL
