MODEL 1
REMARK VINA RESULT:      -6.3      0.000      0.000
REMARK  Name = 
REMARK  2 active torsions:
REMARK  status: ('A' for Active; 'I' for Inactive)
REMARK    1  A    between atoms: N_1  and  C_2
REMARK    2  A    between atoms: C_5  and  C_6
REMARK                            x       y       z     vdW  Elec       q    Type
REMARK                         _______ _______ _______ _____ _____    ______ ____
ROOT
ATOM      1  C   UNL     1       6.683   4.931  15.555  0.00  0.00    +0.000 C 
ATOM      2  C   UNL     1       7.325   4.748  16.938  0.00  0.00    +0.000 C 
ATOM      3  O   UNL     1       6.369   4.252  17.872  0.00  0.00    +0.000 OA
ATOM      4  C   UNL     1       5.244   5.124  17.972  0.00  0.00    +0.000 C 
ATOM      5  O   UNL     1       4.575   5.272  16.721  0.00  0.00    +0.000 OA
ATOM      6  C   UNL     1       5.442   5.816  15.729  0.00  0.00    +0.000 C 
ENDROOT
BRANCH   4   7
ATOM      7  C   UNL     1       4.266   4.521  18.959  0.00  0.00    +0.000 A 
ATOM      8  C   UNL     1       3.221   5.289  19.497  0.00  0.00    +0.000 A 
ATOM      9  C   UNL     1       2.316   4.727  20.403  0.00  0.00    +0.000 A 
ATOM     10  C   UNL     1       2.448   3.391  20.778  0.00  0.00    +0.000 A 
ATOM     11 CL   UNL     1       1.331   2.702  21.890  0.00  0.00    +0.000 Cl
ATOM     12  C   UNL     1       3.477   2.612  20.256  0.00  0.00    +0.000 A 
ATOM     13  C   UNL     1       4.381   3.175  19.351  0.00  0.00    +0.000 A 
ENDBRANCH   4   7
BRANCH   1  14
ATOM     14  N   UNL     1       7.611   5.471  14.556  0.00  0.00    +0.000 NA
ATOM     15  H   UNL     1       7.093   6.017  13.866  0.00  0.00    +0.000 HD
ATOM     16  H   UNL     1       8.069   4.721  14.042  0.00  0.00    +0.000 HD
ENDBRANCH   1  14
TORSDOF 2
ENDMDL
MODEL 2
REMARK VINA RESULT:      -6.3      0.223      1.296
REMARK  Name = 
REMARK  2 active torsions:
REMARK  status: ('A' for Active; 'I' for Inactive)
REMARK    1  A    between atoms: N_1  and  C_2
REMARK    2  A    between atoms: C_5  and  C_6
REMARK                            x       y       z     vdW  Elec       q    Type
REMARK                         _______ _______ _______ _____ _____    ______ ____
ROOT
ATOM      1  C   UNL     1       6.792   4.829  15.748  0.00  0.00    +0.000 C 
ATOM      2  C   UNL     1       7.357   4.792  17.176  0.00  0.00    +0.000 C 
ATOM      3  O   UNL     1       6.386   4.284  18.086  0.00  0.00    +0.000 OA
ATOM      4  C   UNL     1       5.192   5.066  18.059  0.00  0.00    +0.000 C 
ATOM      5  O   UNL     1       4.594   5.075  16.764  0.00  0.00    +0.000 OA
ATOM      6  C   UNL     1       5.477   5.621  15.787  0.00  0.00    +0.000 C 
ENDROOT
BRANCH   4   7
ATOM      7  C   UNL     1       4.203   4.453  19.029  0.00  0.00    +0.000 A 
ATOM      8  C   UNL     1       4.152   3.064  19.221  0.00  0.00    +0.000 A 
ATOM      9  C   UNL     1       3.242   2.501  20.123  0.00  0.00    +0.000 A 
ATOM     10  C   UNL     1       2.376   3.326  20.839  0.00  0.00    +0.000 A 
ATOM     11 CL   UNL     1       1.260   2.631  21.949  0.00  0.00    +0.000 Cl
ATOM     12  C   UNL     1       2.411   4.706  20.663  0.00  0.00    +0.000 A 
ATOM     13  C   UNL     1       3.320   5.266  19.762  0.00  0.00    +0.000 A 
ENDBRANCH   4   7
BRANCH   1  14
ATOM     14  N   UNL     1       7.736   5.376  14.768  0.00  0.00    +0.000 NA
ATOM     15  H   UNL     1       8.609   4.847  14.801  0.00  0.00    +0.000 HD
ATOM     16  H   UNL     1       7.976   6.339  14.993  0.00  0.00    +0.000 HD
ENDBRANCH   1  14
TORSDOF 2
ENDMDL
MODEL 3
REMARK VINA RESULT:      -6.3      0.982      1.546
REMARK  Name = 
REMARK  2 active torsions:
REMARK  status: ('A' for Active; 'I' for Inactive)
REMARK    1  A    between atoms: N_1  and  C_2
REMARK    2  A    between atoms: C_5  and  C_6
REMARK                            x       y       z     vdW  Elec       q    Type
REMARK                         _______ _______ _______ _____ _____    ______ ____
ROOT
ATOM      1  C   UNL     1       6.916   4.901  15.458  0.00  0.00    +0.000 C 
ATOM      2  C   UNL     1       6.765   5.877  16.635  0.00  0.00    +0.000 C 
ATOM      3  O   UNL     1       5.914   5.327  17.636  0.00  0.00    +0.000 OA
ATOM      4  C   UNL     1       4.628   5.009  17.104  0.00  0.00    +0.000 C 
ATOM      5  O   UNL     1       4.713   4.053  16.049  0.00  0.00    +0.000 OA
ATOM      6  C   UNL     1       5.507   4.539  14.969  0.00  0.00    +0.000 C 
ENDROOT
BRANCH   4   7
ATOM      7  C   UNL     1       3.792   4.409  18.216  0.00  0.00    +0.000 A 
ATOM      8  C   UNL     1       4.329   3.440  19.077  0.00  0.00    +0.000 A 
ATOM      9  C   UNL     1       3.557   2.893  20.107  0.00  0.00    +0.000 A 
ATOM     10  C   UNL     1       2.239   3.313  20.283  0.00  0.00    +0.000 A 
ATOM     11 CL   UNL     1       1.292   2.641  21.553  0.00  0.00    +0.000 Cl
ATOM     12  C   UNL     1       1.687   4.274  19.441  0.00  0.00    +0.000 A 
ATOM     13  C   UNL     1       2.460   4.819  18.412  0.00  0.00    +0.000 A 
ENDBRANCH   4   7
BRANCH   1  14
ATOM     14  N   UNL     1       7.757   5.426  14.377  0.00  0.00    +0.000 NA
ATOM     15  H   UNL     1       8.695   5.030  14.450  0.00  0.00    +0.000 HD
ATOM     16  H   UNL     1       7.864   6.436  14.459  0.00  0.00    +0.000 HD
ENDBRANCH   1  14
TORSDOF 2
ENDMDL
MODEL 4
REMARK VINA RESULT:      -6.1      1.179      1.566
REMARK  Name = 
REMARK  2 active torsions:
REMARK  status: ('A' for Active; 'I' for Inactive)
REMARK    1  A    between atoms: N_1  and  C_2
REMARK    2  A    between atoms: C_5  and  C_6
REMARK                            x       y       z     vdW  Elec       q    Type
REMARK                         _______ _______ _______ _____ _____    ______ ____
ROOT
ATOM      1  C   UNL     1       6.722   5.100  15.453  0.00  0.00    +0.000 C 
ATOM      2  C   UNL     1       5.573   6.074  15.754  0.00  0.00    +0.000 C 
ATOM      3  O   UNL     1       4.827   5.635  16.886  0.00  0.00    +0.000 OA
ATOM      4  C   UNL     1       4.306   4.322  16.683  0.00  0.00    +0.000 C 
ATOM      5  O   UNL     1       5.344   3.367  16.465  0.00  0.00    +0.000 OA
ATOM      6  C   UNL     1       6.118   3.696  15.313  0.00  0.00    +0.000 C 
ENDROOT
BRANCH   4   7
ATOM      7  C   UNL     1       3.550   3.915  17.932  0.00  0.00    +0.000 A 
ATOM      8  C   UNL     1       3.421   4.799  19.014  0.00  0.00    +0.000 A 
ATOM      9  C   UNL     1       2.717   4.424  20.163  0.00  0.00    +0.000 A 
ATOM     10  C   UNL     1       2.135   3.159  20.236  0.00  0.00    +0.000 A 
ATOM     11 CL   UNL     1       1.266   2.700  21.649  0.00  0.00    +0.000 Cl
ATOM     12  C   UNL     1       2.251   2.267  19.174  0.00  0.00    +0.000 A 
ATOM     13  C   UNL     1       2.955   2.644  18.028  0.00  0.00    +0.000 A 
ENDBRANCH   4   7
BRANCH   1  14
ATOM     14  N   UNL     1       7.509   5.482  14.276  0.00  0.00    +0.000 NA
ATOM     15  H   UNL     1       6.919   6.000  13.623  0.00  0.00    +0.000 HD
ATOM     16  H   UNL     1       7.836   4.658  13.776  0.00  0.00    +0.000 HD
ENDBRANCH   1  14
TORSDOF 2
ENDMDL
MODEL 5
REMARK VINA RESULT:      -6.0      4.020      5.892
REMARK  Name = 
REMARK  2 active torsions:
REMARK  status: ('A' for Active; 'I' for Inactive)
REMARK    1  A    between atoms: N_1  and  C_2
REMARK    2  A    between atoms: C_5  and  C_6
REMARK                            x       y       z     vdW  Elec       q    Type
REMARK                         _______ _______ _______ _____ _____    ______ ____
ROOT
ATOM      1  C   UNL     1       2.433   3.079  20.706  0.00  0.00    +0.000 C 
ATOM      2  C   UNL     1       2.668   4.572  20.436  0.00  0.00    +0.000 C 
ATOM      3  O   UNL     1       3.368   4.756  19.209  0.00  0.00    +0.000 OA
ATOM      4  C   UNL     1       4.616   4.063  19.217  0.00  0.00    +0.000 C 
ATOM      5  O   UNL     1       4.443   2.659  19.399  0.00  0.00    +0.000 OA
ATOM      6  C   UNL     1       3.793   2.372  20.636  0.00  0.00    +0.000 C 
ENDROOT
BRANCH   4   7
ATOM      7  C   UNL     1       5.288   4.284  17.877  0.00  0.00    +0.000 A 
ATOM      8  C   UNL     1       4.556   4.194  16.683  0.00  0.00    +0.000 A 
ATOM      9  C   UNL     1       5.177   4.404  15.448  0.00  0.00    +0.000 A 
ATOM     10  C   UNL     1       6.537   4.707  15.398  0.00  0.00    +0.000 A 
ATOM     11 CL   UNL     1       7.299   4.968  13.878  0.00  0.00    +0.000 Cl
ATOM     12  C   UNL     1       7.281   4.801  16.571  0.00  0.00    +0.000 A 
ATOM     13  C   UNL     1       6.659   4.590  17.804  0.00  0.00    +0.000 A 
ENDBRANCH   4   7
BRANCH   1  14
ATOM     14  N   UNL     1       1.743   2.823  21.976  0.00  0.00    +0.000 NA
ATOM     15  H   UNL     1       2.017   3.528  22.662  0.00  0.00    +0.000 HD
ATOM     16  H   UNL     1       2.019   1.923  22.363  0.00  0.00    +0.000 HD
ENDBRANCH   1  14
TORSDOF 2
ENDMDL
MODEL 6
REMARK VINA RESULT:      -6.0      4.015      5.925
REMARK  Name = 
REMARK  2 active torsions:
REMARK  status: ('A' for Active; 'I' for Inactive)
REMARK    1  A    between atoms: N_1  and  C_2
REMARK    2  A    between atoms: C_5  and  C_6
REMARK                            x       y       z     vdW  Elec       q    Type
REMARK                         _______ _______ _______ _____ _____    ______ ____
ROOT
ATOM      1  C   UNL     1       2.506   3.065  20.718  0.00  0.00    +0.000 C 
ATOM      2  C   UNL     1       2.707   4.560  20.433  0.00  0.00    +0.000 C 
ATOM      3  O   UNL     1       3.399   4.746  19.201  0.00  0.00    +0.000 OA
ATOM      4  C   UNL     1       4.662   4.082  19.212  0.00  0.00    +0.000 C 
ATOM      5  O   UNL     1       4.520   2.676  19.408  0.00  0.00    +0.000 OA
ATOM      6  C   UNL     1       3.881   2.387  20.650  0.00  0.00    +0.000 C 
ENDROOT
BRANCH   4   7
ATOM      7  C   UNL     1       5.324   4.303  17.867  0.00  0.00    +0.000 A 
ATOM      8  C   UNL     1       6.688   4.620  17.780  0.00  0.00    +0.000 A 
ATOM      9  C   UNL     1       7.298   4.817  16.537  0.00  0.00    +0.000 A 
ATOM     10  C   UNL     1       6.545   4.697  15.369  0.00  0.00    +0.000 A 
ATOM     11 CL   UNL     1       7.298   4.938  13.841  0.00  0.00    +0.000 Cl
ATOM     12  C   UNL     1       5.191   4.384  15.433  0.00  0.00    +0.000 A 
ATOM     13  C   UNL     1       4.583   4.188  16.676  0.00  0.00    +0.000 A 
ENDBRANCH   4   7
BRANCH   1  14
ATOM     14  N   UNL     1       1.826   2.807  21.993  0.00  0.00    +0.000 NA
ATOM     15  H   UNL     1       1.052   3.462  22.106  0.00  0.00    +0.000 HD
ATOM     16  H   UNL     1       2.455   2.967  22.777  0.00  0.00    +0.000 HD
ENDBRANCH   1  14
TORSDOF 2
ENDMDL
MODEL 7
REMARK VINA RESULT:      -6.0      3.947      5.445
REMARK  Name = 
REMARK  2 active torsions:
REMARK  status: ('A' for Active; 'I' for Inactive)
REMARK    1  A    between atoms: N_1  and  C_2
REMARK    2  A    between atoms: C_5  and  C_6
REMARK                            x       y       z     vdW  Elec       q    Type
REMARK                         _______ _______ _______ _____ _____    ______ ____
ROOT
ATOM      1  C   UNL     1       2.492   2.625  18.766  0.00  0.00    +0.000 C 
ATOM      2  C   UNL     1       3.883   2.305  19.331  0.00  0.00    +0.000 C 
ATOM      3  O   UNL     1       4.733   3.446  19.246  0.00  0.00    +0.000 OA
ATOM      4  C   UNL     1       4.852   3.902  17.899  0.00  0.00    +0.000 C 
ATOM      5  O   UNL     1       3.588   4.275  17.353  0.00  0.00    +0.000 OA
ATOM      6  C   UNL     1       2.680   3.176  17.346  0.00  0.00    +0.000 C 
ENDROOT
BRANCH   4   7
ATOM      7  C   UNL     1       5.746   5.126  17.893  0.00  0.00    +0.000 A 
ATOM      8  C   UNL     1       6.915   5.166  18.668  0.00  0.00    +0.000 A 
ATOM      9  C   UNL     1       7.741   6.295  18.655  0.00  0.00    +0.000 A 
ATOM     10  C   UNL     1       7.404   7.392  17.863  0.00  0.00    +0.000 A 
ATOM     11 CL   UNL     1       8.424   8.777  17.846  0.00  0.00    +0.000 Cl
ATOM     12  C   UNL     1       6.250   7.372  17.086  0.00  0.00    +0.000 A 
ATOM     13  C   UNL     1       5.425   6.244  17.101  0.00  0.00    +0.000 A 
ENDBRANCH   4   7
BRANCH   1  14
ATOM     14  N   UNL     1       1.579   1.477  18.795  0.00  0.00    +0.000 NA
ATOM     15  H   UNL     1       1.526   1.057  17.866  0.00  0.00    +0.000 HD
ATOM     16  H   UNL     1       0.634   1.772  19.032  0.00  0.00    +0.000 HD
ENDBRANCH   1  14
TORSDOF 2
ENDMDL
MODEL 8
REMARK VINA RESULT:      -6.0      3.944      5.343
REMARK  Name = 
REMARK  2 active torsions:
REMARK  status: ('A' for Active; 'I' for Inactive)
REMARK    1  A    between atoms: N_1  and  C_2
REMARK    2  A    between atoms: C_5  and  C_6
REMARK                            x       y       z     vdW  Elec       q    Type
REMARK                         _______ _______ _______ _____ _____    ______ ____
ROOT
ATOM      1  C   UNL     1       2.455   2.594  18.814  0.00  0.00    +0.000 C 
ATOM      2  C   UNL     1       3.848   2.268  19.373  0.00  0.00    +0.000 C 
ATOM      3  O   UNL     1       4.705   3.403  19.276  0.00  0.00    +0.000 OA
ATOM      4  C   UNL     1       4.818   3.850  17.925  0.00  0.00    +0.000 C 
ATOM      5  O   UNL     1       3.554   4.228  17.384  0.00  0.00    +0.000 OA
ATOM      6  C   UNL     1       2.638   3.135  17.390  0.00  0.00    +0.000 C 
ENDROOT
BRANCH   4   7
ATOM      7  C   UNL     1       5.720   5.067  17.905  0.00  0.00    +0.000 A 
ATOM      8  C   UNL     1       5.397   6.189  17.126  0.00  0.00    +0.000 A 
ATOM      9  C   UNL     1       6.228   7.314  17.114  0.00  0.00    +0.000 A 
ATOM     10  C   UNL     1       7.390   7.325  17.885  0.00  0.00    +0.000 A 
ATOM     11 CL   UNL     1       8.410   8.711  17.871  0.00  0.00    +0.000 Cl
ATOM     12  C   UNL     1       7.729   6.223  18.664  0.00  0.00    +0.000 A 
ATOM     13  C   UNL     1       6.898   5.100  18.674  0.00  0.00    +0.000 A 
ENDBRANCH   4   7
BRANCH   1  14
ATOM     14  N   UNL     1       1.535   1.452  18.857  0.00  0.00    +0.000 NA
ATOM     15  H   UNL     1       0.833   1.605  19.583  0.00  0.00    +0.000 HD
ATOM     16  H   UNL     1       2.028   0.599  19.110  0.00  0.00    +0.000 HD
ENDBRANCH   1  14
TORSDOF 2
ENDMDL
MODEL 9
REMARK VINA RESULT:      -6.0      1.411      1.883
REMARK  Name = 
REMARK  2 active torsions:
REMARK  status: ('A' for Active; 'I' for Inactive)
REMARK    1  A    between atoms: N_1  and  C_2
REMARK    2  A    between atoms: C_5  and  C_6
REMARK                            x       y       z     vdW  Elec       q    Type
REMARK                         _______ _______ _______ _____ _____    ______ ____
ROOT
ATOM      1  C   UNL     1       6.781   5.265  14.957  0.00  0.00    +0.000 C 
ATOM      2  C   UNL     1       5.650   4.347  14.470  0.00  0.00    +0.000 C 
ATOM      3  O   UNL     1       4.662   4.188  15.485  0.00  0.00    +0.000 OA
ATOM      4  C   UNL     1       5.231   3.661  16.683  0.00  0.00    +0.000 C 
ATOM      5  O   UNL     1       6.244   4.517  17.210  0.00  0.00    +0.000 OA
ATOM      6  C   UNL     1       7.310   4.694  16.279  0.00  0.00    +0.000 C 
ENDROOT
BRANCH   4   7
ATOM      7  C   UNL     1       4.130   3.545  17.717  0.00  0.00    +0.000 A 
ATOM      8  C   UNL     1       2.791   3.781  17.371  0.00  0.00    +0.000 A 
ATOM      9  C   UNL     1       1.776   3.666  18.327  0.00  0.00    +0.000 A 
ATOM     10  C   UNL     1       2.095   3.312  19.637  0.00  0.00    +0.000 A 
ATOM     11 CL   UNL     1       0.844   3.168  20.811  0.00  0.00    +0.000 Cl
ATOM     12  C   UNL     1       3.417   3.073  20.001  0.00  0.00    +0.000 A 
ATOM     13  C   UNL     1       4.429   3.189  19.045  0.00  0.00    +0.000 A 
ENDBRANCH   4   7
BRANCH   1  14
ATOM     14  N   UNL     1       7.848   5.442  13.966  0.00  0.00    +0.000 NA
ATOM     15  H   UNL     1       7.875   6.416  13.661  0.00  0.00    +0.000 HD
ATOM     16  H   UNL     1       7.664   4.885  13.133  0.00  0.00    +0.000 HD
ENDBRANCH   1  14
TORSDOF 2
ENDMDL
