MODEL 1
REMARK VINA RESULT:      -6.9      0.000      0.000
REMARK  Name = 
REMARK  6 active torsions:
REMARK  status: ('A' for Active; 'I' for Inactive)
REMARK    1  A    between atoms: C_1  and  C_2
REMARK    2  A    between atoms: C_2  and  O_3
REMARK    3  A    between atoms: O_3  and  C_4
REMARK    4  A    between atoms: C_4  and  C_6
REMARK    5  A    between atoms: C_7  and  N_8
REMARK    6  A    between atoms: C_9  and  C_11
REMARK                            x       y       z     vdW  Elec       q    Type
REMARK                         _______ _______ _______ _____ _____    ______ ____
ROOT
ATOM      1  C   UNL     1       3.738   5.051  17.920  0.00  0.00    +0.000 A 
ATOM      2  C   UNL     1       4.039   4.055  16.993  0.00  0.00    +0.000 A 
ATOM      3  S   UNL     1       3.380   2.551  17.413  0.00  0.00    +0.000 S 
ATOM      4  C   UNL     1       2.689   3.164  18.831  0.00  0.00    +0.000 A 
ATOM      5  C   UNL     1       2.942   4.512  19.010  0.00  0.00    +0.000 A 
ATOM      6  C   UNL     1       2.406   5.241  20.215  0.00  0.00    +0.000 C 
ATOM      7  C   UNL     1       1.989   4.278  21.336  0.00  0.00    +0.000 C 
ATOM      8  C   UNL     1       1.156   3.111  20.800  0.00  0.00    +0.000 C 
ATOM      9  C   UNL     1       1.940   2.278  19.777  0.00  0.00    +0.000 C 
ENDROOT
BRANCH   2  10
ATOM     10  N   UNL     1       4.794   4.212  15.841  0.00  0.00    +0.000 N 
ATOM     11  C   UNL     1       6.172   4.162  15.695  0.00  0.00    +0.000 C 
ATOM     12  O   UNL     1       6.976   3.973  16.603  0.00  0.00    +0.000 OA
ATOM     13  H   UNL     1       4.260   4.415  14.995  0.00  0.00    +0.000 HD
BRANCH  11  14
ATOM     14  C   UNL     1       6.636   4.363  14.319  0.00  0.00    +0.000 A 
ATOM     15  C   UNL     1       7.591   5.272  13.897  0.00  0.00    +0.000 A 
ATOM     16  C   UNL     1       7.826   5.217  12.492  0.00  0.00    +0.000 A 
ATOM     17  C   UNL     1       7.039   4.270  11.881  0.00  0.00    +0.000 A 
ATOM     18  S   UNL     1       6.029   3.460  12.992  0.00  0.00    +0.000 S 
ENDBRANCH  11  14
ENDBRANCH   2  10
BRANCH   1  19
ATOM     19  C   UNL     1       4.253   6.416  17.774  0.00  0.00    +0.000 C 
ATOM     20  O   UNL     1       3.570   7.344  17.348  0.00  0.00    +0.000 OA
BRANCH  19  21
ATOM     21  O   UNL     1       5.581   6.517  18.055  0.00  0.00    +0.000 OA
BRANCH  21  23
ATOM     22  C   UNL     1       7.760   7.446  17.733  0.00  0.00    +0.000 C 
ATOM     23  C   UNL     1       6.335   7.391  17.206  0.00  0.00    +0.000 C 
ENDBRANCH  21  23
ENDBRANCH  19  21
ENDBRANCH   1  19
TORSDOF 5
ENDMDL
MODEL 2
REMARK VINA RESULT:      -6.7      1.094      1.791
REMARK  Name = 
REMARK  6 active torsions:
REMARK  status: ('A' for Active; 'I' for Inactive)
REMARK    1  A    between atoms: C_1  and  C_2
REMARK    2  A    between atoms: C_2  and  O_3
REMARK    3  A    between atoms: O_3  and  C_4
REMARK    4  A    between atoms: C_4  and  C_6
REMARK    5  A    between atoms: C_7  and  N_8
REMARK    6  A    between atoms: C_9  and  C_11
REMARK                            x       y       z     vdW  Elec       q    Type
REMARK                         _______ _______ _______ _____ _____    ______ ____
ROOT
ATOM      1  C   UNL     1       3.535   5.078  17.856  0.00  0.00    +0.000 A 
ATOM      2  C   UNL     1       4.044   4.051  17.064  0.00  0.00    +0.000 A 
ATOM      3  S   UNL     1       3.656   2.513  17.659  0.00  0.00    +0.000 S 
ATOM      4  C   UNL     1       2.814   3.153  18.979  0.00  0.00    +0.000 A 
ATOM      5  C   UNL     1       2.811   4.536  18.993  0.00  0.00    +0.000 A 
ATOM      6  C   UNL     1       2.108   5.291  20.091  0.00  0.00    +0.000 C 
ATOM      7  C   UNL     1       1.833   4.409  21.318  0.00  0.00    +0.000 C 
ATOM      8  C   UNL     1       1.247   3.052  20.919  0.00  0.00    +0.000 C 
ATOM      9  C   UNL     1       2.206   2.263  20.019  0.00  0.00    +0.000 C 
ENDROOT
BRANCH   2  10
ATOM     10  N   UNL     1       4.800   4.206  15.911  0.00  0.00    +0.000 N 
ATOM     11  C   UNL     1       6.177   4.309  15.785  0.00  0.00    +0.000 C 
ATOM     12  O   UNL     1       6.978   4.287  16.714  0.00  0.00    +0.000 OA
ATOM     13  H   UNL     1       4.263   4.278  15.046  0.00  0.00    +0.000 HD
BRANCH  11  14
ATOM     14  C   UNL     1       6.642   4.456  14.402  0.00  0.00    +0.000 A 
ATOM     15  C   UNL     1       7.615   5.330  13.950  0.00  0.00    +0.000 A 
ATOM     16  C   UNL     1       7.846   5.225  12.547  0.00  0.00    +0.000 A 
ATOM     17  C   UNL     1       7.038   4.275  11.969  0.00  0.00    +0.000 A 
ATOM     18  S   UNL     1       6.013   3.523  13.106  0.00  0.00    +0.000 S 
ENDBRANCH  11  14
ENDBRANCH   2  10
BRANCH   1  19
ATOM     19  C   UNL     1       3.797   6.488  17.547  0.00  0.00    +0.000 C 
ATOM     20  O   UNL     1       4.931   6.954  17.474  0.00  0.00    +0.000 OA
BRANCH  19  21
ATOM     21  O   UNL     1       2.662   7.233  17.459  0.00  0.00    +0.000 OA
BRANCH  21  23
ATOM     22  C   UNL     1       1.387   9.183  17.997  0.00  0.00    +0.000 C 
ATOM     23  C   UNL     1       2.786   8.608  17.840  0.00  0.00    +0.000 C 
ENDBRANCH  21  23
ENDBRANCH  19  21
ENDBRANCH   1  19
TORSDOF 5
ENDMDL
MODEL 3
REMARK VINA RESULT:      -6.6      4.087      7.868
REMARK  Name = 
REMARK  6 active torsions:
REMARK  status: ('A' for Active; 'I' for Inactive)
REMARK    1  A    between atoms: C_1  and  C_2
REMARK    2  A    between atoms: C_2  and  O_3
REMARK    3  A    between atoms: O_3  and  C_4
REMARK    4  A    between atoms: C_4  and  C_6
REMARK    5  A    between atoms: C_7  and  N_8
REMARK    6  A    between atoms: C_9  and  C_11
REMARK                            x       y       z     vdW  Elec       q    Type
REMARK                         _______ _______ _______ _____ _____    ______ ____
ROOT
ATOM      1  C   UNL     1       2.772   5.737  18.782  0.00  0.00    +0.000 A 
ATOM      2  C   UNL     1       2.715   7.126  18.878  0.00  0.00    +0.000 A 
ATOM      3  S   UNL     1       3.672   7.902  17.714  0.00  0.00    +0.000 S 
ATOM      4  C   UNL     1       4.195   6.434  17.055  0.00  0.00    +0.000 A 
ATOM      5  C   UNL     1       3.657   5.335  17.701  0.00  0.00    +0.000 A 
ATOM      6  C   UNL     1       4.001   3.938  17.256  0.00  0.00    +0.000 C 
ATOM      7  C   UNL     1       5.268   3.902  16.388  0.00  0.00    +0.000 C 
ATOM      8  C   UNL     1       5.248   4.991  15.313  0.00  0.00    +0.000 C 
ATOM      9  C   UNL     1       5.179   6.395  15.928  0.00  0.00    +0.000 C 
ENDROOT
BRANCH   2  10
ATOM     10  N   UNL     1       1.983   7.851  19.807  0.00  0.00    +0.000 N 
ATOM     11  C   UNL     1       1.171   8.955  19.599  0.00  0.00    +0.000 C 
ATOM     12  O   UNL     1       0.969   9.493  18.514  0.00  0.00    +0.000 OA
ATOM     13  H   UNL     1       2.080   7.540  20.775  0.00  0.00    +0.000 HD
BRANCH  11  14
ATOM     14  C   UNL     1       0.536   9.469  20.816  0.00  0.00    +0.000 A 
ATOM     15  C   UNL     1       0.621   8.920  22.084  0.00  0.00    +0.000 A 
ATOM     16  C   UNL     1      -0.105   9.663  23.060  0.00  0.00    +0.000 A 
ATOM     17  C   UNL     1      -0.727  10.758  22.506  0.00  0.00    +0.000 A 
ATOM     18  S   UNL     1      -0.438  10.882  20.829  0.00  0.00    +0.000 S 
ENDBRANCH  11  14
ENDBRANCH   2  10
BRANCH   1  19
ATOM     19  C   UNL     1       2.058   4.872  19.726  0.00  0.00    +0.000 C 
ATOM     20  O   UNL     1       2.345   4.806  20.918  0.00  0.00    +0.000 OA
BRANCH  19  21
ATOM     21  O   UNL     1       1.126   4.083  19.124  0.00  0.00    +0.000 OA
BRANCH  21  23
ATOM     22  C   UNL     1       1.890   1.818  19.131  0.00  0.00    +0.000 C 
ATOM     23  C   UNL     1       0.903   2.805  19.732  0.00  0.00    +0.000 C 
ENDBRANCH  21  23
ENDBRANCH  19  21
ENDBRANCH   1  19
TORSDOF 5
ENDMDL
MODEL 4
REMARK VINA RESULT:      -6.6      3.651      7.365
REMARK  Name = 
REMARK  6 active torsions:
REMARK  status: ('A' for Active; 'I' for Inactive)
REMARK    1  A    between atoms: C_1  and  C_2
REMARK    2  A    between atoms: C_2  and  O_3
REMARK    3  A    between atoms: O_3  and  C_4
REMARK    4  A    between atoms: C_4  and  C_6
REMARK    5  A    between atoms: C_7  and  N_8
REMARK    6  A    between atoms: C_9  and  C_11
REMARK                            x       y       z     vdW  Elec       q    Type
REMARK                         _______ _______ _______ _____ _____    ______ ____
ROOT
ATOM      1  C   UNL     1       3.124   5.430  17.764  0.00  0.00    +0.000 A 
ATOM      2  C   UNL     1       3.325   6.769  18.095  0.00  0.00    +0.000 A 
ATOM      3  S   UNL     1       4.752   7.399  17.434  0.00  0.00    +0.000 S 
ATOM      4  C   UNL     1       5.152   5.927  16.701  0.00  0.00    +0.000 A 
ATOM      5  C   UNL     1       4.216   4.937  16.941  0.00  0.00    +0.000 A 
ATOM      6  C   UNL     1       4.395   3.556  16.369  0.00  0.00    +0.000 C 
ATOM      7  C   UNL     1       5.843   3.294  15.927  0.00  0.00    +0.000 C 
ATOM      8  C   UNL     1       6.406   4.463  15.116  0.00  0.00    +0.000 C 
ATOM      9  C   UNL     1       6.426   5.763  15.931  0.00  0.00    +0.000 C 
ENDROOT
BRANCH   2  10
ATOM     10  N   UNL     1       2.490   7.550  18.881  0.00  0.00    +0.000 N 
ATOM     11  C   UNL     1       1.832   8.723  18.544  0.00  0.00    +0.000 C 
ATOM     12  O   UNL     1       1.893   9.284  17.454  0.00  0.00    +0.000 OA
ATOM     13  H   UNL     1       2.369   7.226  19.841  0.00  0.00    +0.000 HD
BRANCH  11  14
ATOM     14  C   UNL     1       1.018   9.284  19.627  0.00  0.00    +0.000 A 
ATOM     15  C   UNL     1       0.873   8.764  20.902  0.00  0.00    +0.000 A 
ATOM     16  C   UNL     1       0.016   9.550  21.727  0.00  0.00    +0.000 A 
ATOM     17  C   UNL     1      -0.471  10.647  21.055  0.00  0.00    +0.000 A 
ATOM     18  S   UNL     1       0.099  10.722  19.448  0.00  0.00    +0.000 S 
ENDBRANCH  11  14
ENDBRANCH   2  10
BRANCH   1  19
ATOM     19  C   UNL     1       1.974   4.677  18.276  0.00  0.00    +0.000 C 
ATOM     20  O   UNL     1       1.190   4.079  17.544  0.00  0.00    +0.000 OA
BRANCH  19  21
ATOM     21  O   UNL     1       1.813   4.801  19.622  0.00  0.00    +0.000 OA
BRANCH  21  23
ATOM     22  C   UNL     1       1.652   3.088  21.282  0.00  0.00    +0.000 C 
ATOM     23  C   UNL     1       0.897   3.882  20.228  0.00  0.00    +0.000 C 
ENDBRANCH  21  23
ENDBRANCH  19  21
ENDBRANCH   1  19
TORSDOF 5
ENDMDL
MODEL 5
REMARK VINA RESULT:      -6.5      3.960      7.680
REMARK  Name = 
REMARK  6 active torsions:
REMARK  status: ('A' for Active; 'I' for Inactive)
REMARK    1  A    between atoms: C_1  and  C_2
REMARK    2  A    between atoms: C_2  and  O_3
REMARK    3  A    between atoms: O_3  and  C_4
REMARK    4  A    between atoms: C_4  and  C_6
REMARK    5  A    between atoms: C_7  and  N_8
REMARK    6  A    between atoms: C_9  and  C_11
REMARK                            x       y       z     vdW  Elec       q    Type
REMARK                         _______ _______ _______ _____ _____    ______ ____
ROOT
ATOM      1  C   UNL     1       2.812   5.549  18.563  0.00  0.00    +0.000 A 
ATOM      2  C   UNL     1       2.828   6.934  18.713  0.00  0.00    +0.000 A 
ATOM      3  S   UNL     1       3.887   7.697  17.633  0.00  0.00    +0.000 S 
ATOM      4  C   UNL     1       4.362   6.227  16.942  0.00  0.00    +0.000 A 
ATOM      5  C   UNL     1       3.730   5.138  17.513  0.00  0.00    +0.000 A 
ATOM      6  C   UNL     1       4.019   3.741  17.030  0.00  0.00    +0.000 C 
ATOM      7  C   UNL     1       5.326   3.664  16.228  0.00  0.00    +0.000 C 
ATOM      8  C   UNL     1       5.425   4.793  15.198  0.00  0.00    +0.000 C 
ATOM      9  C   UNL     1       5.402   6.174  15.866  0.00  0.00    +0.000 C 
ENDROOT
BRANCH   2  10
ATOM     10  N   UNL     1       2.089   7.665  19.632  0.00  0.00    +0.000 N 
ATOM     11  C   UNL     1       1.315   8.795  19.418  0.00  0.00    +0.000 C 
ATOM     12  O   UNL     1       1.163   9.357  18.338  0.00  0.00    +0.000 OA
ATOM     13  H   UNL     1       2.146   7.336  20.596  0.00  0.00    +0.000 HD
BRANCH  11  14
ATOM     14  C   UNL     1       0.658   9.308  20.624  0.00  0.00    +0.000 A 
ATOM     15  C   UNL     1       0.454   8.617  21.807  0.00  0.00    +0.000 A 
ATOM     16  C   UNL     1      -0.209   9.399  22.798  0.00  0.00    +0.000 A 
ATOM     17  C   UNL     1      -0.495  10.664  22.340  0.00  0.00    +0.000 A 
ATOM     18  S   UNL     1       0.030  10.901  20.734  0.00  0.00    +0.000 S 
ENDBRANCH  11  14
ENDBRANCH   2  10
BRANCH   1  19
ATOM     19  C   UNL     1       2.000   4.692  19.433  0.00  0.00    +0.000 C 
ATOM     20  O   UNL     1       1.060   4.020  19.017  0.00  0.00    +0.000 OA
BRANCH  19  21
ATOM     21  O   UNL     1       2.331   4.804  20.749  0.00  0.00    +0.000 OA
BRANCH  21  23
ATOM     22  C   UNL     1       3.072   2.573  21.183  0.00  0.00    +0.000 C 
ATOM     23  C   UNL     1       2.069   3.652  21.559  0.00  0.00    +0.000 C 
ENDBRANCH  21  23
ENDBRANCH  19  21
ENDBRANCH   1  19
TORSDOF 5
ENDMDL
MODEL 6
REMARK VINA RESULT:      -6.4      3.268      4.961
REMARK  Name = 
REMARK  6 active torsions:
REMARK  status: ('A' for Active; 'I' for Inactive)
REMARK    1  A    between atoms: C_1  and  C_2
REMARK    2  A    between atoms: C_2  and  O_3
REMARK    3  A    between atoms: O_3  and  C_4
REMARK    4  A    between atoms: C_4  and  C_6
REMARK    5  A    between atoms: C_7  and  N_8
REMARK    6  A    between atoms: C_9  and  C_11
REMARK                            x       y       z     vdW  Elec       q    Type
REMARK                         _______ _______ _______ _____ _____    ______ ____
ROOT
ATOM      1  C   UNL     1       2.266   7.003  19.624  0.00  0.00    +0.000 A 
ATOM      2  C   UNL     1       2.686   7.323  18.335  0.00  0.00    +0.000 A 
ATOM      3  S   UNL     1       2.191   8.870  17.851  0.00  0.00    +0.000 S 
ATOM      4  C   UNL     1       1.402   9.159  19.320  0.00  0.00    +0.000 A 
ATOM      5  C   UNL     1       1.499   8.096  20.199  0.00  0.00    +0.000 A 
ATOM      6  C   UNL     1       0.863   8.165  21.562  0.00  0.00    +0.000 C 
ATOM      7  C   UNL     1      -0.200   9.270  21.650  0.00  0.00    +0.000 C 
ATOM      8  C   UNL     1       0.300  10.585  21.046  0.00  0.00    +0.000 C 
ATOM      9  C   UNL     1       0.648  10.431  19.560  0.00  0.00    +0.000 C 
ENDROOT
BRANCH   2  10
ATOM     10  N   UNL     1       3.423   6.507  17.489  0.00  0.00    +0.000 N 
ATOM     11  C   UNL     1       4.769   6.582  17.169  0.00  0.00    +0.000 C 
ATOM     12  O   UNL     1       5.555   7.424  17.595  0.00  0.00    +0.000 OA
ATOM     13  H   UNL     1       2.891   5.770  17.024  0.00  0.00    +0.000 HD
BRANCH  11  14
ATOM     14  C   UNL     1       5.223   5.542  16.240  0.00  0.00    +0.000 A 
ATOM     15  C   UNL     1       5.598   5.725  14.920  0.00  0.00    +0.000 A 
ATOM     16  C   UNL     1       5.998   4.513  14.285  0.00  0.00    +0.000 A 
ATOM     17  C   UNL     1       5.912   3.439  15.139  0.00  0.00    +0.000 A 
ATOM     18  S   UNL     1       5.354   3.890  16.686  0.00  0.00    +0.000 S 
ENDBRANCH  11  14
ENDBRANCH   2  10
BRANCH   1  19
ATOM     19  C   UNL     1       2.545   5.692  20.219  0.00  0.00    +0.000 C 
ATOM     20  O   UNL     1       3.630   5.128  20.110  0.00  0.00    +0.000 OA
BRANCH  19  21
ATOM     21  O   UNL     1       1.452   5.130  20.804  0.00  0.00    +0.000 OA
BRANCH  21  23
ATOM     22  C   UNL     1       1.343   2.802  21.338  0.00  0.00    +0.000 C 
ATOM     23  C   UNL     1       1.050   3.857  20.284  0.00  0.00    +0.000 C 
ENDBRANCH  21  23
ENDBRANCH  19  21
ENDBRANCH   1  19
TORSDOF 5
ENDMDL
MODEL 7
REMARK VINA RESULT:      -6.0      1.424      6.525
REMARK  Name = 
REMARK  6 active torsions:
REMARK  status: ('A' for Active; 'I' for Inactive)
REMARK    1  A    between atoms: C_1  and  C_2
REMARK    2  A    between atoms: C_2  and  O_3
REMARK    3  A    between atoms: O_3  and  C_4
REMARK    4  A    between atoms: C_4  and  C_6
REMARK    5  A    between atoms: C_7  and  N_8
REMARK    6  A    between atoms: C_9  and  C_11
REMARK                            x       y       z     vdW  Elec       q    Type
REMARK                         _______ _______ _______ _____ _____    ______ ____
ROOT
ATOM      1  C   UNL     1       6.550   4.509  16.170  0.00  0.00    +0.000 A 
ATOM      2  C   UNL     1       5.306   3.908  16.349  0.00  0.00    +0.000 A 
ATOM      3  S   UNL     1       4.596   3.428  14.887  0.00  0.00    +0.000 S 
ATOM      4  C   UNL     1       5.900   4.005  13.976  0.00  0.00    +0.000 A 
ATOM      5  C   UNL     1       6.892   4.567  14.759  0.00  0.00    +0.000 A 
ATOM      6  C   UNL     1       8.138   5.134  14.129  0.00  0.00    +0.000 C 
ATOM      7  C   UNL     1       7.958   5.403  12.628  0.00  0.00    +0.000 C 
ATOM      8  C   UNL     1       7.293   4.221  11.917  0.00  0.00    +0.000 C 
ATOM      9  C   UNL     1       5.896   3.933  12.481  0.00  0.00    +0.000 C 
ENDROOT
BRANCH   2  10
ATOM     10  N   UNL     1       4.663   3.705  17.561  0.00  0.00    +0.000 N 
ATOM     11  C   UNL     1       3.755   4.528  18.209  0.00  0.00    +0.000 C 
ATOM     12  O   UNL     1       3.367   5.618  17.799  0.00  0.00    +0.000 OA
ATOM     13  H   UNL     1       4.915   2.844  18.047  0.00  0.00    +0.000 HD
BRANCH  11  14
ATOM     14  C   UNL     1       3.263   3.992  19.481  0.00  0.00    +0.000 A 
ATOM     15  C   UNL     1       2.359   4.599  20.336  0.00  0.00    +0.000 A 
ATOM     16  C   UNL     1       2.076   3.815  21.492  0.00  0.00    +0.000 A 
ATOM     17  C   UNL     1       2.777   2.632  21.488  0.00  0.00    +0.000 A 
ATOM     18  S   UNL     1       3.764   2.474  20.106  0.00  0.00    +0.000 S 
ENDBRANCH  11  14
ENDBRANCH   2  10
BRANCH   1  19
ATOM     19  C   UNL     1       7.314   5.044  17.302  0.00  0.00    +0.000 C 
ATOM     20  O   UNL     1       8.174   4.395  17.891  0.00  0.00    +0.000 OA
BRANCH  19  21
ATOM     21  O   UNL     1       6.897   6.280  17.690  0.00  0.00    +0.000 OA
BRANCH  21  23
ATOM     22  C   UNL     1       7.869   8.463  17.637  0.00  0.00    +0.000 C 
ATOM     23  C   UNL     1       7.885   7.104  18.318  0.00  0.00    +0.000 C 
ENDBRANCH  21  23
ENDBRANCH  19  21
ENDBRANCH   1  19
TORSDOF 5
ENDMDL
MODEL 8
REMARK VINA RESULT:      -6.0      7.781     10.900
REMARK  Name = 
REMARK  6 active torsions:
REMARK  status: ('A' for Active; 'I' for Inactive)
REMARK    1  A    between atoms: C_1  and  C_2
REMARK    2  A    between atoms: C_2  and  O_3
REMARK    3  A    between atoms: O_3  and  C_4
REMARK    4  A    between atoms: C_4  and  C_6
REMARK    5  A    between atoms: C_7  and  N_8
REMARK    6  A    between atoms: C_9  and  C_11
REMARK                            x       y       z     vdW  Elec       q    Type
REMARK                         _______ _______ _______ _____ _____    ______ ____
ROOT
ATOM      1  C   UNL     1       0.149  10.443  19.738  0.00  0.00    +0.000 A 
ATOM      2  C   UNL     1      -0.133  10.258  21.090  0.00  0.00    +0.000 A 
ATOM      3  S   UNL     1       0.624   8.886  21.735  0.00  0.00    +0.000 S 
ATOM      4  C   UNL     1       1.339   8.491  20.253  0.00  0.00    +0.000 A 
ATOM      5  C   UNL     1       1.019   9.386  19.248  0.00  0.00    +0.000 A 
ATOM      6  C   UNL     1       1.564   9.204  17.856  0.00  0.00    +0.000 C 
ATOM      7  C   UNL     1       2.079   7.778  17.616  0.00  0.00    +0.000 C 
ATOM      8  C   UNL     1       2.952   7.290  18.775  0.00  0.00    +0.000 C 
ATOM      9  C   UNL     1       2.174   7.258  20.097  0.00  0.00    +0.000 C 
ENDROOT
BRANCH   2  10
ATOM     10  N   UNL     1      -0.944  11.067  21.873  0.00  0.00    +0.000 N 
ATOM     11  C   UNL     1      -0.699  12.351  22.335  0.00  0.00    +0.000 C 
ATOM     12  O   UNL     1       0.322  12.999  22.122  0.00  0.00    +0.000 OA
ATOM     13  H   UNL     1      -1.826  10.645  22.165  0.00  0.00    +0.000 HD
BRANCH  11  14
ATOM     14  C   UNL     1      -1.788  12.916  23.137  0.00  0.00    +0.000 A 
ATOM     15  C   UNL     1      -3.002  12.314  23.416  0.00  0.00    +0.000 A 
ATOM     16  C   UNL     1      -3.846  13.121  24.234  0.00  0.00    +0.000 A 
ATOM     17  C   UNL     1      -3.251  14.320  24.552  0.00  0.00    +0.000 A 
ATOM     18  S   UNL     1      -1.695  14.466  23.869  0.00  0.00    +0.000 S 
ENDBRANCH  11  14
ENDBRANCH   2  10
BRANCH   1  19
ATOM     19  C   UNL     1      -0.446  11.543  18.973  0.00  0.00    +0.000 C 
ATOM     20  O   UNL     1       0.196  12.525  18.608  0.00  0.00    +0.000 OA
BRANCH  19  21
ATOM     21  O   UNL     1      -1.790  11.409  18.806  0.00  0.00    +0.000 OA
BRANCH  21  23
ATOM     22  C   UNL     1      -2.109  10.061  16.858  0.00  0.00    +0.000 C 
ATOM     23  C   UNL     1      -2.260  11.451  17.454  0.00  0.00    +0.000 C 
ENDBRANCH  21  23
ENDBRANCH  19  21
ENDBRANCH   1  19
TORSDOF 5
ENDMDL
MODEL 9
REMARK VINA RESULT:      -6.0      4.207      7.797
REMARK  Name = 
REMARK  6 active torsions:
REMARK  status: ('A' for Active; 'I' for Inactive)
REMARK    1  A    between atoms: C_1  and  C_2
REMARK    2  A    between atoms: C_2  and  O_3
REMARK    3  A    between atoms: O_3  and  C_4
REMARK    4  A    between atoms: C_4  and  C_6
REMARK    5  A    between atoms: C_7  and  N_8
REMARK    6  A    between atoms: C_9  and  C_11
REMARK                            x       y       z     vdW  Elec       q    Type
REMARK                         _______ _______ _______ _____ _____    ______ ____
ROOT
ATOM      1  C   UNL     1       2.632   5.915  18.860  0.00  0.00    +0.000 A 
ATOM      2  C   UNL     1       2.628   7.307  18.803  0.00  0.00    +0.000 A 
ATOM      3  S   UNL     1       3.643   7.913  17.588  0.00  0.00    +0.000 S 
ATOM      4  C   UNL     1       4.122   6.363  17.109  0.00  0.00    +0.000 A 
ATOM      5  C   UNL     1       3.525   5.363  17.855  0.00  0.00    +0.000 A 
ATOM      6  C   UNL     1       3.824   3.913  17.576  0.00  0.00    +0.000 C 
ATOM      7  C   UNL     1       5.109   3.734  16.754  0.00  0.00    +0.000 C 
ATOM      8  C   UNL     1       5.159   4.698  15.565  0.00  0.00    +0.000 C 
ATOM      9  C   UNL     1       5.131   6.162  16.021  0.00  0.00    +0.000 C 
ENDROOT
BRANCH   2  10
ATOM     10  N   UNL     1       1.904   8.157  19.625  0.00  0.00    +0.000 N 
ATOM     11  C   UNL     1       1.062   9.198  19.268  0.00  0.00    +0.000 C 
ATOM     12  O   UNL     1       0.821   9.553  18.118  0.00  0.00    +0.000 OA
ATOM     13  H   UNL     1       2.032   8.006  20.627  0.00  0.00    +0.000 HD
BRANCH  11  14
ATOM     14  C   UNL     1       0.446   9.888  20.405  0.00  0.00    +0.000 A 
ATOM     15  C   UNL     1       0.060  11.217  20.451  0.00  0.00    +0.000 A 
ATOM     16  C   UNL     1      -0.517  11.583  21.702  0.00  0.00    +0.000 A 
ATOM     17  C   UNL     1      -0.549  10.523  22.577  0.00  0.00    +0.000 A 
ATOM     18  S   UNL     1       0.110   9.105  21.895  0.00  0.00    +0.000 S 
ENDBRANCH  11  14
ENDBRANCH   2  10
BRANCH   1  19
ATOM     19  C   UNL     1       1.861   5.186  19.873  0.00  0.00    +0.000 C 
ATOM     20  O   UNL     1       1.487   5.701  20.924  0.00  0.00    +0.000 OA
BRANCH  19  21
ATOM     21  O   UNL     1       1.699   3.869  19.573  0.00  0.00    +0.000 OA
BRANCH  21  23
ATOM     22  C   UNL     1       2.444   2.614  21.467  0.00  0.00    +0.000 C 
ATOM     23  C   UNL     1       1.238   3.036  20.644  0.00  0.00    +0.000 C 
ENDBRANCH  21  23
ENDBRANCH  19  21
ENDBRANCH   1  19
TORSDOF 5
ENDMDL
