MODEL 1
REMARK VINA RESULT:      -6.5      0.000      0.000
REMARK  Name = 
REMARK  6 active torsions:
REMARK  status: ('A' for Active; 'I' for Inactive)
REMARK    1  A    between atoms: C_1  and  C_2
REMARK    2  A    between atoms: C_2  and  O_3
REMARK    3  A    between atoms: O_3  and  C_4
REMARK    4  A    between atoms: C_7  and  C_8
REMARK    5  A    between atoms: C_10  and  N_11
REMARK    6  A    between atoms: C_21  and  N_22
REMARK                            x       y       z     vdW  Elec       q    Type
REMARK                         _______ _______ _______ _____ _____    ______ ____
ROOT
ATOM      1  C   UNL     1       5.559   4.367  14.470  0.00  0.00    +0.000 A 
ATOM      2  C   UNL     1       4.643   4.031  15.442  0.00  0.00    +0.000 A 
ATOM      3  C   UNL     1       4.851   4.438  16.771  0.00  0.00    +0.000 A 
ATOM      4  C   UNL     1       3.957   4.091  17.814  0.00  0.00    +0.000 A 
ATOM      5  C   UNL     1       4.235   4.449  19.140  0.00  0.00    +0.000 A 
ATOM      6  N   UNL     1       5.310   5.227  19.409  0.00  0.00    +0.000 NA
ATOM      7  C   UNL     1       6.145   5.600  18.412  0.00  0.00    +0.000 A 
ATOM      8  N   UNL     1       7.248   6.351  18.839  0.00  0.00    +0.000 N 
ATOM      9  C   UNL     1       5.989   5.212  17.060  0.00  0.00    +0.000 A 
ATOM     10  C   UNL     1       6.847   5.528  15.966  0.00  0.00    +0.000 A 
ATOM     11  N   UNL     1       6.650   5.111  14.696  0.00  0.00    +0.000 NA
ATOM     12  H   UNL     1       7.101   6.579  19.819  0.00  0.00    +0.000 HD
ATOM     13  H   UNL     1       7.355   7.181  18.257  0.00  0.00    +0.000 HD
ENDROOT
BRANCH   5  14
ATOM     14  N   UNL     1       3.493   4.020  20.220  0.00  0.00    +0.000 N 
ATOM     15  C   UNL     1       3.739   2.708  20.835  0.00  0.00    +0.000 C 
ATOM     16  C   UNL     1       2.420   1.948  21.060  0.00  0.00    +0.000 C 
ATOM     17  O   UNL     1       1.445   2.744  21.751  0.00  0.00    +0.000 OA
ATOM     18  C   UNL     1       1.153   3.924  20.993  0.00  0.00    +0.000 C 
ATOM     19  C   UNL     1       2.400   4.796  20.821  0.00  0.00    +0.000 C 
ENDBRANCH   5  14
BRANCH  10  20
ATOM     20  N   UNL     1       7.958   6.368  16.117  0.00  0.00    +0.000 N 
ATOM     21  H   UNL     1       8.782   5.935  15.705  0.00  0.00    +0.000 HD
ATOM     22  H   UNL     1       7.723   7.254  15.676  0.00  0.00    +0.000 HD
ENDBRANCH  10  20
BRANCH   4  23
ATOM     23  C   UNL     1       2.735   3.420  17.476  0.00  0.00    +0.000 C 
ATOM     24  N   UNL     1       1.720   2.907  17.228  0.00  0.00    +0.000 NA
ENDBRANCH   4  23
BRANCH   1  25
ATOM     25  O   UNL     1       5.238   3.959  13.194  0.00  0.00    +0.000 OA
BRANCH  25  27
ATOM     26  C   UNL     1       5.885   2.310  11.631  0.00  0.00    +0.000 C 
ATOM     27  C   UNL     1       6.360   3.502  12.445  0.00  0.00    +0.000 C 
ENDBRANCH  25  27
ENDBRANCH   1  25
TORSDOF 5
ENDMDL
MODEL 2
REMARK VINA RESULT:      -6.5      2.381      7.012
REMARK  Name = 
REMARK  6 active torsions:
REMARK  status: ('A' for Active; 'I' for Inactive)
REMARK    1  A    between atoms: C_1  and  C_2
REMARK    2  A    between atoms: C_2  and  O_3
REMARK    3  A    between atoms: O_3  and  C_4
REMARK    4  A    between atoms: C_7  and  C_8
REMARK    5  A    between atoms: C_10  and  N_11
REMARK    6  A    between atoms: C_21  and  N_22
REMARK                            x       y       z     vdW  Elec       q    Type
REMARK                         _______ _______ _______ _____ _____    ______ ____
ROOT
ATOM      1  C   UNL     1       1.601   6.014  20.514  0.00  0.00    +0.000 A 
ATOM      2  C   UNL     1       2.563   6.189  19.544  0.00  0.00    +0.000 A 
ATOM      3  C   UNL     1       3.028   5.084  18.811  0.00  0.00    +0.000 A 
ATOM      4  C   UNL     1       4.040   5.204  17.827  0.00  0.00    +0.000 A 
ATOM      5  C   UNL     1       4.534   4.069  17.169  0.00  0.00    +0.000 A 
ATOM      6  N   UNL     1       3.962   2.864  17.399  0.00  0.00    +0.000 NA
ATOM      7  C   UNL     1       2.966   2.747  18.306  0.00  0.00    +0.000 A 
ATOM      8  N   UNL     1       2.508   1.436  18.488  0.00  0.00    +0.000 N 
ATOM      9  C   UNL     1       2.465   3.823  19.078  0.00  0.00    +0.000 A 
ATOM     10  C   UNL     1       1.451   3.770  20.078  0.00  0.00    +0.000 A 
ATOM     11  N   UNL     1       1.028   4.835  20.793  0.00  0.00    +0.000 NA
ATOM     12  H   UNL     1       2.943   0.858  17.774  0.00  0.00    +0.000 HD
ATOM     13  H   UNL     1       1.490   1.409  18.446  0.00  0.00    +0.000 HD
ENDROOT
BRANCH   5  14
ATOM     14  N   UNL     1       5.615   4.092  16.313  0.00  0.00    +0.000 N 
ATOM     15  C   UNL     1       6.973   4.348  16.814  0.00  0.00    +0.000 C 
ATOM     16  C   UNL     1       7.694   5.391  15.943  0.00  0.00    +0.000 C 
ATOM     17  O   UNL     1       7.638   5.065  14.545  0.00  0.00    +0.000 OA
ATOM     18  C   UNL     1       6.274   4.997  14.115  0.00  0.00    +0.000 C 
ATOM     19  C   UNL     1       5.512   3.897  14.861  0.00  0.00    +0.000 C 
ENDBRANCH   5  14
BRANCH  10  20
ATOM     20  N   UNL     1       0.755   2.588  20.363  0.00  0.00    +0.000 N 
ATOM     21  H   UNL     1       0.664   2.470  21.370  0.00  0.00    +0.000 HD
ATOM     22  H   UNL     1      -0.147   2.655  19.897  0.00  0.00    +0.000 HD
ENDBRANCH  10  20
BRANCH   4  23
ATOM     23  C   UNL     1       4.504   6.516  17.475  0.00  0.00    +0.000 C 
ATOM     24  N   UNL     1       4.858   7.576  17.149  0.00  0.00    +0.000 NA
ENDBRANCH   4  23
BRANCH   1  25
ATOM     25  O   UNL     1       1.182   7.166  21.140  0.00  0.00    +0.000 OA
BRANCH  25  27
ATOM     26  C   UNL     1       0.518   9.411  20.818  0.00  0.00    +0.000 C 
ATOM     27  C   UNL     1       1.544   8.355  20.443  0.00  0.00    +0.000 C 
ENDBRANCH  25  27
ENDBRANCH   1  25
TORSDOF 5
ENDMDL
MODEL 3
REMARK VINA RESULT:      -6.2      1.258      1.637
REMARK  Name = 
REMARK  6 active torsions:
REMARK  status: ('A' for Active; 'I' for Inactive)
REMARK    1  A    between atoms: C_1  and  C_2
REMARK    2  A    between atoms: C_2  and  O_3
REMARK    3  A    between atoms: O_3  and  C_4
REMARK    4  A    between atoms: C_7  and  C_8
REMARK    5  A    between atoms: C_10  and  N_11
REMARK    6  A    between atoms: C_21  and  N_22
REMARK                            x       y       z     vdW  Elec       q    Type
REMARK                         _______ _______ _______ _____ _____    ______ ____
ROOT
ATOM      1  C   UNL     1       5.820   3.554  13.304  0.00  0.00    +0.000 A 
ATOM      2  C   UNL     1       5.004   3.514  14.413  0.00  0.00    +0.000 A 
ATOM      3  C   UNL     1       5.313   4.297  15.538  0.00  0.00    +0.000 A 
ATOM      4  C   UNL     1       4.526   4.267  16.716  0.00  0.00    +0.000 A 
ATOM      5  C   UNL     1       4.906   5.003  17.847  0.00  0.00    +0.000 A 
ATOM      6  N   UNL     1       5.973   5.833  17.774  0.00  0.00    +0.000 NA
ATOM      7  C   UNL     1       6.705   5.900  16.638  0.00  0.00    +0.000 A 
ATOM      8  N   UNL     1       7.814   6.751  16.722  0.00  0.00    +0.000 N 
ATOM      9  C   UNL     1       6.445   5.129  15.480  0.00  0.00    +0.000 A 
ATOM     10  C   UNL     1       7.193   5.114  14.267  0.00  0.00    +0.000 A 
ATOM     11  N   UNL     1       6.900   4.340  13.199  0.00  0.00    +0.000 NA
ATOM     12  H   UNL     1       7.746   7.257  17.600  0.00  0.00    +0.000 HD
ATOM     13  H   UNL     1       7.842   7.373  15.914  0.00  0.00    +0.000 HD
ENDROOT
BRANCH   5  14
ATOM     14  N   UNL     1       4.276   4.906  19.069  0.00  0.00    +0.000 N 
ATOM     15  C   UNL     1       4.451   3.721  19.920  0.00  0.00    +0.000 C 
ATOM     16  C   UNL     1       3.097   3.216  20.449  0.00  0.00    +0.000 C 
ATOM     17  O   UNL     1       2.326   4.264  21.057  0.00  0.00    +0.000 OA
ATOM     18  C   UNL     1       2.070   5.299  20.101  0.00  0.00    +0.000 C 
ATOM     19  C   UNL     1       3.374   5.933  19.608  0.00  0.00    +0.000 C 
ENDBRANCH   5  14
BRANCH  10  20
ATOM     20  N   UNL     1       8.284   5.968  14.060  0.00  0.00    +0.000 N 
ATOM     21  H   UNL     1       8.592   6.363  14.946  0.00  0.00    +0.000 HD
ATOM     22  H   UNL     1       9.010   5.419  13.606  0.00  0.00    +0.000 HD
ENDBRANCH  10  20
BRANCH   4  23
ATOM     23  C   UNL     1       3.302   3.518  16.706  0.00  0.00    +0.000 C 
ATOM     24  N   UNL     1       2.295   2.933  16.735  0.00  0.00    +0.000 NA
ENDBRANCH   4  23
BRANCH   1  25
ATOM     25  O   UNL     1       5.402   2.786  12.239  0.00  0.00    +0.000 OA
BRANCH  25  27
ATOM     26  C   UNL     1       6.161   0.857  11.105  0.00  0.00    +0.000 C 
ATOM     27  C   UNL     1       6.474   2.308  11.430  0.00  0.00    +0.000 C 
ENDBRANCH  25  27
ENDBRANCH   1  25
TORSDOF 5
ENDMDL
MODEL 4
REMARK VINA RESULT:      -6.1      3.913      7.106
REMARK  Name = 
REMARK  6 active torsions:
REMARK  status: ('A' for Active; 'I' for Inactive)
REMARK    1  A    between atoms: C_1  and  C_2
REMARK    2  A    between atoms: C_2  and  O_3
REMARK    3  A    between atoms: O_3  and  C_4
REMARK    4  A    between atoms: C_7  and  C_8
REMARK    5  A    between atoms: C_10  and  N_11
REMARK    6  A    between atoms: C_21  and  N_22
REMARK                            x       y       z     vdW  Elec       q    Type
REMARK                         _______ _______ _______ _____ _____    ______ ____
ROOT
ATOM      1  C   UNL     1       0.286   8.473  21.270  0.00  0.00    +0.000 A 
ATOM      2  C   UNL     1       0.864   7.226  21.182  0.00  0.00    +0.000 A 
ATOM      3  C   UNL     1       1.726   6.927  20.114  0.00  0.00    +0.000 A 
ATOM      4  C   UNL     1       2.319   5.649  19.958  0.00  0.00    +0.000 A 
ATOM      5  C   UNL     1       3.113   5.362  18.839  0.00  0.00    +0.000 A 
ATOM      6  N   UNL     1       3.404   6.348  17.959  0.00  0.00    +0.000 NA
ATOM      7  C   UNL     1       2.877   7.584  18.123  0.00  0.00    +0.000 A 
ATOM      8  N   UNL     1       3.211   8.488  17.107  0.00  0.00    +0.000 N 
ATOM      9  C   UNL     1       1.997   7.937  19.174  0.00  0.00    +0.000 A 
ATOM     10  C   UNL     1       1.371   9.200  19.388  0.00  0.00    +0.000 A 
ATOM     11  N   UNL     1       0.525   9.470  20.406  0.00  0.00    +0.000 NA
ATOM     12  H   UNL     1       3.914   8.045  16.522  0.00  0.00    +0.000 HD
ATOM     13  H   UNL     1       3.536   9.366  17.511  0.00  0.00    +0.000 HD
ENDROOT
BRANCH   5  14
ATOM     14  N   UNL     1       3.597   4.105  18.547  0.00  0.00    +0.000 N 
ATOM     15  C   UNL     1       2.963   3.270  17.517  0.00  0.00    +0.000 C 
ATOM     16  C   UNL     1       2.743   1.835  18.028  0.00  0.00    +0.000 C 
ATOM     17  O   UNL     1       3.938   1.268  18.588  0.00  0.00    +0.000 OA
ATOM     18  C   UNL     1       4.387   2.066  19.688  0.00  0.00    +0.000 C 
ATOM     19  C   UNL     1       4.737   3.487  19.237  0.00  0.00    +0.000 C 
ENDBRANCH   5  14
BRANCH  10  20
ATOM     20  N   UNL     1       1.639  10.306  18.571  0.00  0.00    +0.000 N 
ATOM     21  H   UNL     1       1.780  10.005  17.609  0.00  0.00    +0.000 HD
ATOM     22  H   UNL     1       0.853  10.944  18.667  0.00  0.00    +0.000 HD
ENDBRANCH  10  20
BRANCH   4  23
ATOM     23  C   UNL     1       2.139   4.678  20.998  0.00  0.00    +0.000 C 
ATOM     24  N   UNL     1       1.967   3.863  21.813  0.00  0.00    +0.000 NA
ENDBRANCH   4  23
BRANCH   1  25
ATOM     25  O   UNL     1      -0.504   8.678  22.379  0.00  0.00    +0.000 OA
BRANCH  25  27
ATOM     26  C   UNL     1      -1.185  10.799  23.166  0.00  0.00    +0.000 C 
ATOM     27  C   UNL     1      -0.071   9.766  23.191  0.00  0.00    +0.000 C 
ENDBRANCH  25  27
ENDBRANCH   1  25
TORSDOF 5
ENDMDL
MODEL 5
REMARK VINA RESULT:      -5.9      2.494      4.422
REMARK  Name = 
REMARK  6 active torsions:
REMARK  status: ('A' for Active; 'I' for Inactive)
REMARK    1  A    between atoms: C_1  and  C_2
REMARK    2  A    between atoms: C_2  and  O_3
REMARK    3  A    between atoms: O_3  and  C_4
REMARK    4  A    between atoms: C_7  and  C_8
REMARK    5  A    between atoms: C_10  and  N_11
REMARK    6  A    between atoms: C_21  and  N_22
REMARK                            x       y       z     vdW  Elec       q    Type
REMARK                         _______ _______ _______ _____ _____    ______ ____
ROOT
ATOM      1  C   UNL     1       7.504   7.023  17.538  0.00  0.00    +0.000 A 
ATOM      2  C   UNL     1       6.435   6.374  18.115  0.00  0.00    +0.000 A 
ATOM      3  C   UNL     1       5.739   5.391  17.391  0.00  0.00    +0.000 A 
ATOM      4  C   UNL     1       4.612   4.718  17.926  0.00  0.00    +0.000 A 
ATOM      5  C   UNL     1       3.896   3.798  17.148  0.00  0.00    +0.000 A 
ATOM      6  N   UNL     1       4.351   3.471  15.915  0.00  0.00    +0.000 NA
ATOM      7  C   UNL     1       5.451   4.077  15.414  0.00  0.00    +0.000 A 
ATOM      8  N   UNL     1       5.774   3.689  14.108  0.00  0.00    +0.000 N 
ATOM      9  C   UNL     1       6.184   5.079  16.095  0.00  0.00    +0.000 A 
ATOM     10  C   UNL     1       7.323   5.790  15.616  0.00  0.00    +0.000 A 
ATOM     11  N   UNL     1       7.971   6.750  16.312  0.00  0.00    +0.000 NA
ATOM     12  H   UNL     1       5.173   2.906  13.864  0.00  0.00    +0.000 HD
ATOM     13  H   UNL     1       6.764   3.454  14.045  0.00  0.00    +0.000 HD
ENDROOT
BRANCH   5  14
ATOM     14  N   UNL     1       2.709   3.221  17.546  0.00  0.00    +0.000 N 
ATOM     15  C   UNL     1       1.465   4.001  17.593  0.00  0.00    +0.000 C 
ATOM     16  C   UNL     1       0.718   3.769  18.918  0.00  0.00    +0.000 C 
ATOM     17  O   UNL     1       0.544   2.373  19.208  0.00  0.00    +0.000 OA
ATOM     18  C   UNL     1       1.821   1.732  19.302  0.00  0.00    +0.000 C 
ATOM     19  C   UNL     1       2.585   1.822  17.977  0.00  0.00    +0.000 C 
ENDBRANCH   5  14
BRANCH  10  20
ATOM     20  N   UNL     1       7.912   5.498  14.379  0.00  0.00    +0.000 N 
ATOM     21  H   UNL     1       8.909   5.336  14.496  0.00  0.00    +0.000 HD
ATOM     22  H   UNL     1       7.428   4.686  14.004  0.00  0.00    +0.000 HD
ENDBRANCH  10  20
BRANCH   4  23
ATOM     23  C   UNL     1       4.258   4.953  19.296  0.00  0.00    +0.000 C 
ATOM     24  N   UNL     1       3.937   5.171  20.394  0.00  0.00    +0.000 NA
ENDBRANCH   4  23
BRANCH   1  25
ATOM     25  O   UNL     1       8.145   7.934  18.349  0.00  0.00    +0.000 OA
BRANCH  25  27
ATOM     26  C   UNL     1       9.014  10.096  18.740  0.00  0.00    +0.000 C 
ATOM     27  C   UNL     1       8.114   9.265  17.840  0.00  0.00    +0.000 C 
ENDBRANCH  25  27
ENDBRANCH   1  25
TORSDOF 5
ENDMDL
MODEL 6
REMARK VINA RESULT:      -5.8      4.553      5.780
REMARK  Name = 
REMARK  6 active torsions:
REMARK  status: ('A' for Active; 'I' for Inactive)
REMARK    1  A    between atoms: C_1  and  C_2
REMARK    2  A    between atoms: C_2  and  O_3
REMARK    3  A    between atoms: O_3  and  C_4
REMARK    4  A    between atoms: C_7  and  C_8
REMARK    5  A    between atoms: C_10  and  N_11
REMARK    6  A    between atoms: C_21  and  N_22
REMARK                            x       y       z     vdW  Elec       q    Type
REMARK                         _______ _______ _______ _____ _____    ______ ____
ROOT
ATOM      1  C   UNL     1       4.478   6.267  16.842  0.00  0.00    +0.000 A 
ATOM      2  C   UNL     1       3.761   7.384  17.210  0.00  0.00    +0.000 A 
ATOM      3  C   UNL     1       2.996   7.368  18.388  0.00  0.00    +0.000 A 
ATOM      4  C   UNL     1       2.214   8.479  18.793  0.00  0.00    +0.000 A 
ATOM      5  C   UNL     1       1.402   8.402  19.934  0.00  0.00    +0.000 A 
ATOM      6  N   UNL     1       1.451   7.295  20.712  0.00  0.00    +0.000 NA
ATOM      7  C   UNL     1       2.228   6.247  20.355  0.00  0.00    +0.000 A 
ATOM      8  N   UNL     1       2.136   5.147  21.217  0.00  0.00    +0.000 N 
ATOM      9  C   UNL     1       3.011   6.205  19.177  0.00  0.00    +0.000 A 
ATOM     10  C   UNL     1       3.818   5.124  18.715  0.00  0.00    +0.000 A 
ATOM     11  N   UNL     1       4.533   5.142  17.568  0.00  0.00    +0.000 NA
ATOM     12  H   UNL     1       1.595   5.437  22.027  0.00  0.00    +0.000 HD
ATOM     13  H   UNL     1       3.068   4.818  21.468  0.00  0.00    +0.000 HD
ENDROOT
BRANCH   5  14
ATOM     14  N   UNL     1       0.507   9.383  20.302  0.00  0.00    +0.000 N 
ATOM     15  C   UNL     1      -0.711   9.630  19.519  0.00  0.00    +0.000 C 
ATOM     16  C   UNL     1      -0.901  11.134  19.255  0.00  0.00    +0.000 C 
ATOM     17  O   UNL     1      -0.812  11.913  20.458  0.00  0.00    +0.000 OA
ATOM     18  C   UNL     1       0.473  11.729  21.064  0.00  0.00    +0.000 C 
ATOM     19  C   UNL     1       0.694  10.266  21.461  0.00  0.00    +0.000 C 
ENDBRANCH   5  14
BRANCH  10  20
ATOM     20  N   UNL     1       3.985   3.952  19.464  0.00  0.00    +0.000 N 
ATOM     21  H   UNL     1       4.942   3.888  19.803  0.00  0.00    +0.000 HD
ATOM     22  H   UNL     1       3.306   3.984  20.220  0.00  0.00    +0.000 HD
ENDBRANCH  10  20
BRANCH   4  23
ATOM     23  C   UNL     1       2.318   9.701  18.049  0.00  0.00    +0.000 C 
ATOM     24  N   UNL     1       2.408  10.716  17.485  0.00  0.00    +0.000 NA
ENDBRANCH   4  23
BRANCH   1  25
ATOM     25  O   UNL     1       5.231   6.403  15.697  0.00  0.00    +0.000 OA
BRANCH  25  27
ATOM     26  C   UNL     1       5.675   4.477  14.402  0.00  0.00    +0.000 C 
ATOM     27  C   UNL     1       6.191   5.364  15.523  0.00  0.00    +0.000 C 
ENDBRANCH  25  27
ENDBRANCH   1  25
TORSDOF 5
ENDMDL
MODEL 7
REMARK VINA RESULT:      -5.7      8.920     10.246
REMARK  Name = 
REMARK  6 active torsions:
REMARK  status: ('A' for Active; 'I' for Inactive)
REMARK    1  A    between atoms: C_1  and  C_2
REMARK    2  A    between atoms: C_2  and  O_3
REMARK    3  A    between atoms: O_3  and  C_4
REMARK    4  A    between atoms: C_7  and  C_8
REMARK    5  A    between atoms: C_10  and  N_11
REMARK    6  A    between atoms: C_21  and  N_22
REMARK                            x       y       z     vdW  Elec       q    Type
REMARK                         _______ _______ _______ _____ _____    ______ ____
ROOT
ATOM      1  C   UNL     1       1.015   9.708  18.205  0.00  0.00    +0.000 A 
ATOM      2  C   UNL     1      -0.236   9.807  17.635  0.00  0.00    +0.000 A 
ATOM      3  C   UNL     1      -1.221  10.604  18.241  0.00  0.00    +0.000 A 
ATOM      4  C   UNL     1      -2.532  10.712  17.715  0.00  0.00    +0.000 A 
ATOM      5  C   UNL     1      -3.512  11.456  18.388  0.00  0.00    +0.000 A 
ATOM      6  N   UNL     1      -3.171  12.164  19.490  0.00  0.00    +0.000 NA
ATOM      7  C   UNL     1      -1.909  12.101  19.975  0.00  0.00    +0.000 A 
ATOM      8  N   UNL     1      -1.711  12.832  21.152  0.00  0.00    +0.000 N 
ATOM      9  C   UNL     1      -0.881  11.308  19.410  0.00  0.00    +0.000 A 
ATOM     10  C   UNL     1       0.454  11.158  19.888  0.00  0.00    +0.000 A 
ATOM     11  N   UNL     1       1.387  10.370  19.309  0.00  0.00    +0.000 NA
ATOM     12  H   UNL     1      -2.550  13.384  21.315  0.00  0.00    +0.000 HD
ATOM     13  H   UNL     1      -0.875  13.410  21.071  0.00  0.00    +0.000 HD
ENDROOT
BRANCH   5  14
ATOM     14  N   UNL     1      -4.839  11.483  18.017  0.00  0.00    +0.000 N 
ATOM     15  C   UNL     1      -5.291  12.291  16.876  0.00  0.00    +0.000 C 
ATOM     16  C   UNL     1      -6.542  13.110  17.241  0.00  0.00    +0.000 C 
ATOM     17  O   UNL     1      -7.572  12.297  17.826  0.00  0.00    +0.000 OA
ATOM     18  C   UNL     1      -7.084  11.678  19.022  0.00  0.00    +0.000 C 
ATOM     19  C   UNL     1      -5.900  10.753  18.724  0.00  0.00    +0.000 C 
ENDBRANCH   5  14
BRANCH  10  20
ATOM     20  N   UNL     1       0.932  11.882  20.987  0.00  0.00    +0.000 N 
ATOM     21  H   UNL     1       0.161  12.349  21.460  0.00  0.00    +0.000 HD
ATOM     22  H   UNL     1       1.414  11.221  21.592  0.00  0.00    +0.000 HD
ENDBRANCH  10  20
BRANCH   4  23
ATOM     23  C   UNL     1      -2.818  10.097  16.451  0.00  0.00    +0.000 C 
ATOM     24  N   UNL     1      -3.004   9.600  15.414  0.00  0.00    +0.000 NA
ENDBRANCH   4  23
BRANCH   1  25
ATOM     25  O   UNL     1       1.919   8.940  17.506  0.00  0.00    +0.000 OA
BRANCH  25  27
ATOM     26  C   UNL     1       3.639   7.322  17.596  0.00  0.00    +0.000 C 
ATOM     27  C   UNL     1       2.316   7.760  18.200  0.00  0.00    +0.000 C 
ENDBRANCH  25  27
ENDBRANCH   1  25
TORSDOF 5
ENDMDL
MODEL 8
REMARK VINA RESULT:      -5.7      2.373      6.950
REMARK  Name = 
REMARK  6 active torsions:
REMARK  status: ('A' for Active; 'I' for Inactive)
REMARK    1  A    between atoms: C_1  and  C_2
REMARK    2  A    between atoms: C_2  and  O_3
REMARK    3  A    between atoms: O_3  and  C_4
REMARK    4  A    between atoms: C_7  and  C_8
REMARK    5  A    between atoms: C_10  and  N_11
REMARK    6  A    between atoms: C_21  and  N_22
REMARK                            x       y       z     vdW  Elec       q    Type
REMARK                         _______ _______ _______ _____ _____    ______ ____
ROOT
ATOM      1  C   UNL     1       1.697   5.965  20.723  0.00  0.00    +0.000 A 
ATOM      2  C   UNL     1       2.504   6.138  19.621  0.00  0.00    +0.000 A 
ATOM      3  C   UNL     1       3.416   5.134  19.255  0.00  0.00    +0.000 A 
ATOM      4  C   UNL     1       4.292   5.278  18.150  0.00  0.00    +0.000 A 
ATOM      5  C   UNL     1       5.242   4.288  17.859  0.00  0.00    +0.000 A 
ATOM      6  N   UNL     1       5.246   3.138  18.574  0.00  0.00    +0.000 NA
ATOM      7  C   UNL     1       4.383   2.975  19.603  0.00  0.00    +0.000 A 
ATOM      8  N   UNL     1       4.538   1.766  20.293  0.00  0.00    +0.000 N 
ATOM      9  C   UNL     1       3.452   3.956  20.021  0.00  0.00    +0.000 A 
ATOM     10  C   UNL     1       2.545   3.873  21.117  0.00  0.00    +0.000 A 
ATOM     11  N   UNL     1       1.688   4.855  21.475  0.00  0.00    +0.000 NA
ATOM     12  H   UNL     1       5.193   1.194  19.766  0.00  0.00    +0.000 HD
ATOM     13  H   UNL     1       3.633   1.312  20.414  0.00  0.00    +0.000 HD
ENDROOT
BRANCH   5  14
ATOM     14  N   UNL     1       6.220   4.427  16.898  0.00  0.00    +0.000 N 
ATOM     15  C   UNL     1       7.380   5.303  17.118  0.00  0.00    +0.000 C 
ATOM     16  C   UNL     1       7.633   6.201  15.894  0.00  0.00    +0.000 C 
ATOM     17  O   UNL     1       7.691   5.449  14.671  0.00  0.00    +0.000 OA
ATOM     18  C   UNL     1       6.453   4.758  14.465  0.00  0.00    +0.000 C 
ATOM     19  C   UNL     1       6.184   3.756  15.592  0.00  0.00    +0.000 C 
ENDBRANCH   5  14
BRANCH  10  20
ATOM     20  N   UNL     1       2.426   2.712  21.893  0.00  0.00    +0.000 N 
ATOM     21  H   UNL     1       3.114   2.023  21.599  0.00  0.00    +0.000 HD
ATOM     22  H   UNL     1       2.544   2.990  22.864  0.00  0.00    +0.000 HD
ENDBRANCH  10  20
BRANCH   4  23
ATOM     23  C   UNL     1       4.146   6.426  17.302  0.00  0.00    +0.000 C 
ATOM     24  N   UNL     1       4.073   7.367  16.620  0.00  0.00    +0.000 NA
ENDBRANCH   4  23
BRANCH   1  25
ATOM     25  O   UNL     1       0.808   6.987  20.968  0.00  0.00    +0.000 OA
BRANCH  25  27
ATOM     26  C   UNL     1       1.230   9.000  22.130  0.00  0.00    +0.000 C 
ATOM     27  C   UNL     1       1.374   8.284  20.798  0.00  0.00    +0.000 C 
ENDBRANCH  25  27
ENDBRANCH   1  25
TORSDOF 5
ENDMDL
MODEL 9
REMARK VINA RESULT:      -5.7      4.117      6.831
REMARK  Name = 
REMARK  6 active torsions:
REMARK  status: ('A' for Active; 'I' for Inactive)
REMARK    1  A    between atoms: C_1  and  C_2
REMARK    2  A    between atoms: C_2  and  O_3
REMARK    3  A    between atoms: O_3  and  C_4
REMARK    4  A    between atoms: C_7  and  C_8
REMARK    5  A    between atoms: C_10  and  N_11
REMARK    6  A    between atoms: C_21  and  N_22
REMARK                            x       y       z     vdW  Elec       q    Type
REMARK                         _______ _______ _______ _____ _____    ______ ____
ROOT
ATOM      1  C   UNL     1       1.706   9.531  18.561  0.00  0.00    +0.000 A 
ATOM      2  C   UNL     1       2.594   8.749  17.857  0.00  0.00    +0.000 A 
ATOM      3  C   UNL     1       2.962   7.487  18.353  0.00  0.00    +0.000 A 
ATOM      4  C   UNL     1       3.898   6.658  17.685  0.00  0.00    +0.000 A 
ATOM      5  C   UNL     1       4.300   5.438  18.247  0.00  0.00    +0.000 A 
ATOM      6  N   UNL     1       3.706   5.000  19.381  0.00  0.00    +0.000 NA
ATOM      7  C   UNL     1       2.779   5.766  20.003  0.00  0.00    +0.000 A 
ATOM      8  N   UNL     1       2.293   5.219  21.197  0.00  0.00    +0.000 N 
ATOM      9  C   UNL     1       2.378   7.047  19.554  0.00  0.00    +0.000 A 
ATOM     10  C   UNL     1       1.444   7.926  20.175  0.00  0.00    +0.000 A 
ATOM     11  N   UNL     1       1.115   9.148  19.702  0.00  0.00    +0.000 NA
ATOM     12  H   UNL     1       2.650   4.270  21.267  0.00  0.00    +0.000 HD
ATOM     13  H   UNL     1       1.274   5.255  21.210  0.00  0.00    +0.000 HD
ENDROOT
BRANCH   5  14
ATOM     14  N   UNL     1       5.311   4.656  17.731  0.00  0.00    +0.000 N 
ATOM     15  C   UNL     1       6.641   4.628  18.356  0.00  0.00    +0.000 C 
ATOM     16  C   UNL     1       7.749   4.777  17.299  0.00  0.00    +0.000 C 
ATOM     17  O   UNL     1       7.594   3.850  16.212  0.00  0.00    +0.000 OA
ATOM     18  C   UNL     1       6.334   4.064  15.566  0.00  0.00    +0.000 C 
ATOM     19  C   UNL     1       5.168   3.823  16.530  0.00  0.00    +0.000 C 
ENDBRANCH   5  14
BRANCH  10  20
ATOM     20  N   UNL     1       0.731   7.557  21.323  0.00  0.00    +0.000 N 
ATOM     21  H   UNL     1       0.264   8.369  21.720  0.00  0.00    +0.000 HD
ATOM     22  H   UNL     1       0.077   6.829  21.046  0.00  0.00    +0.000 HD
ENDBRANCH  10  20
BRANCH   4  23
ATOM     23  C   UNL     1       4.378   7.065  16.395  0.00  0.00    +0.000 C 
ATOM     24  N   UNL     1       4.750   7.355  15.331  0.00  0.00    +0.000 NA
ENDBRANCH   4  23
BRANCH   1  25
ATOM     25  O   UNL     1       1.376  10.728  17.966  0.00  0.00    +0.000 OA
BRANCH  25  27
ATOM     26  C   UNL     1       1.916  12.832  18.896  0.00  0.00    +0.000 C 
ATOM     27  C   UNL     1       0.896  11.705  18.885  0.00  0.00    +0.000 C 
ENDBRANCH  25  27
ENDBRANCH   1  25
TORSDOF 5
ENDMDL
