MODEL 1
REMARK VINA RESULT:      -7.4      0.000      0.000
REMARK  Name = 
REMARK  2 active torsions:
REMARK  status: ('A' for Active; 'I' for Inactive)
REMARK    1  A    between atoms: N_3  and  C_4
REMARK    2  A    between atoms: C_11  and  N_12
REMARK                            x       y       z     vdW  Elec       q    Type
REMARK                         _______ _______ _______ _____ _____    ______ ____
ROOT
ATOM      1  O   UNL     1       5.533   3.418  19.549  0.00  0.00    +0.000 OA
ATOM      2  C   UNL     1       5.066   4.347  18.900  0.00  0.00    +0.000 C 
ATOM      3  N   UNL     1       3.722   4.546  18.718  0.00  0.00    +0.000 N 
ATOM      4  N   UNL     1       5.860   5.285  18.304  0.00  0.00    +0.000 N 
ATOM      5  C   UNL     1       5.638   6.407  17.419  0.00  0.00    +0.000 C 
ATOM      6  C   UNL     1       6.982   6.056  16.749  0.00  0.00    +0.000 C 
ATOM      7  C   UNL     1       7.269   5.170  17.979  0.00  0.00    +0.000 C 
ATOM      8  H   UNL     1       3.510   4.926  17.809  0.00  0.00    +0.000 HD
ENDROOT
BRANCH   3   9
ATOM      9  C   UNL     1       2.761   3.590  19.240  0.00  0.00    +0.000 C 
ATOM     10  C   UNL     1       1.781   4.197  20.243  0.00  0.00    +0.000 C 
ATOM     11  C   UNL     1       0.599   3.239  20.241  0.00  0.00    +0.000 C 
ATOM     12  C   UNL     1       0.561   2.619  18.849  0.00  0.00    +0.000 C 
ATOM     13  C   UNL     1       1.841   3.058  18.142  0.00  0.00    +0.000 C 
ENDBRANCH   3   9
BRANCH   6  14
ATOM     14  N   UNL     1       6.821   5.271  15.547  0.00  0.00    +0.000 N 
ATOM     15  N   UNL     1       5.804   4.388  15.356  0.00  0.00    +0.000 NA
ATOM     16  C   UNL     1       6.026   3.975  14.107  0.00  0.00    +0.000 A 
ATOM     17  C   UNL     1       7.149   4.622  13.586  0.00  0.00    +0.000 A 
ATOM     18  N   UNL     1       7.654   5.462  14.494  0.00  0.00    +0.000 NA
ENDBRANCH   6  14
TORSDOF 2
ENDMDL
MODEL 2
REMARK VINA RESULT:      -6.8      0.563      1.123
REMARK  Name = 
REMARK  2 active torsions:
REMARK  status: ('A' for Active; 'I' for Inactive)
REMARK    1  A    between atoms: N_3  and  C_4
REMARK    2  A    between atoms: C_11  and  N_12
REMARK                            x       y       z     vdW  Elec       q    Type
REMARK                         _______ _______ _______ _____ _____    ______ ____
ROOT
ATOM      1  O   UNL     1       4.544   3.569  19.237  0.00  0.00    +0.000 OA
ATOM      2  C   UNL     1       4.479   4.620  18.610  0.00  0.00    +0.000 C 
ATOM      3  N   UNL     1       3.300   5.240  18.285  0.00  0.00    +0.000 N 
ATOM      4  N   UNL     1       5.597   5.281  18.188  0.00  0.00    +0.000 N 
ATOM      5  C   UNL     1       5.855   6.447  17.371  0.00  0.00    +0.000 C 
ATOM      6  C   UNL     1       7.105   5.714  16.842  0.00  0.00    +0.000 C 
ATOM      7  C   UNL     1       6.933   4.740  18.025  0.00  0.00    +0.000 C 
ATOM      8  H   UNL     1       3.342   5.699  17.389  0.00  0.00    +0.000 HD
ENDROOT
BRANCH   3   9
ATOM      9  C   UNL     1       2.030   4.617  18.612  0.00  0.00    +0.000 C 
ATOM     10  C   UNL     1       1.889   3.197  18.066  0.00  0.00    +0.000 C 
ATOM     11  C   UNL     1       0.807   2.566  18.929  0.00  0.00    +0.000 C 
ATOM     12  C   UNL     1       0.894   3.258  20.285  0.00  0.00    +0.000 C 
ATOM     13  C   UNL     1       1.869   4.421  20.119  0.00  0.00    +0.000 C 
ENDBRANCH   3   9
BRANCH   6  14
ATOM     14  N   UNL     1       6.878   5.063  15.572  0.00  0.00    +0.000 N 
ATOM     15  N   UNL     1       5.874   4.171  15.354  0.00  0.00    +0.000 NA
ATOM     16  C   UNL     1       6.014   3.908  14.053  0.00  0.00    +0.000 A 
ATOM     17  C   UNL     1       7.078   4.650  13.531  0.00  0.00    +0.000 A 
ATOM     18  N   UNL     1       7.624   5.401  14.492  0.00  0.00    +0.000 NA
ENDBRANCH   6  14
TORSDOF 2
ENDMDL
MODEL 3
REMARK VINA RESULT:      -6.7      2.331      6.391
REMARK  Name = 
REMARK  2 active torsions:
REMARK  status: ('A' for Active; 'I' for Inactive)
REMARK    1  A    between atoms: N_3  and  C_4
REMARK    2  A    between atoms: C_11  and  N_12
REMARK                            x       y       z     vdW  Elec       q    Type
REMARK                         _______ _______ _______ _____ _____    ______ ____
ROOT
ATOM      1  O   UNL     1       5.167   3.422  16.613  0.00  0.00    +0.000 OA
ATOM      2  C   UNL     1       4.395   4.249  17.086  0.00  0.00    +0.000 C 
ATOM      3  N   UNL     1       4.775   5.511  17.466  0.00  0.00    +0.000 N 
ATOM      4  N   UNL     1       3.068   3.982  17.264  0.00  0.00    +0.000 N 
ATOM      5  C   UNL     1       1.951   4.679  17.865  0.00  0.00    +0.000 C 
ATOM      6  C   UNL     1       1.434   3.302  18.332  0.00  0.00    +0.000 C 
ATOM      7  C   UNL     1       2.431   2.681  17.331  0.00  0.00    +0.000 C 
ATOM      8  H   UNL     1       4.268   5.836  18.275  0.00  0.00    +0.000 HD
ENDROOT
BRANCH   3   9
ATOM      9  C   UNL     1       6.169   5.911  17.395  0.00  0.00    +0.000 C 
ATOM     10  C   UNL     1       6.362   7.411  17.180  0.00  0.00    +0.000 C 
ATOM     11  C   UNL     1       7.779   7.682  17.661  0.00  0.00    +0.000 C 
ATOM     12  C   UNL     1       8.062   6.644  18.742  0.00  0.00    +0.000 C 
ATOM     13  C   UNL     1       6.896   5.659  18.715  0.00  0.00    +0.000 C 
ENDBRANCH   3   9
BRANCH   6  14
ATOM     14  N   UNL     1       1.789   3.003  19.699  0.00  0.00    +0.000 N 
ATOM     15  N   UNL     1       3.012   2.539  20.075  0.00  0.00    +0.000 NA
ATOM     16  C   UNL     1       2.893   2.488  21.403  0.00  0.00    +0.000 A 
ATOM     17  C   UNL     1       1.623   2.928  21.783  0.00  0.00    +0.000 A 
ATOM     18  N   UNL     1       0.917   3.273  20.702  0.00  0.00    +0.000 NA
ENDBRANCH   6  14
TORSDOF 2
ENDMDL
MODEL 4
REMARK VINA RESULT:      -6.4      1.872      2.847
REMARK  Name = 
REMARK  2 active torsions:
REMARK  status: ('A' for Active; 'I' for Inactive)
REMARK    1  A    between atoms: N_3  and  C_4
REMARK    2  A    between atoms: C_11  and  N_12
REMARK                            x       y       z     vdW  Elec       q    Type
REMARK                         _______ _______ _______ _____ _____    ______ ____
ROOT
ATOM      1  O   UNL     1       2.780   4.963  17.502  0.00  0.00    +0.000 OA
ATOM      2  C   UNL     1       3.813   4.302  17.497  0.00  0.00    +0.000 C 
ATOM      3  N   UNL     1       4.057   3.267  18.362  0.00  0.00    +0.000 N 
ATOM      4  N   UNL     1       4.819   4.539  16.604  0.00  0.00    +0.000 N 
ATOM      5  C   UNL     1       6.157   4.025  16.403  0.00  0.00    +0.000 C 
ATOM      6  C   UNL     1       6.561   5.447  15.962  0.00  0.00    +0.000 C 
ATOM      7  C   UNL     1       5.053   5.748  15.838  0.00  0.00    +0.000 C 
ATOM      8  H   UNL     1       5.028   3.206  18.624  0.00  0.00    +0.000 HD
ENDROOT
BRANCH   3   9
ATOM      9  C   UNL     1       3.103   2.945  19.409  0.00  0.00    +0.000 C 
ATOM     10  C   UNL     1       2.767   4.132  20.311  0.00  0.00    +0.000 C 
ATOM     11  C   UNL     1       1.432   3.762  20.939  0.00  0.00    +0.000 C 
ATOM     12  C   UNL     1       0.724   2.868  19.927  0.00  0.00    +0.000 C 
ATOM     13  C   UNL     1       1.742   2.559  18.833  0.00  0.00    +0.000 C 
ENDBRANCH   3   9
BRANCH   6  14
ATOM     14  N   UNL     1       7.176   6.210  17.023  0.00  0.00    +0.000 N 
ATOM     15  N   UNL     1       7.615   5.660  18.188  0.00  0.00    +0.000 NA
ATOM     16  C   UNL     1       8.161   6.712  18.802  0.00  0.00    +0.000 A 
ATOM     17  C   UNL     1       8.046   7.846  17.994  0.00  0.00    +0.000 A 
ATOM     18  N   UNL     1       7.432   7.531  16.850  0.00  0.00    +0.000 NA
ENDBRANCH   6  14
TORSDOF 2
ENDMDL
MODEL 5
REMARK VINA RESULT:      -6.4      1.980      3.104
REMARK  Name = 
REMARK  2 active torsions:
REMARK  status: ('A' for Active; 'I' for Inactive)
REMARK    1  A    between atoms: N_3  and  C_4
REMARK    2  A    between atoms: C_11  and  N_12
REMARK                            x       y       z     vdW  Elec       q    Type
REMARK                         _______ _______ _______ _____ _____    ______ ____
ROOT
ATOM      1  O   UNL     1       2.767   5.716  17.638  0.00  0.00    +0.000 OA
ATOM      2  C   UNL     1       3.708   4.939  17.761  0.00  0.00    +0.000 C 
ATOM      3  N   UNL     1       3.814   4.030  18.782  0.00  0.00    +0.000 N 
ATOM      4  N   UNL     1       4.740   4.905  16.867  0.00  0.00    +0.000 N 
ATOM      5  C   UNL     1       6.003   4.205  16.781  0.00  0.00    +0.000 C 
ATOM      6  C   UNL     1       6.586   5.478  16.134  0.00  0.00    +0.000 C 
ATOM      7  C   UNL     1       5.129   5.941  15.929  0.00  0.00    +0.000 C 
ATOM      8  H   UNL     1       4.769   3.891  19.073  0.00  0.00    +0.000 HD
ENDROOT
BRANCH   3   9
ATOM      9  C   UNL     1       2.822   3.998  19.842  0.00  0.00    +0.000 C 
ATOM     10  C   UNL     1       1.435   3.571  19.365  0.00  0.00    +0.000 C 
ATOM     11  C   UNL     1       0.733   3.094  20.627  0.00  0.00    +0.000 C 
ATOM     12  C   UNL     1       1.829   2.569  21.547  0.00  0.00    +0.000 C 
ATOM     13  C   UNL     1       3.159   2.948  20.899  0.00  0.00    +0.000 C 
ENDBRANCH   3   9
BRANCH   6  14
ATOM     14  N   UNL     1       7.288   6.316  17.079  0.00  0.00    +0.000 N 
ATOM     15  N   UNL     1       7.544   7.636  16.868  0.00  0.00    +0.000 NA
ATOM     16  C   UNL     1       8.126   7.992  18.015  0.00  0.00    +0.000 A 
ATOM     17  C   UNL     1       8.193   6.893  18.875  0.00  0.00    +0.000 A 
ATOM     18  N   UNL     1       7.645   5.823  18.290  0.00  0.00    +0.000 NA
ENDBRANCH   6  14
TORSDOF 2
ENDMDL
MODEL 6
REMARK VINA RESULT:      -6.4      1.856      2.975
REMARK  Name = 
REMARK  2 active torsions:
REMARK  status: ('A' for Active; 'I' for Inactive)
REMARK    1  A    between atoms: N_3  and  C_4
REMARK    2  A    between atoms: C_11  and  N_12
REMARK                            x       y       z     vdW  Elec       q    Type
REMARK                         _______ _______ _______ _____ _____    ______ ____
ROOT
ATOM      1  O   UNL     1       2.808   4.675  17.338  0.00  0.00    +0.000 OA
ATOM      2  C   UNL     1       3.813   3.987  17.202  0.00  0.00    +0.000 C 
ATOM      3  N   UNL     1       4.013   2.797  17.854  0.00  0.00    +0.000 N 
ATOM      4  N   UNL     1       4.829   4.347  16.363  0.00  0.00    +0.000 N 
ATOM      5  C   UNL     1       6.145   3.827  16.060  0.00  0.00    +0.000 C 
ATOM      6  C   UNL     1       6.607   5.290  15.892  0.00  0.00    +0.000 C 
ATOM      7  C   UNL     1       5.113   5.669  15.838  0.00  0.00    +0.000 C 
ATOM      8  H   UNL     1       4.981   2.649  18.092  0.00  0.00    +0.000 HD
ENDROOT
BRANCH   3   9
ATOM      9  C   UNL     1       3.046   2.322  18.827  0.00  0.00    +0.000 C 
ATOM     10  C   UNL     1       3.016   3.152  20.110  0.00  0.00    +0.000 C 
ATOM     11  C   UNL     1       1.653   2.857  20.718  0.00  0.00    +0.000 C 
ATOM     12  C   UNL     1       0.729   2.542  19.546  0.00  0.00    +0.000 C 
ATOM     13  C   UNL     1       1.615   2.446  18.307  0.00  0.00    +0.000 C 
ENDBRANCH   3   9
BRANCH   6  14
ATOM     14  N   UNL     1       7.252   5.813  17.074  0.00  0.00    +0.000 N 
ATOM     15  N   UNL     1       7.589   7.122  17.230  0.00  0.00    +0.000 NA
ATOM     16  C   UNL     1       8.073   7.138  18.474  0.00  0.00    +0.000 A 
ATOM     17  C   UNL     1       8.003   5.856  19.027  0.00  0.00    +0.000 A 
ATOM     18  N   UNL     1       7.465   5.008  18.145  0.00  0.00    +0.000 NA
ENDBRANCH   6  14
TORSDOF 2
ENDMDL
MODEL 7
REMARK VINA RESULT:      -6.3      2.134      3.174
REMARK  Name = 
REMARK  2 active torsions:
REMARK  status: ('A' for Active; 'I' for Inactive)
REMARK    1  A    between atoms: N_3  and  C_4
REMARK    2  A    between atoms: C_11  and  N_12
REMARK                            x       y       z     vdW  Elec       q    Type
REMARK                         _______ _______ _______ _____ _____    ______ ____
ROOT
ATOM      1  O   UNL     1       2.434   6.249  17.859  0.00  0.00    +0.000 OA
ATOM      2  C   UNL     1       3.246   5.346  17.693  0.00  0.00    +0.000 C 
ATOM      3  N   UNL     1       3.216   4.161  18.383  0.00  0.00    +0.000 N 
ATOM      4  N   UNL     1       4.257   5.441  16.781  0.00  0.00    +0.000 N 
ATOM      5  C   UNL     1       5.399   4.627  16.423  0.00  0.00    +0.000 C 
ATOM      6  C   UNL     1       6.167   5.940  16.166  0.00  0.00    +0.000 C 
ATOM      7  C   UNL     1       4.796   6.648  16.184  0.00  0.00    +0.000 C 
ATOM      8  H   UNL     1       4.139   3.803  18.570  0.00  0.00    +0.000 HD
ENDROOT
BRANCH   3   9
ATOM      9  C   UNL     1       2.234   3.947  19.431  0.00  0.00    +0.000 C 
ATOM     10  C   UNL     1       1.871   2.476  19.634  0.00  0.00    +0.000 C 
ATOM     11  C   UNL     1       1.299   2.420  21.042  0.00  0.00    +0.000 C 
ATOM     12  C   UNL     1       1.984   3.539  21.820  0.00  0.00    +0.000 C 
ATOM     13  C   UNL     1       2.772   4.358  20.800  0.00  0.00    +0.000 C 
ENDBRANCH   3   9
BRANCH   6  14
ATOM     14  N   UNL     1       6.991   6.336  17.284  0.00  0.00    +0.000 N 
ATOM     15  N   UNL     1       7.310   5.506  18.314  0.00  0.00    +0.000 NA
ATOM     16  C   UNL     1       8.128   6.269  19.042  0.00  0.00    +0.000 A 
ATOM     17  C   UNL     1       8.283   7.516  18.431  0.00  0.00    +0.000 A 
ATOM     18  N   UNL     1       7.572   7.561  17.300  0.00  0.00    +0.000 NA
ENDBRANCH   6  14
TORSDOF 2
ENDMDL
MODEL 8
REMARK VINA RESULT:      -6.1      1.804      6.089
REMARK  Name = 
REMARK  2 active torsions:
REMARK  status: ('A' for Active; 'I' for Inactive)
REMARK    1  A    between atoms: N_3  and  C_4
REMARK    2  A    between atoms: C_11  and  N_12
REMARK                            x       y       z     vdW  Elec       q    Type
REMARK                         _______ _______ _______ _____ _____    ______ ____
ROOT
ATOM      1  O   UNL     1       4.587   6.655  16.430  0.00  0.00    +0.000 OA
ATOM      2  C   UNL     1       5.023   5.604  16.885  0.00  0.00    +0.000 C 
ATOM      3  N   UNL     1       5.710   4.680  16.140  0.00  0.00    +0.000 N 
ATOM      4  N   UNL     1       4.869   5.265  18.199  0.00  0.00    +0.000 N 
ATOM      5  C   UNL     1       5.166   4.098  19.001  0.00  0.00    +0.000 C 
ATOM      6  C   UNL     1       3.877   4.401  19.794  0.00  0.00    +0.000 C 
ATOM      7  C   UNL     1       3.902   5.798  19.140  0.00  0.00    +0.000 C 
ATOM      8  H   UNL     1       5.517   3.734  16.429  0.00  0.00    +0.000 HD
ENDROOT
BRANCH   3   9
ATOM      9  C   UNL     1       5.891   4.878  14.713  0.00  0.00    +0.000 C 
ATOM     10  C   UNL     1       7.346   5.123  14.312  0.00  0.00    +0.000 C 
ATOM     11  C   UNL     1       7.393   4.770  12.833  0.00  0.00    +0.000 C 
ATOM     12  C   UNL     1       6.319   3.710  12.617  0.00  0.00    +0.000 C 
ATOM     13  C   UNL     1       5.524   3.626  13.919  0.00  0.00    +0.000 C 
ENDBRANCH   3   9
BRANCH   6  14
ATOM     14  N   UNL     1       2.747   3.620  19.347  0.00  0.00    +0.000 N 
ATOM     15  N   UNL     1       2.863   2.490  18.598  0.00  0.00    +0.000 NA
ATOM     16  C   UNL     1       1.594   2.089  18.502  0.00  0.00    +0.000 A 
ATOM     17  C   UNL     1       0.763   2.973  19.196  0.00  0.00    +0.000 A 
ATOM     18  N   UNL     1       1.494   3.944  19.751  0.00  0.00    +0.000 NA
ENDBRANCH   6  14
TORSDOF 2
ENDMDL
MODEL 9
REMARK VINA RESULT:      -6.1      1.813      6.006
REMARK  Name = 
REMARK  2 active torsions:
REMARK  status: ('A' for Active; 'I' for Inactive)
REMARK    1  A    between atoms: N_3  and  C_4
REMARK    2  A    between atoms: C_11  and  N_12
REMARK                            x       y       z     vdW  Elec       q    Type
REMARK                         _______ _______ _______ _____ _____    ______ ____
ROOT
ATOM      1  O   UNL     1       5.141   6.741  15.567  0.00  0.00    +0.000 OA
ATOM      2  C   UNL     1       5.862   5.882  16.063  0.00  0.00    +0.000 C 
ATOM      3  N   UNL     1       6.553   4.953  15.329  0.00  0.00    +0.000 N 
ATOM      4  N   UNL     1       6.052   5.788  17.412  0.00  0.00    +0.000 N 
ATOM      5  C   UNL     1       6.734   4.864  18.292  0.00  0.00    +0.000 C 
ATOM      6  C   UNL     1       5.601   5.106  19.311  0.00  0.00    +0.000 C 
ATOM      7  C   UNL     1       5.212   6.333  18.462  0.00  0.00    +0.000 C 
ATOM      8  H   UNL     1       6.617   4.064  15.798  0.00  0.00    +0.000 HD
ENDROOT
BRANCH   3   9
ATOM      9  C   UNL     1       6.395   4.893  13.886  0.00  0.00    +0.000 C 
ATOM     10  C   UNL     1       7.714   5.015  13.124  0.00  0.00    +0.000 C 
ATOM     11  C   UNL     1       7.418   4.410  11.760  0.00  0.00    +0.000 C 
ATOM     12  C   UNL     1       6.331   3.366  11.989  0.00  0.00    +0.000 C 
ATOM     13  C   UNL     1       5.863   3.535  13.433  0.00  0.00    +0.000 C 
ENDBRANCH   3   9
BRANCH   6  14
ATOM     14  N   UNL     1       4.583   4.081  19.272  0.00  0.00    +0.000 N 
ATOM     15  N   UNL     1       3.355   4.262  18.713  0.00  0.00    +0.000 NA
ATOM     16  C   UNL     1       2.811   3.050  18.845  0.00  0.00    +0.000 A 
ATOM     17  C   UNL     1       3.719   2.185  19.460  0.00  0.00    +0.000 A 
ATOM     18  N   UNL     1       4.859   2.832  19.722  0.00  0.00    +0.000 NA
ENDBRANCH   6  14
TORSDOF 2
ENDMDL
