MODEL 1
REMARK VINA RESULT:      -8.9      0.000      0.000
REMARK  Name = 
REMARK  5 active torsions:
REMARK  status: ('A' for Active; 'I' for Inactive)
REMARK    1  A    between atoms: C_1  and  O_2
REMARK    2  A    between atoms: O_2  and  C_3
REMARK    3  A    between atoms: C_5  and  C_6
REMARK    4  A    between atoms: C_8  and  N_9
REMARK    5  A    between atoms: C_10  and  C_11
REMARK                            x       y       z     vdW  Elec       q    Type
REMARK                         _______ _______ _______ _____ _____    ______ ____
ROOT
ATOM      1  C   UNL     1       3.142   5.770  18.293  0.00  0.00    +0.000 A 
ATOM      2  C   UNL     1       4.066   5.565  17.216  0.00  0.00    +0.000 A 
ATOM      3  C   UNL     1       4.742   6.589  16.496  0.00  0.00    +0.000 A 
ATOM      4  C   UNL     1       5.616   6.316  15.442  0.00  0.00    +0.000 A 
ATOM      5  C   UNL     1       5.864   5.003  15.078  0.00  0.00    +0.000 A 
ATOM      6  C   UNL     1       5.244   3.972  15.779  0.00  0.00    +0.000 A 
ATOM      7  C   UNL     1       4.357   4.237  16.839  0.00  0.00    +0.000 A 
ATOM      8  C   UNL     1       3.769   3.168  17.532  0.00  0.00    +0.000 A 
ATOM      9  C   UNL     1       2.888   3.368  18.605  0.00  0.00    +0.000 A 
ATOM     10  C   UNL     1       2.343   2.253  19.266  0.00  0.00    +0.000 A 
ATOM     11  C   UNL     1       1.458   2.407  20.329  0.00  0.00    +0.000 A 
ATOM     12  C   UNL     1       1.100   3.682  20.739  0.00  0.00    +0.000 A 
ATOM     13  C   UNL     1       1.631   4.798  20.085  0.00  0.00    +0.000 A 
ATOM     14  C   UNL     1       2.551   4.679  19.008  0.00  0.00    +0.000 A 
ENDROOT
BRANCH   1  16
ATOM     15  N   UNL     1       1.991   7.897  18.020  0.00  0.00    +0.000 NA
ATOM     16  C   UNL     1       2.783   7.153  18.718  0.00  0.00    +0.000 C 
BRANCH  15  22
ATOM     17  C   UNL     1       1.973  11.393  18.353  0.00  0.00    +0.000 A 
ATOM     18  N   UNL     1       1.109  11.608  19.344  0.00  0.00    +0.000 NA
ATOM     19  C   UNL     1       0.558  10.504  19.844  0.00  0.00    +0.000 A 
ATOM     20  C   UNL     1      -0.433  10.653  20.957  0.00  0.00    +0.000 C 
ATOM     21  N   UNL     1       0.825   9.273  19.423  0.00  0.00    +0.000 NA
ATOM     22  C   UNL     1       1.707   9.197  18.432  0.00  0.00    +0.000 A 
ATOM     23  N   UNL     1       2.308  10.219  17.842  0.00  0.00    +0.000 NA
BRANCH  17  25
ATOM     24  C   UNL     1       2.477  13.653  18.525  0.00  0.00    +0.000 C 
ATOM     25  O   UNL     1       2.571  12.473  17.739  0.00  0.00    +0.000 OA
ENDBRANCH  17  25
ENDBRANCH  15  22
ENDBRANCH   1  16
TORSDOF 3
ENDMDL
MODEL 2
REMARK VINA RESULT:      -8.8      0.223      3.701
REMARK  Name = 
REMARK  5 active torsions:
REMARK  status: ('A' for Active; 'I' for Inactive)
REMARK    1  A    between atoms: C_1  and  O_2
REMARK    2  A    between atoms: O_2  and  C_3
REMARK    3  A    between atoms: C_5  and  C_6
REMARK    4  A    between atoms: C_8  and  N_9
REMARK    5  A    between atoms: C_10  and  C_11
REMARK                            x       y       z     vdW  Elec       q    Type
REMARK                         _______ _______ _______ _____ _____    ______ ____
ROOT
ATOM      1  C   UNL     1       3.078   5.823  18.421  0.00  0.00    +0.000 A 
ATOM      2  C   UNL     1       2.494   4.692  19.081  0.00  0.00    +0.000 A 
ATOM      3  C   UNL     1       1.552   4.747  20.145  0.00  0.00    +0.000 A 
ATOM      4  C   UNL     1       1.038   3.600  20.754  0.00  0.00    +0.000 A 
ATOM      5  C   UNL     1       1.433   2.350  20.310  0.00  0.00    +0.000 A 
ATOM      6  C   UNL     1       2.332   2.255  19.251  0.00  0.00    +0.000 A 
ATOM      7  C   UNL     1       2.860   3.405  18.633  0.00  0.00    +0.000 A 
ATOM      8  C   UNL     1       3.746   3.264  17.555  0.00  0.00    +0.000 A 
ATOM      9  C   UNL     1       4.295   4.370  16.890  0.00  0.00    +0.000 A 
ATOM     10  C   UNL     1       5.168   4.162  15.808  0.00  0.00    +0.000 A 
ATOM     11  C   UNL     1       5.741   5.232  15.128  0.00  0.00    +0.000 A 
ATOM     12  C   UNL     1       5.454   6.528  15.528  0.00  0.00    +0.000 A 
ATOM     13  C   UNL     1       4.592   6.748  16.607  0.00  0.00    +0.000 A 
ATOM     14  C   UNL     1       3.974   5.680  17.314  0.00  0.00    +0.000 A 
ENDROOT
BRANCH   1  16
ATOM     15  N   UNL     1       1.916   7.951  18.213  0.00  0.00    +0.000 NA
ATOM     16  C   UNL     1       2.743   7.205  18.868  0.00  0.00    +0.000 C 
BRANCH  15  22
ATOM     17  C   UNL     1       1.874  11.450  18.520  0.00  0.00    +0.000 A 
ATOM     18  N   UNL     1       1.115  11.659  19.594  0.00  0.00    +0.000 NA
ATOM     19  C   UNL     1       0.638  10.552  20.157  0.00  0.00    +0.000 A 
ATOM     20  C   UNL     1      -0.234  10.695  21.366  0.00  0.00    +0.000 C 
ATOM     21  N   UNL     1       0.880   9.322  19.720  0.00  0.00    +0.000 NA
ATOM     22  C   UNL     1       1.656   9.250  18.643  0.00  0.00    +0.000 A 
ATOM     23  N   UNL     1       2.173  10.277  17.986  0.00  0.00    +0.000 NA
BRANCH  17  25
ATOM     24  C   UNL     1       2.131  13.757  18.514  0.00  0.00    +0.000 C 
ATOM     25  O   UNL     1       2.387  12.533  17.838  0.00  0.00    +0.000 OA
ENDBRANCH  17  25
ENDBRANCH  15  22
ENDBRANCH   1  16
TORSDOF 3
ENDMDL
MODEL 3
REMARK VINA RESULT:      -8.7      1.091      2.033
REMARK  Name = 
REMARK  5 active torsions:
REMARK  status: ('A' for Active; 'I' for Inactive)
REMARK    1  A    between atoms: C_1  and  O_2
REMARK    2  A    between atoms: O_2  and  C_3
REMARK    3  A    between atoms: C_5  and  C_6
REMARK    4  A    between atoms: C_8  and  N_9
REMARK    5  A    between atoms: C_10  and  C_11
REMARK                            x       y       z     vdW  Elec       q    Type
REMARK                         _______ _______ _______ _____ _____    ______ ____
ROOT
ATOM      1  C   UNL     1       3.051   5.829  18.444  0.00  0.00    +0.000 A 
ATOM      2  C   UNL     1       3.966   5.704  17.347  0.00  0.00    +0.000 A 
ATOM      3  C   UNL     1       4.618   6.779  16.683  0.00  0.00    +0.000 A 
ATOM      4  C   UNL     1       5.485   6.583  15.606  0.00  0.00    +0.000 A 
ATOM      5  C   UNL     1       5.748   5.299  15.161  0.00  0.00    +0.000 A 
ATOM      6  C   UNL     1       5.151   4.218  15.804  0.00  0.00    +0.000 A 
ATOM      7  C   UNL     1       4.272   4.405  16.888  0.00  0.00    +0.000 A 
ATOM      8  C   UNL     1       3.708   3.288  17.521  0.00  0.00    +0.000 A 
ATOM      9  C   UNL     1       2.836   3.409  18.613  0.00  0.00    +0.000 A 
ATOM     10  C   UNL     1       2.315   2.248  19.211  0.00  0.00    +0.000 A 
ATOM     11  C   UNL     1       1.440   2.325  20.291  0.00  0.00    +0.000 A 
ATOM     12  C   UNL     1       1.068   3.567  20.781  0.00  0.00    +0.000 A 
ATOM     13  C   UNL     1       1.575   4.728  20.190  0.00  0.00    +0.000 A 
ATOM     14  C   UNL     1       2.485   4.688  19.098  0.00  0.00    +0.000 A 
ENDROOT
BRANCH   1  16
ATOM     15  N   UNL     1       1.840   7.937  18.329  0.00  0.00    +0.000 NA
ATOM     16  C   UNL     1       2.677   7.178  18.955  0.00  0.00    +0.000 C 
BRANCH  15  22
ATOM     17  C   UNL     1       0.498  10.595  20.191  0.00  0.00    +0.000 A 
ATOM     18  N   UNL     1       1.031  11.675  19.621  0.00  0.00    +0.000 NA
ATOM     19  C   UNL     1       1.855  11.415  18.608  0.00  0.00    +0.000 A 
ATOM     20  C   UNL     1       2.505  12.571  17.915  0.00  0.00    +0.000 C 
ATOM     21  N   UNL     1       2.144  10.196  18.168  0.00  0.00    +0.000 NA
ATOM     22  C   UNL     1       1.543   9.206  18.820  0.00  0.00    +0.000 A 
ATOM     23  N   UNL     1       0.720   9.336  19.850  0.00  0.00    +0.000 NA
BRANCH  17  25
ATOM     24  C   UNL     1      -0.016   9.857  22.331  0.00  0.00    +0.000 C 
ATOM     25  O   UNL     1      -0.339  10.752  21.275  0.00  0.00    +0.000 OA
ENDBRANCH  17  25
ENDBRANCH  15  22
ENDBRANCH   1  16
TORSDOF 3
ENDMDL
MODEL 4
REMARK VINA RESULT:      -8.7      1.939      2.530
REMARK  Name = 
REMARK  5 active torsions:
REMARK  status: ('A' for Active; 'I' for Inactive)
REMARK    1  A    between atoms: C_1  and  O_2
REMARK    2  A    between atoms: O_2  and  C_3
REMARK    3  A    between atoms: C_5  and  C_6
REMARK    4  A    between atoms: C_8  and  N_9
REMARK    5  A    between atoms: C_10  and  C_11
REMARK                            x       y       z     vdW  Elec       q    Type
REMARK                         _______ _______ _______ _____ _____    ______ ____
ROOT
ATOM      1  C   UNL     1       3.165   5.623  18.255  0.00  0.00    +0.000 A 
ATOM      2  C   UNL     1       4.460   5.719  17.648  0.00  0.00    +0.000 A 
ATOM      3  C   UNL     1       5.191   6.922  17.440  0.00  0.00    +0.000 A 
ATOM      4  C   UNL     1       6.444   6.943  16.823  0.00  0.00    +0.000 A 
ATOM      5  C   UNL     1       7.024   5.757  16.406  0.00  0.00    +0.000 A 
ATOM      6  C   UNL     1       6.352   4.556  16.619  0.00  0.00    +0.000 A 
ATOM      7  C   UNL     1       5.087   4.525  17.236  0.00  0.00    +0.000 A 
ATOM      8  C   UNL     1       4.455   3.291  17.451  0.00  0.00    +0.000 A 
ATOM      9  C   UNL     1       3.201   3.194  18.071  0.00  0.00    +0.000 A 
ATOM     10  C   UNL     1       2.626   1.926  18.269  0.00  0.00    +0.000 A 
ATOM     11  C   UNL     1       1.379   1.786  18.872  0.00  0.00    +0.000 A 
ATOM     12  C   UNL     1       0.687   2.916  19.278  0.00  0.00    +0.000 A 
ATOM     13  C   UNL     1       1.245   4.182  19.081  0.00  0.00    +0.000 A 
ATOM     14  C   UNL     1       2.524   4.363  18.485  0.00  0.00    +0.000 A 
ENDROOT
BRANCH   1  16
ATOM     15  N   UNL     1       2.337   7.174  19.937  0.00  0.00    +0.000 NA
ATOM     16  C   UNL     1       2.448   6.855  18.691  0.00  0.00    +0.000 C 
BRANCH  15  22
ATOM     17  C   UNL     1       0.641   9.630  21.788  0.00  0.00    +0.000 A 
ATOM     18  N   UNL     1       0.242  10.499  20.861  0.00  0.00    +0.000 NA
ATOM     19  C   UNL     1       0.602  10.185  19.619  0.00  0.00    +0.000 A 
ATOM     20  C   UNL     1       0.203  11.113  18.513  0.00  0.00    +0.000 C 
ATOM     21  N   UNL     1       1.297   9.103  19.289  0.00  0.00    +0.000 NA
ATOM     22  C   UNL     1       1.629   8.315  20.307  0.00  0.00    +0.000 A 
ATOM     23  N   UNL     1       1.345   8.529  21.582  0.00  0.00    +0.000 NA
BRANCH  17  25
ATOM     24  C   UNL     1      -0.929  10.474  23.276  0.00  0.00    +0.000 C 
ATOM     25  O   UNL     1       0.353   9.882  23.113  0.00  0.00    +0.000 OA
ENDBRANCH  17  25
ENDBRANCH  15  22
ENDBRANCH   1  16
TORSDOF 3
ENDMDL
MODEL 5
REMARK VINA RESULT:      -8.7      1.703      3.920
REMARK  Name = 
REMARK  5 active torsions:
REMARK  status: ('A' for Active; 'I' for Inactive)
REMARK    1  A    between atoms: C_1  and  O_2
REMARK    2  A    between atoms: O_2  and  C_3
REMARK    3  A    between atoms: C_5  and  C_6
REMARK    4  A    between atoms: C_8  and  N_9
REMARK    5  A    between atoms: C_10  and  C_11
REMARK                            x       y       z     vdW  Elec       q    Type
REMARK                         _______ _______ _______ _____ _____    ______ ____
ROOT
ATOM      1  C   UNL     1       3.222   5.590  18.246  0.00  0.00    +0.000 A 
ATOM      2  C   UNL     1       2.616   4.300  18.398  0.00  0.00    +0.000 A 
ATOM      3  C   UNL     1       1.291   4.054  18.855  0.00  0.00    +0.000 A 
ATOM      4  C   UNL     1       0.771   2.766  18.997  0.00  0.00    +0.000 A 
ATOM      5  C   UNL     1       1.551   1.670  18.669  0.00  0.00    +0.000 A 
ATOM      6  C   UNL     1       2.843   1.871  18.190  0.00  0.00    +0.000 A 
ATOM      7  C   UNL     1       3.378   3.166  18.047  0.00  0.00    +0.000 A 
ATOM      8  C   UNL     1       4.677   3.324  17.541  0.00  0.00    +0.000 A 
ATOM      9  C   UNL     1       5.260   4.587  17.364  0.00  0.00    +0.000 A 
ATOM     10  C   UNL     1       6.561   4.679  16.840  0.00  0.00    +0.000 A 
ATOM     11  C   UNL     1       7.180   5.912  16.657  0.00  0.00    +0.000 A 
ATOM     12  C   UNL     1       6.505   7.072  17.006  0.00  0.00    +0.000 A 
ATOM     13  C   UNL     1       5.213   6.993  17.535  0.00  0.00    +0.000 A 
ATOM     14  C   UNL     1       4.543   5.752  17.718  0.00  0.00    +0.000 A 
ENDROOT
BRANCH   1  16
ATOM     15  N   UNL     1       2.300   7.167  19.853  0.00  0.00    +0.000 NA
ATOM     16  C   UNL     1       2.469   6.820  18.621  0.00  0.00    +0.000 C 
BRANCH  15  22
ATOM     17  C   UNL     1       0.648  10.261  19.672  0.00  0.00    +0.000 A 
ATOM     18  N   UNL     1       0.177  10.435  20.906  0.00  0.00    +0.000 NA
ATOM     19  C   UNL     1       0.453   9.442  21.748  0.00  0.00    +0.000 A 
ATOM     20  C   UNL     1      -0.046   9.551  23.155  0.00  0.00    +0.000 C 
ATOM     21  N   UNL     1       1.143   8.354  21.426  0.00  0.00    +0.000 NA
ATOM     22  C   UNL     1       1.560   8.304  20.165  0.00  0.00    +0.000 A 
ATOM     23  N   UNL     1       1.334   9.218  19.233  0.00  0.00    +0.000 NA
BRANCH  17  25
ATOM     24  C   UNL     1      -0.992  11.569  18.678  0.00  0.00    +0.000 C 
ATOM     25  O   UNL     1       0.384  11.214  18.712  0.00  0.00    +0.000 OA
ENDBRANCH  17  25
ENDBRANCH  15  22
ENDBRANCH   1  16
TORSDOF 3
ENDMDL
MODEL 6
REMARK VINA RESULT:      -8.7      1.719      1.925
REMARK  Name = 
REMARK  5 active torsions:
REMARK  status: ('A' for Active; 'I' for Inactive)
REMARK    1  A    between atoms: C_1  and  O_2
REMARK    2  A    between atoms: O_2  and  C_3
REMARK    3  A    between atoms: C_5  and  C_6
REMARK    4  A    between atoms: C_8  and  N_9
REMARK    5  A    between atoms: C_10  and  C_11
REMARK                            x       y       z     vdW  Elec       q    Type
REMARK                         _______ _______ _______ _____ _____    ______ ____
ROOT
ATOM      1  C   UNL     1       3.128   5.642  18.328  0.00  0.00    +0.000 A 
ATOM      2  C   UNL     1       4.452   5.780  17.795  0.00  0.00    +0.000 A 
ATOM      3  C   UNL     1       5.145   7.007  17.600  0.00  0.00    +0.000 A 
ATOM      4  C   UNL     1       6.429   7.067  17.057  0.00  0.00    +0.000 A 
ATOM      5  C   UNL     1       7.081   5.898  16.703  0.00  0.00    +0.000 A 
ATOM      6  C   UNL     1       6.447   4.675  16.905  0.00  0.00    +0.000 A 
ATOM      7  C   UNL     1       5.150   4.604  17.448  0.00  0.00    +0.000 A 
ATOM      8  C   UNL     1       4.557   3.350  17.656  0.00  0.00    +0.000 A 
ATOM      9  C   UNL     1       3.273   3.213  18.204  0.00  0.00    +0.000 A 
ATOM     10  C   UNL     1       2.740   1.927  18.399  0.00  0.00    +0.000 A 
ATOM     11  C   UNL     1       1.466   1.748  18.932  0.00  0.00    +0.000 A 
ATOM     12  C   UNL     1       0.706   2.857  19.270  0.00  0.00    +0.000 A 
ATOM     13  C   UNL     1       1.223   4.141  19.075  0.00  0.00    +0.000 A 
ATOM     14  C   UNL     1       2.526   4.362  18.550  0.00  0.00    +0.000 A 
ENDROOT
BRANCH   1  16
ATOM     15  N   UNL     1       2.241   7.262  19.912  0.00  0.00    +0.000 NA
ATOM     16  C   UNL     1       2.338   6.852  18.691  0.00  0.00    +0.000 C 
BRANCH  15  22
ATOM     17  C   UNL     1       0.462  10.283  19.702  0.00  0.00    +0.000 A 
ATOM     18  N   UNL     1       0.017  10.469  20.944  0.00  0.00    +0.000 NA
ATOM     19  C   UNL     1       0.356   9.510  21.801  0.00  0.00    +0.000 A 
ATOM     20  C   UNL     1      -0.110   9.635  23.219  0.00  0.00    +0.000 C 
ATOM     21  N   UNL     1       1.079   8.441  21.487  0.00  0.00    +0.000 NA
ATOM     22  C   UNL     1       1.464   8.377  20.217  0.00  0.00    +0.000 A 
ATOM     23  N   UNL     1       1.177   9.257  19.269  0.00  0.00    +0.000 NA
BRANCH  17  25
ATOM     24  C   UNL     1      -1.168  10.977  18.202  0.00  0.00    +0.000 C 
ATOM     25  O   UNL     1       0.134  11.200  18.726  0.00  0.00    +0.000 OA
ENDBRANCH  17  25
ENDBRANCH  15  22
ENDBRANCH   1  16
TORSDOF 3
ENDMDL
MODEL 7
REMARK VINA RESULT:      -8.7      1.667      4.387
REMARK  Name = 
REMARK  5 active torsions:
REMARK  status: ('A' for Active; 'I' for Inactive)
REMARK    1  A    between atoms: C_1  and  O_2
REMARK    2  A    between atoms: O_2  and  C_3
REMARK    3  A    between atoms: C_5  and  C_6
REMARK    4  A    between atoms: C_8  and  N_9
REMARK    5  A    between atoms: C_10  and  C_11
REMARK                            x       y       z     vdW  Elec       q    Type
REMARK                         _______ _______ _______ _____ _____    ______ ____
ROOT
ATOM      1  C   UNL     1       2.922   5.732  18.518  0.00  0.00    +0.000 A 
ATOM      2  C   UNL     1       2.420   4.553  19.162  0.00  0.00    +0.000 A 
ATOM      3  C   UNL     1       1.448   4.525  20.200  0.00  0.00    +0.000 A 
ATOM      4  C   UNL     1       1.018   3.337  20.795  0.00  0.00    +0.000 A 
ATOM      5  C   UNL     1       1.531   2.126  20.362  0.00  0.00    +0.000 A 
ATOM      6  C   UNL     1       2.463   2.111  19.327  0.00  0.00    +0.000 A 
ATOM      7  C   UNL     1       2.906   3.303  18.724  0.00  0.00    +0.000 A 
ATOM      8  C   UNL     1       3.830   3.242  17.670  0.00  0.00    +0.000 A 
ATOM      9  C   UNL     1       4.300   4.392  17.021  0.00  0.00    +0.000 A 
ATOM     10  C   UNL     1       5.216   4.262  15.962  0.00  0.00    +0.000 A 
ATOM     11  C   UNL     1       5.714   5.379  15.298  0.00  0.00    +0.000 A 
ATOM     12  C   UNL     1       5.305   6.644  15.690  0.00  0.00    +0.000 A 
ATOM     13  C   UNL     1       4.399   6.787  16.745  0.00  0.00    +0.000 A 
ATOM     14  C   UNL     1       3.857   5.668  17.435  0.00  0.00    +0.000 A 
ENDROOT
BRANCH   1  16
ATOM     15  N   UNL     1       1.848   7.257  20.080  0.00  0.00    +0.000 NA
ATOM     16  C   UNL     1       2.458   7.078  18.956  0.00  0.00    +0.000 C 
BRANCH  15  22
ATOM     17  C   UNL     1       0.544   9.986  21.867  0.00  0.00    +0.000 A 
ATOM     18  N   UNL     1       0.529  10.969  20.968  0.00  0.00    +0.000 NA
ATOM     19  C   UNL     1       0.995  10.627  19.769  0.00  0.00    +0.000 A 
ATOM     20  C   UNL     1       1.023  11.674  18.699  0.00  0.00    +0.000 C 
ATOM     21  N   UNL     1       1.441   9.417  19.452  0.00  0.00    +0.000 NA
ATOM     22  C   UNL     1       1.398   8.526  20.438  0.00  0.00    +0.000 A 
ATOM     23  N   UNL     1       0.974   8.749  21.673  0.00  0.00    +0.000 NA
BRANCH  17  25
ATOM     24  C   UNL     1      -1.172  10.842  23.176  0.00  0.00    +0.000 C 
ATOM     25  O   UNL     1       0.118  10.245  23.152  0.00  0.00    +0.000 OA
ENDBRANCH  17  25
ENDBRANCH  15  22
ENDBRANCH   1  16
TORSDOF 3
ENDMDL
MODEL 8
REMARK VINA RESULT:      -8.5      1.086      4.162
REMARK  Name = 
REMARK  5 active torsions:
REMARK  status: ('A' for Active; 'I' for Inactive)
REMARK    1  A    between atoms: C_1  and  O_2
REMARK    2  A    between atoms: O_2  and  C_3
REMARK    3  A    between atoms: C_5  and  C_6
REMARK    4  A    between atoms: C_8  and  N_9
REMARK    5  A    between atoms: C_10  and  C_11
REMARK                            x       y       z     vdW  Elec       q    Type
REMARK                         _______ _______ _______ _____ _____    ______ ____
ROOT
ATOM      1  C   UNL     1       3.044   5.843  18.502  0.00  0.00    +0.000 A 
ATOM      2  C   UNL     1       2.482   4.692  19.145  0.00  0.00    +0.000 A 
ATOM      3  C   UNL     1       1.548   4.714  20.219  0.00  0.00    +0.000 A 
ATOM      4  C   UNL     1       1.056   3.550  20.811  0.00  0.00    +0.000 A 
ATOM      5  C   UNL     1       1.465   2.313  20.340  0.00  0.00    +0.000 A 
ATOM      6  C   UNL     1       2.355   2.250  19.272  0.00  0.00    +0.000 A 
ATOM      7  C   UNL     1       2.861   3.418  18.670  0.00  0.00    +0.000 A 
ATOM      8  C   UNL     1       3.740   3.310  17.583  0.00  0.00    +0.000 A 
ATOM      9  C   UNL     1       4.267   4.435  16.934  0.00  0.00    +0.000 A 
ATOM     10  C   UNL     1       5.133   4.259  15.840  0.00  0.00    +0.000 A 
ATOM     11  C   UNL     1       5.686   5.349  15.175  0.00  0.00    +0.000 A 
ATOM     12  C   UNL     1       5.384   6.633  15.601  0.00  0.00    +0.000 A 
ATOM     13  C   UNL     1       4.529   6.822  16.691  0.00  0.00    +0.000 A 
ATOM     14  C   UNL     1       3.932   5.732  17.384  0.00  0.00    +0.000 A 
ENDROOT
BRANCH   1  16
ATOM     15  N   UNL     1       1.782   7.920  18.399  0.00  0.00    +0.000 NA
ATOM     16  C   UNL     1       2.694   7.211  18.976  0.00  0.00    +0.000 C 
BRANCH  15  22
ATOM     17  C   UNL     1       0.472  10.661  20.163  0.00  0.00    +0.000 A 
ATOM     18  N   UNL     1       1.044  11.711  19.576  0.00  0.00    +0.000 NA
ATOM     19  C   UNL     1       1.880  11.403  18.587  0.00  0.00    +0.000 A 
ATOM     20  C   UNL     1       2.574  12.524  17.876  0.00  0.00    +0.000 C 
ATOM     21  N   UNL     1       2.146  10.166  18.185  0.00  0.00    +0.000 NA
ATOM     22  C   UNL     1       1.507   9.209  18.851  0.00  0.00    +0.000 A 
ATOM     23  N   UNL     1       0.668   9.388  19.860  0.00  0.00    +0.000 NA
BRANCH  17  25
ATOM     24  C   UNL     1      -1.350  11.870  20.943  0.00  0.00    +0.000 C 
ATOM     25  O   UNL     1      -0.382  10.869  21.225  0.00  0.00    +0.000 OA
ENDBRANCH  17  25
ENDBRANCH  15  22
ENDBRANCH   1  16
TORSDOF 3
ENDMDL
MODEL 9
REMARK VINA RESULT:      -8.4      1.139      3.920
REMARK  Name = 
REMARK  5 active torsions:
REMARK  status: ('A' for Active; 'I' for Inactive)
REMARK    1  A    between atoms: C_1  and  O_2
REMARK    2  A    between atoms: O_2  and  C_3
REMARK    3  A    between atoms: C_5  and  C_6
REMARK    4  A    between atoms: C_8  and  N_9
REMARK    5  A    between atoms: C_10  and  C_11
REMARK                            x       y       z     vdW  Elec       q    Type
REMARK                         _______ _______ _______ _____ _____    ______ ____
ROOT
ATOM      1  C   UNL     1       2.840   5.739  18.472  0.00  0.00    +0.000 A 
ATOM      2  C   UNL     1       2.409   4.555  19.156  0.00  0.00    +0.000 A 
ATOM      3  C   UNL     1       1.398   4.494  20.154  0.00  0.00    +0.000 A 
ATOM      4  C   UNL     1       1.042   3.305  20.793  0.00  0.00    +0.000 A 
ATOM      5  C   UNL     1       1.672   2.123  20.445  0.00  0.00    +0.000 A 
ATOM      6  C   UNL     1       2.647   2.136  19.451  0.00  0.00    +0.000 A 
ATOM      7  C   UNL     1       3.016   3.331  18.804  0.00  0.00    +0.000 A 
ATOM      8  C   UNL     1       3.988   3.296  17.793  0.00  0.00    +0.000 A 
ATOM      9  C   UNL     1       4.389   4.450  17.103  0.00  0.00    +0.000 A 
ATOM     10  C   UNL     1       5.360   4.346  16.091  0.00  0.00    +0.000 A 
ATOM     11  C   UNL     1       5.792   5.467  15.389  0.00  0.00    +0.000 A 
ATOM     12  C   UNL     1       5.263   6.711  15.698  0.00  0.00    +0.000 A 
ATOM     13  C   UNL     1       4.302   6.828  16.707  0.00  0.00    +0.000 A 
ATOM     14  C   UNL     1       3.824   5.702  17.432  0.00  0.00    +0.000 A 
ENDROOT
BRANCH   1  16
ATOM     15  N   UNL     1       1.959   7.380  20.037  0.00  0.00    +0.000 NA
ATOM     16  C   UNL     1       2.247   7.061  18.819  0.00  0.00    +0.000 C 
BRANCH  15  22
ATOM     17  C   UNL     1       0.857  10.709  19.827  0.00  0.00    +0.000 A 
ATOM     18  N   UNL     1       0.256  10.913  20.998  0.00  0.00    +0.000 NA
ATOM     19  C   UNL     1       0.256   9.857  21.809  0.00  0.00    +0.000 A 
ATOM     20  C   UNL     1      -0.406   9.996  23.145  0.00  0.00    +0.000 C 
ATOM     21  N   UNL     1       0.801   8.683  21.515  0.00  0.00    +0.000 NA
ATOM     22  C   UNL     1       1.372   8.612  20.317  0.00  0.00    +0.000 A 
ATOM     23  N   UNL     1       1.422   9.584  19.419  0.00  0.00    +0.000 NA
BRANCH  17  25
ATOM     24  C   UNL     1       2.167  11.893  18.320  0.00  0.00    +0.000 C 
ATOM     25  O   UNL     1       0.879  11.727  18.897  0.00  0.00    +0.000 OA
ENDBRANCH  17  25
ENDBRANCH  15  22
ENDBRANCH   1  16
TORSDOF 3
ENDMDL
