MODEL 1
REMARK VINA RESULT:      -8.3      0.000      0.000
REMARK  Name = 
REMARK  2 active torsions:
REMARK  status: ('A' for Active; 'I' for Inactive)
REMARK    1  A    between atoms: C_20  and  O_21
REMARK    2  A    between atoms: C_30  and  O_31
REMARK                            x       y       z     vdW  Elec       q    Type
REMARK                         _______ _______ _______ _____ _____    ______ ____
ROOT
ATOM      1  O   UNL     1      -2.524  12.546  22.261  0.00  0.00    +0.000 OA
ATOM      2  C   UNL     1      -1.674  11.684  22.083  0.00  0.00    +0.000 A 
ATOM      3  C   UNL     1      -1.226  10.842  23.210  0.00  0.00    +0.000 A 
ATOM      4  C   UNL     1      -0.373   9.833  23.033  0.00  0.00    +0.000 A 
ATOM      5  C   UNL     1       0.191   9.526  21.702  0.00  0.00    +0.000 A 
ATOM      6  N   UNL     1       0.963   8.493  21.569  0.00  0.00    +0.000 NA
ATOM      7  C   UNL     1       1.495   8.245  20.285  0.00  0.00    +0.000 A 
ATOM      8  C   UNL     1       2.227   7.063  20.123  0.00  0.00    +0.000 A 
ATOM      9  C   UNL     1       2.770   6.727  18.888  0.00  0.00    +0.000 A 
ATOM     10  C   UNL     1       2.571   7.568  17.800  0.00  0.00    +0.000 A 
ATOM     11  C   UNL     1       1.850   8.760  17.950  0.00  0.00    +0.000 A 
ATOM     12  C   UNL     1       1.314   9.139  19.191  0.00  0.00    +0.000 A 
ATOM     13  N   UNL     1       0.566  10.318  19.396  0.00  0.00    +0.000 N 
ATOM     14  C   UNL     1      -0.142  10.474  20.592  0.00  0.00    +0.000 A 
ATOM     15  C   UNL     1      -1.038  11.462  20.765  0.00  0.00    +0.000 A 
ATOM     16  C   UNL     1      -1.346  12.432  19.636  0.00  0.00    +0.000 C 
ATOM     17  C   UNL     1      -0.595  13.714  19.878  0.00  0.00    +0.000 A 
ATOM     18  N   UNL     1      -1.326  14.812  20.162  0.00  0.00    +0.000 NA
ATOM     19  C   UNL     1      -0.649  15.960  20.307  0.00  0.00    +0.000 A 
ATOM     20  C   UNL     1      -1.374  17.126  20.502  0.00  0.00    +0.000 A 
ATOM     21  C   UNL     1      -0.761  18.357  20.658  0.00  0.00    +0.000 A 
ATOM     22  C   UNL     1       0.627  18.415  20.653  0.00  0.00    +0.000 A 
ATOM     23  C   UNL     1       1.373  17.245  20.440  0.00  0.00    +0.000 A 
ATOM     24  C   UNL     1       0.761  16.013  20.227  0.00  0.00    +0.000 A 
ATOM     25  N   UNL     1       1.475  14.909  19.896  0.00  0.00    +0.000 NA
ATOM     26  C   UNL     1       0.784  13.764  19.675  0.00  0.00    +0.000 A 
ATOM     27  C   UNL     1       1.510  12.607  19.008  0.00  0.00    +0.000 C 
ATOM     28  C   UNL     1       0.605  11.459  18.448  0.00  0.00    +0.000 C 
ATOM     29  C   UNL     1      -0.857  11.921  18.259  0.00  0.00    +0.000 C 
ENDROOT
BRANCH  20  30
ATOM     30  O   UNL     1      -2.747  17.071  20.507  0.00  0.00    +0.000 OA
ATOM     31  H   UNL     1      -3.022  17.675  19.782  0.00  0.00    +0.000 HD
ENDBRANCH  20  30
BRANCH  29  32
ATOM     32  O   UNL     1      -0.992  12.863  17.183  0.00  0.00    +0.000 OA
ATOM     33  H   UNL     1      -1.926  13.100  17.035  0.00  0.00    +0.000 HD
ENDBRANCH  29  32
TORSDOF 2
ENDMDL
MODEL 2
REMARK VINA RESULT:      -7.8      3.307      6.341
REMARK  Name = 
REMARK  2 active torsions:
REMARK  status: ('A' for Active; 'I' for Inactive)
REMARK    1  A    between atoms: C_20  and  O_21
REMARK    2  A    between atoms: C_30  and  O_31
REMARK                            x       y       z     vdW  Elec       q    Type
REMARK                         _______ _______ _______ _____ _____    ______ ____
ROOT
ATOM      1  O   UNL     1      -1.541  11.046  17.321  0.00  0.00    +0.000 OA
ATOM      2  C   UNL     1      -2.572  11.421  17.864  0.00  0.00    +0.000 A 
ATOM      3  C   UNL     1      -3.823  11.522  17.088  0.00  0.00    +0.000 A 
ATOM      4  C   UNL     1      -4.982  11.835  17.668  0.00  0.00    +0.000 A 
ATOM      5  C   UNL     1      -5.066  12.128  19.113  0.00  0.00    +0.000 A 
ATOM      6  N   UNL     1      -6.226  12.359  19.642  0.00  0.00    +0.000 NA
ATOM      7  C   UNL     1      -6.260  12.652  21.024  0.00  0.00    +0.000 A 
ATOM      8  C   UNL     1      -7.524  12.782  21.609  0.00  0.00    +0.000 A 
ATOM      9  C   UNL     1      -7.654  13.049  22.968  0.00  0.00    +0.000 A 
ATOM     10  C   UNL     1      -6.514  13.173  23.753  0.00  0.00    +0.000 A 
ATOM     11  C   UNL     1      -5.242  13.057  23.178  0.00  0.00    +0.000 A 
ATOM     12  C   UNL     1      -5.080  12.816  21.804  0.00  0.00    +0.000 A 
ATOM     13  N   UNL     1      -3.825  12.673  21.175  0.00  0.00    +0.000 N 
ATOM     14  C   UNL     1      -3.773  12.177  19.868  0.00  0.00    +0.000 A 
ATOM     15  C   UNL     1      -2.614  11.817  19.290  0.00  0.00    +0.000 A 
ATOM     16  C   UNL     1      -1.307  11.897  20.062  0.00  0.00    +0.000 C 
ATOM     17  C   UNL     1      -0.575  13.147  19.649  0.00  0.00    +0.000 A 
ATOM     18  N   UNL     1       0.578  12.989  18.968  0.00  0.00    +0.000 NA
ATOM     19  C   UNL     1       1.253  14.107  18.667  0.00  0.00    +0.000 A 
ATOM     20  C   UNL     1       2.492  13.978  18.055  0.00  0.00    +0.000 A 
ATOM     21  C   UNL     1       3.260  15.077  17.712  0.00  0.00    +0.000 A 
ATOM     22  C   UNL     1       2.756  16.346  17.960  0.00  0.00    +0.000 A 
ATOM     23  C   UNL     1       1.512  16.491  18.594  0.00  0.00    +0.000 A 
ATOM     24  C   UNL     1       0.759  15.391  18.992  0.00  0.00    +0.000 A 
ATOM     25  N   UNL     1      -0.380  15.528  19.716  0.00  0.00    +0.000 NA
ATOM     26  C   UNL     1      -1.023  14.393  20.085  0.00  0.00    +0.000 A 
ATOM     27  C   UNL     1      -2.109  14.499  21.144  0.00  0.00    +0.000 C 
ATOM     28  C   UNL     1      -2.566  13.151  21.797  0.00  0.00    +0.000 C 
ATOM     29  C   UNL     1      -1.523  12.031  21.589  0.00  0.00    +0.000 C 
ENDROOT
BRANCH  20  30
ATOM     30  O   UNL     1       2.993  12.722  17.810  0.00  0.00    +0.000 OA
ATOM     31  H   UNL     1       2.206  12.133  17.830  0.00  0.00    +0.000 HD
ENDBRANCH  20  30
BRANCH  29  32
ATOM     32  O   UNL     1      -0.326  12.257  22.350  0.00  0.00    +0.000 OA
ATOM     33  H   UNL     1       0.273  12.877  21.894  0.00  0.00    +0.000 HD
ENDBRANCH  29  32
TORSDOF 2
ENDMDL
MODEL 3
REMARK VINA RESULT:      -7.4      5.436      8.697
REMARK  Name = 
REMARK  2 active torsions:
REMARK  status: ('A' for Active; 'I' for Inactive)
REMARK    1  A    between atoms: C_20  and  O_21
REMARK    2  A    between atoms: C_30  and  O_31
REMARK                            x       y       z     vdW  Elec       q    Type
REMARK                         _______ _______ _______ _____ _____    ______ ____
ROOT
ATOM      1  O   UNL     1      -7.746  15.199  22.663  0.00  0.00    +0.000 OA
ATOM      2  C   UNL     1      -6.777  15.823  23.074  0.00  0.00    +0.000 A 
ATOM      3  C   UNL     1      -6.731  17.292  22.938  0.00  0.00    +0.000 A 
ATOM      4  C   UNL     1      -5.736  18.012  23.458  0.00  0.00    +0.000 A 
ATOM      5  C   UNL     1      -4.612  17.370  24.170  0.00  0.00    +0.000 A 
ATOM      6  N   UNL     1      -3.704  18.118  24.716  0.00  0.00    +0.000 NA
ATOM      7  C   UNL     1      -2.637  17.464  25.372  0.00  0.00    +0.000 A 
ATOM      8  C   UNL     1      -1.729  18.276  26.061  0.00  0.00    +0.000 A 
ATOM      9  C   UNL     1      -0.660  17.717  26.753  0.00  0.00    +0.000 A 
ATOM     10  C   UNL     1      -0.503  16.337  26.771  0.00  0.00    +0.000 A 
ATOM     11  C   UNL     1      -1.398  15.513  26.077  0.00  0.00    +0.000 A 
ATOM     12  C   UNL     1      -2.470  16.050  25.346  0.00  0.00    +0.000 A 
ATOM     13  N   UNL     1      -3.410  15.268  24.642  0.00  0.00    +0.000 N 
ATOM     14  C   UNL     1      -4.580  15.873  24.172  0.00  0.00    +0.000 A 
ATOM     15  C   UNL     1      -5.607  15.154  23.687  0.00  0.00    +0.000 A 
ATOM     16  C   UNL     1      -5.549  13.635  23.672  0.00  0.00    +0.000 C 
ATOM     17  C   UNL     1      -5.192  13.176  22.283  0.00  0.00    +0.000 A 
ATOM     18  N   UNL     1      -6.138  12.507  21.593  0.00  0.00    +0.000 NA
ATOM     19  C   UNL     1      -5.783  12.045  20.386  0.00  0.00    +0.000 A 
ATOM     20  C   UNL     1      -6.698  11.269  19.688  0.00  0.00    +0.000 A 
ATOM     21  C   UNL     1      -6.416  10.747  18.438  0.00  0.00    +0.000 A 
ATOM     22  C   UNL     1      -5.192  11.040  17.853  0.00  0.00    +0.000 A 
ATOM     23  C   UNL     1      -4.251  11.810  18.555  0.00  0.00    +0.000 A 
ATOM     24  C   UNL     1      -4.505  12.292  19.835  0.00  0.00    +0.000 A 
ATOM     25  N   UNL     1      -3.552  12.926  20.562  0.00  0.00    +0.000 NA
ATOM     26  C   UNL     1      -3.888  13.328  21.813  0.00  0.00    +0.000 A 
ATOM     27  C   UNL     1      -2.770  13.752  22.752  0.00  0.00    +0.000 C 
ATOM     28  C   UNL     1      -3.148  13.856  24.268  0.00  0.00    +0.000 C 
ATOM     29  C   UNL     1      -4.439  13.071  24.592  0.00  0.00    +0.000 C 
ENDROOT
BRANCH  20  30
ATOM     30  O   UNL     1      -7.909  10.977  20.266  0.00  0.00    +0.000 OA
ATOM     31  H   UNL     1      -7.962   9.995  20.248  0.00  0.00    +0.000 HD
ENDBRANCH  20  30
BRANCH  29  32
ATOM     32  O   UNL     1      -4.245  11.651  24.503  0.00  0.00    +0.000 OA
ATOM     33  H   UNL     1      -4.677  11.283  23.711  0.00  0.00    +0.000 HD
ENDBRANCH  29  32
TORSDOF 2
ENDMDL
MODEL 4
REMARK VINA RESULT:      -7.2      2.479      7.416
REMARK  Name = 
REMARK  2 active torsions:
REMARK  status: ('A' for Active; 'I' for Inactive)
REMARK    1  A    between atoms: C_20  and  O_21
REMARK    2  A    between atoms: C_30  and  O_31
REMARK                            x       y       z     vdW  Elec       q    Type
REMARK                         _______ _______ _______ _____ _____    ______ ____
ROOT
ATOM      1  O   UNL     1       2.836  13.164  18.904  0.00  0.00    +0.000 OA
ATOM      2  C   UNL     1       2.328  13.643  19.910  0.00  0.00    +0.000 A 
ATOM      3  C   UNL     1       3.130  14.495  20.810  0.00  0.00    +0.000 A 
ATOM      4  C   UNL     1       2.585  15.109  21.861  0.00  0.00    +0.000 A 
ATOM      5  C   UNL     1       1.157  14.939  22.196  0.00  0.00    +0.000 A 
ATOM      6  N   UNL     1       0.659  15.610  23.188  0.00  0.00    +0.000 NA
ATOM      7  C   UNL     1      -0.707  15.405  23.486  0.00  0.00    +0.000 A 
ATOM      8  C   UNL     1      -1.264  16.220  24.478  0.00  0.00    +0.000 A 
ATOM      9  C   UNL     1      -2.606  16.104  24.822  0.00  0.00    +0.000 A 
ATOM     10  C   UNL     1      -3.404  15.177  24.163  0.00  0.00    +0.000 A 
ATOM     11  C   UNL     1      -2.857  14.346  23.176  0.00  0.00    +0.000 A 
ATOM     12  C   UNL     1      -1.499  14.422  22.828  0.00  0.00    +0.000 A 
ATOM     13  N   UNL     1      -0.899  13.623  21.831  0.00  0.00    +0.000 N 
ATOM     14  C   UNL     1       0.383  13.953  21.377  0.00  0.00    +0.000 A 
ATOM     15  C   UNL     1       0.923  13.373  20.291  0.00  0.00    +0.000 A 
ATOM     16  C   UNL     1       0.134  12.355  19.484  0.00  0.00    +0.000 C 
ATOM     17  C   UNL     1       0.592  10.972  19.865  0.00  0.00    +0.000 A 
ATOM     18  N   UNL     1       1.244  10.258  18.925  0.00  0.00    +0.000 NA
ATOM     19  C   UNL     1       1.586   9.005  19.256  0.00  0.00    +0.000 A 
ATOM     20  C   UNL     1       2.170   8.208  18.281  0.00  0.00    +0.000 A 
ATOM     21  C   UNL     1       2.551   6.902  18.531  0.00  0.00    +0.000 A 
ATOM     22  C   UNL     1       2.372   6.388  19.809  0.00  0.00    +0.000 A 
ATOM     23  C   UNL     1       1.766   7.177  20.799  0.00  0.00    +0.000 A 
ATOM     24  C   UNL     1       1.330   8.473  20.540  0.00  0.00    +0.000 A 
ATOM     25  N   UNL     1       0.633   9.189  21.457  0.00  0.00    +0.000 NA
ATOM     26  C   UNL     1       0.222  10.429  21.096  0.00  0.00    +0.000 A 
ATOM     27  C   UNL     1      -0.812  11.123  21.968  0.00  0.00    +0.000 C 
ATOM     28  C   UNL     1      -1.519  12.369  21.338  0.00  0.00    +0.000 C 
ATOM     29  C   UNL     1      -1.381  12.389  19.799  0.00  0.00    +0.000 C 
ENDROOT
BRANCH  20  30
ATOM     30  O   UNL     1       2.347   8.715  17.017  0.00  0.00    +0.000 OA
ATOM     31  H   UNL     1       1.461   8.648  16.596  0.00  0.00    +0.000 HD
ENDBRANCH  20  30
BRANCH  29  32
ATOM     32  O   UNL     1      -2.152  11.350  19.173  0.00  0.00    +0.000 OA
ATOM     33  H   UNL     1      -2.660  11.693  18.416  0.00  0.00    +0.000 HD
ENDBRANCH  29  32
TORSDOF 2
ENDMDL
MODEL 5
REMARK VINA RESULT:      -7.1      3.114      5.623
REMARK  Name = 
REMARK  2 active torsions:
REMARK  status: ('A' for Active; 'I' for Inactive)
REMARK    1  A    between atoms: C_20  and  O_21
REMARK    2  A    between atoms: C_30  and  O_31
REMARK                            x       y       z     vdW  Elec       q    Type
REMARK                         _______ _______ _______ _____ _____    ______ ____
ROOT
ATOM      1  O   UNL     1       1.160  10.443  19.821  0.00  0.00    +0.000 OA
ATOM      2  C   UNL     1       0.047  10.644  19.354  0.00  0.00    +0.000 A 
ATOM      3  C   UNL     1      -0.312  10.093  18.033  0.00  0.00    +0.000 A 
ATOM      4  C   UNL     1      -1.544  10.212  17.536  0.00  0.00    +0.000 A 
ATOM      5  C   UNL     1      -2.604  10.931  18.272  0.00  0.00    +0.000 A 
ATOM      6  N   UNL     1      -3.803  10.961  17.780  0.00  0.00    +0.000 NA
ATOM      7  C   UNL     1      -4.783  11.674  18.506  0.00  0.00    +0.000 A 
ATOM      8  C   UNL     1      -6.097  11.601  18.031  0.00  0.00    +0.000 A 
ATOM      9  C   UNL     1      -7.130  12.253  18.694  0.00  0.00    +0.000 A 
ATOM     10  C   UNL     1      -6.854  12.974  19.849  0.00  0.00    +0.000 A 
ATOM     11  C   UNL     1      -5.541  13.066  20.330  0.00  0.00    +0.000 A 
ATOM     12  C   UNL     1      -4.474  12.441  19.665  0.00  0.00    +0.000 A 
ATOM     13  N   UNL     1      -3.136  12.486  20.113  0.00  0.00    +0.000 N 
ATOM     14  C   UNL     1      -2.198  11.622  19.537  0.00  0.00    +0.000 A 
ATOM     15  C   UNL     1      -0.968  11.461  20.056  0.00  0.00    +0.000 A 
ATOM     16  C   UNL     1      -0.563  12.190  21.327  0.00  0.00    +0.000 C 
ATOM     17  C   UNL     1       0.268  13.389  20.955  0.00  0.00    +0.000 A 
ATOM     18  N   UNL     1       1.568  13.372  21.314  0.00  0.00    +0.000 NA
ATOM     19  C   UNL     1       2.279  14.474  21.038  0.00  0.00    +0.000 A 
ATOM     20  C   UNL     1       3.593  14.532  21.479  0.00  0.00    +0.000 A 
ATOM     21  C   UNL     1       4.400  15.631  21.243  0.00  0.00    +0.000 A 
ATOM     22  C   UNL     1       3.884  16.692  20.511  0.00  0.00    +0.000 A 
ATOM     23  C   UNL     1       2.551  16.654  20.073  0.00  0.00    +0.000 A 
ATOM     24  C   UNL     1       1.717  15.577  20.354  0.00  0.00    +0.000 A 
ATOM     25  N   UNL     1       0.397  15.594  20.043  0.00  0.00    +0.000 NA
ATOM     26  C   UNL     1      -0.339  14.510  20.390  0.00  0.00    +0.000 A 
ATOM     27  C   UNL     1      -1.853  14.627  20.338  0.00  0.00    +0.000 C 
ATOM     28  C   UNL     1      -2.655  13.505  21.079  0.00  0.00    +0.000 C 
ATOM     29  C   UNL     1      -1.777  12.754  22.104  0.00  0.00    +0.000 C 
ENDROOT
BRANCH  20  30
ATOM     30  O   UNL     1       4.105  13.484  22.204  0.00  0.00    +0.000 OA
ATOM     31  H   UNL     1       3.646  13.535  23.072  0.00  0.00    +0.000 HD
ENDBRANCH  20  30
BRANCH  29  32
ATOM     32  O   UNL     1      -1.442  13.576  23.234  0.00  0.00    +0.000 OA
ATOM     33  H   UNL     1      -1.583  14.520  23.040  0.00  0.00    +0.000 HD
ENDBRANCH  29  32
TORSDOF 2
ENDMDL
MODEL 6
REMARK VINA RESULT:      -7.1      3.361      6.467
REMARK  Name = 
REMARK  2 active torsions:
REMARK  status: ('A' for Active; 'I' for Inactive)
REMARK    1  A    between atoms: C_20  and  O_21
REMARK    2  A    between atoms: C_30  and  O_31
REMARK                            x       y       z     vdW  Elec       q    Type
REMARK                         _______ _______ _______ _____ _____    ______ ____
ROOT
ATOM      1  O   UNL     1      -3.625  16.087  21.248  0.00  0.00    +0.000 OA
ATOM      2  C   UNL     1      -2.628  16.210  20.550  0.00  0.00    +0.000 A 
ATOM      3  C   UNL     1      -2.425  17.439  19.759  0.00  0.00    +0.000 A 
ATOM      4  C   UNL     1      -1.307  17.647  19.062  0.00  0.00    +0.000 A 
ATOM      5  C   UNL     1      -0.228  16.639  19.022  0.00  0.00    +0.000 A 
ATOM      6  N   UNL     1       0.868  16.916  18.386  0.00  0.00    +0.000 NA
ATOM      7  C   UNL     1       1.868  15.919  18.357  0.00  0.00    +0.000 A 
ATOM      8  C   UNL     1       3.091  16.270  17.774  0.00  0.00    +0.000 A 
ATOM      9  C   UNL     1       4.140  15.359  17.721  0.00  0.00    +0.000 A 
ATOM     10  C   UNL     1       3.974  14.091  18.265  0.00  0.00    +0.000 A 
ATOM     11  C   UNL     1       2.752  13.722  18.842  0.00  0.00    +0.000 A 
ATOM     12  C   UNL     1       1.666  14.612  18.885  0.00  0.00    +0.000 A 
ATOM     13  N   UNL     1       0.419  14.300  19.467  0.00  0.00    +0.000 N 
ATOM     14  C   UNL     1      -0.500  15.330  19.695  0.00  0.00    +0.000 A 
ATOM     15  C   UNL     1      -1.608  15.143  20.434  0.00  0.00    +0.000 A 
ATOM     16  C   UNL     1      -1.882  13.800  21.091  0.00  0.00    +0.000 C 
ATOM     17  C   UNL     1      -2.886  13.048  20.257  0.00  0.00    +0.000 A 
ATOM     18  N   UNL     1      -4.103  12.839  20.798  0.00  0.00    +0.000 NA
ATOM     19  C   UNL     1      -4.963  12.110  20.073  0.00  0.00    +0.000 A 
ATOM     20  C   UNL     1      -6.189  11.792  20.639  0.00  0.00    +0.000 A 
ATOM     21  C   UNL     1      -7.137  11.040  19.966  0.00  0.00    +0.000 A 
ATOM     22  C   UNL     1      -6.859  10.623  18.671  0.00  0.00    +0.000 A 
ATOM     23  C   UNL     1      -5.617  10.923  18.093  0.00  0.00    +0.000 A 
ATOM     24  C   UNL     1      -4.637  11.631  18.784  0.00  0.00    +0.000 A 
ATOM     25  N   UNL     1      -3.393  11.811  18.275  0.00  0.00    +0.000 NA
ATOM     26  C   UNL     1      -2.500  12.485  19.041  0.00  0.00    +0.000 A 
ATOM     27  C   UNL     1      -1.034  12.432  18.643  0.00  0.00    +0.000 C 
ATOM     28  C   UNL     1      -0.009  12.904  19.729  0.00  0.00    +0.000 C 
ATOM     29  C   UNL     1      -0.628  12.894  21.144  0.00  0.00    +0.000 C 
ENDROOT
BRANCH  20  30
ATOM     30  O   UNL     1      -6.465  12.203  21.921  0.00  0.00    +0.000 OA
ATOM     31  H   UNL     1      -7.009  11.478  22.302  0.00  0.00    +0.000 HD
ENDBRANCH  20  30
BRANCH  29  32
ATOM     32  O   UNL     1      -0.867  11.560  21.621  0.00  0.00    +0.000 OA
ATOM     33  H   UNL     1      -0.682  10.898  20.930  0.00  0.00    +0.000 HD
ENDBRANCH  29  32
TORSDOF 2
ENDMDL
MODEL 7
REMARK VINA RESULT:      -7.1      9.068     11.224
REMARK  Name = 
REMARK  2 active torsions:
REMARK  status: ('A' for Active; 'I' for Inactive)
REMARK    1  A    between atoms: C_20  and  O_21
REMARK    2  A    between atoms: C_30  and  O_31
REMARK                            x       y       z     vdW  Elec       q    Type
REMARK                         _______ _______ _______ _____ _____    ______ ____
ROOT
ATOM      1  O   UNL     1       9.363  10.919  21.046  0.00  0.00    +0.000 OA
ATOM      2  C   UNL     1       9.995  11.855  20.574  0.00  0.00    +0.000 A 
ATOM      3  C   UNL     1      11.396  11.662  20.149  0.00  0.00    +0.000 A 
ATOM      4  C   UNL     1      12.083  12.632  19.544  0.00  0.00    +0.000 A 
ATOM      5  C   UNL     1      11.485  13.960  19.298  0.00  0.00    +0.000 A 
ATOM      6  N   UNL     1      12.170  14.847  18.646  0.00  0.00    +0.000 NA
ATOM      7  C   UNL     1      11.570  16.110  18.447  0.00  0.00    +0.000 A 
ATOM      8  C   UNL     1      12.264  17.018  17.641  0.00  0.00    +0.000 A 
ATOM      9  C   UNL     1      11.738  18.278  17.373  0.00  0.00    +0.000 A 
ATOM     10  C   UNL     1      10.503  18.630  17.903  0.00  0.00    +0.000 A 
ATOM     11  C   UNL     1       9.801  17.735  18.721  0.00  0.00    +0.000 A 
ATOM     12  C   UNL     1      10.321  16.468  19.031  0.00  0.00    +0.000 A 
ATOM     13  N   UNL     1       9.651  15.520  19.835  0.00  0.00    +0.000 N 
ATOM     14  C   UNL     1      10.122  14.204  19.868  0.00  0.00    +0.000 A 
ATOM     15  C   UNL     1       9.416  13.210  20.436  0.00  0.00    +0.000 A 
ATOM     16  C   UNL     1       8.045  13.479  21.032  0.00  0.00    +0.000 C 
ATOM     17  C   UNL     1       8.180  13.597  22.528  0.00  0.00    +0.000 A 
ATOM     18  N   UNL     1       7.609  12.631  23.276  0.00  0.00    +0.000 NA
ATOM     19  C   UNL     1       7.678  12.785  24.605  0.00  0.00    +0.000 A 
ATOM     20  C   UNL     1       7.018  11.863  25.406  0.00  0.00    +0.000 A 
ATOM     21  C   UNL     1       7.031  11.946  26.787  0.00  0.00    +0.000 A 
ATOM     22  C   UNL     1       7.759  12.965  27.387  0.00  0.00    +0.000 A 
ATOM     23  C   UNL     1       8.418  13.914  26.589  0.00  0.00    +0.000 A 
ATOM     24  C   UNL     1       8.363  13.870  25.199  0.00  0.00    +0.000 A 
ATOM     25  N   UNL     1       8.891  14.855  24.432  0.00  0.00    +0.000 NA
ATOM     26  C   UNL     1       8.755  14.737  23.088  0.00  0.00    +0.000 A 
ATOM     27  C   UNL     1       9.053  15.955  22.229  0.00  0.00    +0.000 C 
ATOM     28  C   UNL     1       8.545  15.895  20.750  0.00  0.00    +0.000 C 
ATOM     29  C   UNL     1       7.444  14.827  20.565  0.00  0.00    +0.000 C 
ENDROOT
BRANCH  20  30
ATOM     30  O   UNL     1       6.296  10.855  24.814  0.00  0.00    +0.000 OA
ATOM     31  H   UNL     1       6.864  10.546  24.072  0.00  0.00    +0.000 HD
ENDBRANCH  20  30
BRANCH  29  32
ATOM     32  O   UNL     1       6.216  15.198  21.212  0.00  0.00    +0.000 OA
ATOM     33  H   UNL     1       5.708  14.412  21.484  0.00  0.00    +0.000 HD
ENDBRANCH  29  32
TORSDOF 2
ENDMDL
MODEL 8
REMARK VINA RESULT:      -7.1      4.162      6.469
REMARK  Name = 
REMARK  2 active torsions:
REMARK  status: ('A' for Active; 'I' for Inactive)
REMARK    1  A    between atoms: C_20  and  O_21
REMARK    2  A    between atoms: C_30  and  O_31
REMARK                            x       y       z     vdW  Elec       q    Type
REMARK                         _______ _______ _______ _____ _____    ______ ____
ROOT
ATOM      1  O   UNL     1      -0.151  12.601  23.069  0.00  0.00    +0.000 OA
ATOM      2  C   UNL     1      -0.910  12.551  22.110  0.00  0.00    +0.000 A 
ATOM      3  C   UNL     1      -0.367  12.461  20.741  0.00  0.00    +0.000 A 
ATOM      4  C   UNL     1      -1.163  12.310  19.681  0.00  0.00    +0.000 A 
ATOM      5  C   UNL     1      -2.632  12.256  19.824  0.00  0.00    +0.000 A 
ATOM      6  N   UNL     1      -3.359  12.039  18.772  0.00  0.00    +0.000 NA
ATOM      7  C   UNL     1      -4.760  12.013  18.949  0.00  0.00    +0.000 A 
ATOM      8  C   UNL     1      -5.529  11.660  17.835  0.00  0.00    +0.000 A 
ATOM      9  C   UNL     1      -6.915  11.587  17.922  0.00  0.00    +0.000 A 
ATOM     10  C   UNL     1      -7.539  11.856  19.134  0.00  0.00    +0.000 A 
ATOM     11  C   UNL     1      -6.783  12.222  20.255  0.00  0.00    +0.000 A 
ATOM     12  C   UNL     1      -5.385  12.331  20.189  0.00  0.00    +0.000 A 
ATOM     13  N   UNL     1      -4.572  12.679  21.289  0.00  0.00    +0.000 N 
ATOM     14  C   UNL     1      -3.187  12.503  21.192  0.00  0.00    +0.000 A 
ATOM     15  C   UNL     1      -2.381  12.610  22.263  0.00  0.00    +0.000 A 
ATOM     16  C   UNL     1      -2.959  12.886  23.642  0.00  0.00    +0.000 C 
ATOM     17  C   UNL     1      -2.782  14.348  23.958  0.00  0.00    +0.000 A 
ATOM     18  N   UNL     1      -1.931  14.664  24.955  0.00  0.00    +0.000 NA
ATOM     19  C   UNL     1      -1.835  15.963  25.271  0.00  0.00    +0.000 A 
ATOM     20  C   UNL     1      -1.044  16.316  26.355  0.00  0.00    +0.000 A 
ATOM     21  C   UNL     1      -0.891  17.632  26.756  0.00  0.00    +0.000 A 
ATOM     22  C   UNL     1      -1.523  18.629  26.025  0.00  0.00    +0.000 A 
ATOM     23  C   UNL     1      -2.340  18.285  24.937  0.00  0.00    +0.000 A 
ATOM     24  C   UNL     1      -2.543  16.960  24.562  0.00  0.00    +0.000 A 
ATOM     25  N   UNL     1      -3.429  16.620  23.593  0.00  0.00    +0.000 NA
ATOM     26  C   UNL     1      -3.581  15.300  23.325  0.00  0.00    +0.000 A 
ATOM     27  C   UNL     1      -4.771  14.873  22.481  0.00  0.00    +0.000 C 
ATOM     28  C   UNL     1      -5.114  13.346  22.498  0.00  0.00    +0.000 C 
ATOM     29  C   UNL     1      -4.484  12.630  23.713  0.00  0.00    +0.000 C 
ENDROOT
BRANCH  20  30
ATOM     30  O   UNL     1      -0.419  15.330  27.080  0.00  0.00    +0.000 OA
ATOM     31  H   UNL     1      -1.010  15.175  27.849  0.00  0.00    +0.000 HD
ENDBRANCH  20  30
BRANCH  29  32
ATOM     32  O   UNL     1      -5.103  13.015  24.950  0.00  0.00    +0.000 OA
ATOM     33  H   UNL     1      -4.773  12.479  25.694  0.00  0.00    +0.000 HD
ENDBRANCH  29  32
TORSDOF 2
ENDMDL
MODEL 9
REMARK VINA RESULT:      -7.0      2.531      7.438
REMARK  Name = 
REMARK  2 active torsions:
REMARK  status: ('A' for Active; 'I' for Inactive)
REMARK    1  A    between atoms: C_20  and  O_21
REMARK    2  A    between atoms: C_30  and  O_31
REMARK                            x       y       z     vdW  Elec       q    Type
REMARK                         _______ _______ _______ _____ _____    ______ ____
ROOT
ATOM      1  O   UNL     1       2.019  14.005  19.082  0.00  0.00    +0.000 OA
ATOM      2  C   UNL     1       1.483  14.451  20.088  0.00  0.00    +0.000 A 
ATOM      3  C   UNL     1       2.225  15.365  20.979  0.00  0.00    +0.000 A 
ATOM      4  C   UNL     1       1.642  15.943  22.030  0.00  0.00    +0.000 A 
ATOM      5  C   UNL     1       0.232  15.672  22.373  0.00  0.00    +0.000 A 
ATOM      6  N   UNL     1      -0.309  16.311  23.364  0.00  0.00    +0.000 NA
ATOM      7  C   UNL     1      -1.654  16.009  23.671  0.00  0.00    +0.000 A 
ATOM      8  C   UNL     1      -2.265  16.787  24.661  0.00  0.00    +0.000 A 
ATOM      9  C   UNL     1      -3.593  16.575  25.012  0.00  0.00    +0.000 A 
ATOM     10  C   UNL     1      -4.324  15.588  24.363  0.00  0.00    +0.000 A 
ATOM     11  C   UNL     1      -3.723  14.794  23.378  0.00  0.00    +0.000 A 
ATOM     12  C   UNL     1      -2.376  14.966  23.022  0.00  0.00    +0.000 A 
ATOM     13  N   UNL     1      -1.724  14.207  22.026  0.00  0.00    +0.000 N 
ATOM     14  C   UNL     1      -0.472  14.627  21.563  0.00  0.00    +0.000 A 
ATOM     15  C   UNL     1       0.104  14.081  20.478  0.00  0.00    +0.000 A 
ATOM     16  C   UNL     1      -0.613  13.004  19.681  0.00  0.00    +0.000 C 
ATOM     17  C   UNL     1      -0.053  11.660  20.067  0.00  0.00    +0.000 A 
ATOM     18  N   UNL     1       0.645  10.990  19.128  0.00  0.00    +0.000 NA
ATOM     19  C   UNL     1       1.078   9.768  19.463  0.00  0.00    +0.000 A 
ATOM     20  C   UNL     1       1.714   9.010  18.491  0.00  0.00    +0.000 A 
ATOM     21  C   UNL     1       2.191   7.736  18.746  0.00  0.00    +0.000 A 
ATOM     22  C   UNL     1       2.056   7.218  20.027  0.00  0.00    +0.000 A 
ATOM     23  C   UNL     1       1.399   7.966  21.016  0.00  0.00    +0.000 A 
ATOM     24  C   UNL     1       0.868   9.226  20.752  0.00  0.00    +0.000 A 
ATOM     25  N   UNL     1       0.125   9.894  21.668  0.00  0.00    +0.000 NA
ATOM     26  C   UNL     1      -0.377  11.099  21.303  0.00  0.00    +0.000 A 
ATOM     27  C   UNL     1      -1.454  11.721  22.177  0.00  0.00    +0.000 C 
ATOM     28  C   UNL     1      -2.253  12.908  21.543  0.00  0.00    +0.000 C 
ATOM     29  C   UNL     1      -2.125  12.929  20.004  0.00  0.00    +0.000 C 
ENDROOT
BRANCH  20  30
ATOM     30  O   UNL     1       1.848   9.520  17.222  0.00  0.00    +0.000 OA
ATOM     31  H   UNL     1       2.497   8.927  16.783  0.00  0.00    +0.000 HD
ENDBRANCH  20  30
BRANCH  29  32
ATOM     32  O   UNL     1      -2.821  11.833  19.388  0.00  0.00    +0.000 OA
ATOM     33  H   UNL     1      -2.487  11.662  18.489  0.00  0.00    +0.000 HD
ENDBRANCH  29  32
TORSDOF 2
ENDMDL
