MODEL 1
REMARK VINA RESULT:      -7.1      0.000      0.000
REMARK  Name = 
REMARK  9 active torsions:
REMARK  status: ('A' for Active; 'I' for Inactive)
REMARK    1  A    between atoms: C_1  and  C_2
REMARK    2  A    between atoms: C_2  and  C_3
REMARK    3  A    between atoms: C_3  and  C_4
REMARK    4  A    between atoms: C_4  and  C_5
REMARK    5  A    between atoms: C_5  and  N_6
REMARK    6  A    between atoms: C_7  and  C_8
REMARK    7  A    between atoms: C_10  and  N_11
REMARK    8  A    between atoms: N_11  and  C_12
REMARK    9  A    between atoms: C_12  and  C_13
REMARK                            x       y       z     vdW  Elec       q    Type
REMARK                         _______ _______ _______ _____ _____    ______ ____
ROOT
ATOM      1  N   UNL     1       6.514   5.390  16.028  0.00  0.00    +0.000 N 
ATOM      2  C   UNL     1       5.353   6.172  16.130  0.00  0.00    +0.000 A 
ATOM      3  C   UNL     1       4.709   6.855  14.959  0.00  0.00    +0.000 C 
ATOM      4  C   UNL     1       4.747   6.328  17.320  0.00  0.00    +0.000 A 
ATOM      5  C   UNL     1       5.238   5.697  18.520  0.00  0.00    +0.000 A 
ATOM      6  C   UNL     1       6.356   4.959  18.453  0.00  0.00    +0.000 A 
ATOM      7  C   UNL     1       7.061   4.763  17.165  0.00  0.00    +0.000 A 
ATOM      8  O   UNL     1       8.061   4.048  17.159  0.00  0.00    +0.000 OA
ENDROOT
BRANCH   5   9
ATOM      9  N   UNL     1       4.510   5.858  19.689  0.00  0.00    +0.000 N 
ATOM     10  H   UNL     1       4.660   5.074  20.320  0.00  0.00    +0.000 HD
BRANCH   9  11
ATOM     11  C   UNL     1       3.071   6.120  19.619  0.00  0.00    +0.000 C 
BRANCH  11  12
ATOM     12  C   UNL     1       2.290   4.826  19.625  0.00  0.00    +0.000 A 
ATOM     13  C   UNL     1       1.963   4.172  20.826  0.00  0.00    +0.000 A 
ATOM     14  C   UNL     1       1.211   2.996  20.811  0.00  0.00    +0.000 A 
ATOM     15  C   UNL     1       0.765   2.468  19.599  0.00  0.00    +0.000 A 
ATOM     16  C   UNL     1       1.059   3.118  18.408  0.00  0.00    +0.000 A 
ATOM     17  C   UNL     1       1.816   4.291  18.412  0.00  0.00    +0.000 A 
ENDBRANCH  11  12
ENDBRANCH   9  11
ENDBRANCH   5   9
BRANCH   1  18
ATOM     18  C   UNL     1       7.120   5.024  14.745  0.00  0.00    +0.000 C 
BRANCH  18  19
ATOM     19  C   UNL     1       6.444   3.933  13.910  0.00  0.00    +0.000 C 
BRANCH  19  20
ATOM     20  C   UNL     1       6.820   3.870  12.430  0.00  0.00    +0.000 C 
BRANCH  20  22
ATOM     21  C   UNL     1       7.035   1.743  11.044  0.00  0.00    +0.000 C 
ATOM     22  C   UNL     1       6.103   2.669  11.800  0.00  0.00    +0.000 C 
ENDBRANCH  20  22
ENDBRANCH  19  20
ENDBRANCH  18  19
ENDBRANCH   1  18
TORSDOF 7
ENDMDL
MODEL 2
REMARK VINA RESULT:      -6.8      1.828      7.063
REMARK  Name = 
REMARK  9 active torsions:
REMARK  status: ('A' for Active; 'I' for Inactive)
REMARK    1  A    between atoms: C_1  and  C_2
REMARK    2  A    between atoms: C_2  and  C_3
REMARK    3  A    between atoms: C_3  and  C_4
REMARK    4  A    between atoms: C_4  and  C_5
REMARK    5  A    between atoms: C_5  and  N_6
REMARK    6  A    between atoms: C_7  and  C_8
REMARK    7  A    between atoms: C_10  and  N_11
REMARK    8  A    between atoms: N_11  and  C_12
REMARK    9  A    between atoms: C_12  and  C_13
REMARK                            x       y       z     vdW  Elec       q    Type
REMARK                         _______ _______ _______ _____ _____    ______ ____
ROOT
ATOM      1  N   UNL     1       3.214   3.156  18.892  0.00  0.00    +0.000 N 
ATOM      2  C   UNL     1       2.712   3.897  17.812  0.00  0.00    +0.000 A 
ATOM      3  C   UNL     1       1.265   3.907  17.415  0.00  0.00    +0.000 C 
ATOM      4  C   UNL     1       3.538   4.665  17.080  0.00  0.00    +0.000 A 
ATOM      5  C   UNL     1       4.945   4.777  17.373  0.00  0.00    +0.000 A 
ATOM      6  C   UNL     1       5.453   4.064  18.390  0.00  0.00    +0.000 A 
ATOM      7  C   UNL     1       4.583   3.202  19.223  0.00  0.00    +0.000 A 
ATOM      8  O   UNL     1       5.099   2.599  20.161  0.00  0.00    +0.000 OA
ENDROOT
BRANCH   5   9
ATOM      9  N   UNL     1       5.706   5.645  16.606  0.00  0.00    +0.000 N 
ATOM     10  H   UNL     1       5.175   5.982  15.806  0.00  0.00    +0.000 HD
BRANCH   9  11
ATOM     11  C   UNL     1       7.029   5.232  16.135  0.00  0.00    +0.000 C 
BRANCH  11  12
ATOM     12  C   UNL     1       6.975   4.812  14.684  0.00  0.00    +0.000 A 
ATOM     13  C   UNL     1       6.059   3.845  14.235  0.00  0.00    +0.000 A 
ATOM     14  C   UNL     1       6.001   3.496  12.884  0.00  0.00    +0.000 A 
ATOM     15  C   UNL     1       6.847   4.119  11.967  0.00  0.00    +0.000 A 
ATOM     16  C   UNL     1       7.739   5.095  12.393  0.00  0.00    +0.000 A 
ATOM     17  C   UNL     1       7.807   5.445  13.743  0.00  0.00    +0.000 A 
ENDBRANCH  11  12
ENDBRANCH   9  11
ENDBRANCH   5   9
BRANCH   1  18
ATOM     18  C   UNL     1       2.352   2.449  19.844  0.00  0.00    +0.000 C 
BRANCH  18  19
ATOM     19  C   UNL     1       1.519   3.280  20.823  0.00  0.00    +0.000 C 
BRANCH  19  20
ATOM     20  C   UNL     1       2.175   4.540  21.384  0.00  0.00    +0.000 C 
BRANCH  20  22
ATOM     21  C   UNL     1       2.382   6.648  19.967  0.00  0.00    +0.000 C 
ATOM     22  C   UNL     1       1.465   5.762  20.787  0.00  0.00    +0.000 C 
ENDBRANCH  20  22
ENDBRANCH  19  20
ENDBRANCH  18  19
ENDBRANCH   1  18
TORSDOF 7
ENDMDL
MODEL 3
REMARK VINA RESULT:      -6.8      1.525      6.482
REMARK  Name = 
REMARK  9 active torsions:
REMARK  status: ('A' for Active; 'I' for Inactive)
REMARK    1  A    between atoms: C_1  and  C_2
REMARK    2  A    between atoms: C_2  and  C_3
REMARK    3  A    between atoms: C_3  and  C_4
REMARK    4  A    between atoms: C_4  and  C_5
REMARK    5  A    between atoms: C_5  and  N_6
REMARK    6  A    between atoms: C_7  and  C_8
REMARK    7  A    between atoms: C_10  and  N_11
REMARK    8  A    between atoms: N_11  and  C_12
REMARK    9  A    between atoms: C_12  and  C_13
REMARK                            x       y       z     vdW  Elec       q    Type
REMARK                         _______ _______ _______ _____ _____    ______ ____
ROOT
ATOM      1  N   UNL     1       3.349   5.658  19.162  0.00  0.00    +0.000 N 
ATOM      2  C   UNL     1       3.242   6.732  18.265  0.00  0.00    +0.000 A 
ATOM      3  C   UNL     1       2.124   7.732  18.300  0.00  0.00    +0.000 C 
ATOM      4  C   UNL     1       4.181   6.917  17.321  0.00  0.00    +0.000 A 
ATOM      5  C   UNL     1       5.328   6.053  17.198  0.00  0.00    +0.000 A 
ATOM      6  C   UNL     1       5.444   5.009  18.033  0.00  0.00    +0.000 A 
ATOM      7  C   UNL     1       4.433   4.762  19.086  0.00  0.00    +0.000 A 
ATOM      8  O   UNL     1       4.610   3.809  19.843  0.00  0.00    +0.000 OA
ENDROOT
BRANCH   5   9
ATOM      9  N   UNL     1       6.280   6.361  16.239  0.00  0.00    +0.000 N 
ATOM     10  H   UNL     1       5.839   6.704  15.388  0.00  0.00    +0.000 HD
BRANCH   9  11
ATOM     11  C   UNL     1       7.284   5.364  15.863  0.00  0.00    +0.000 C 
BRANCH  11  12
ATOM     12  C   UNL     1       6.976   4.779  14.503  0.00  0.00    +0.000 A 
ATOM     13  C   UNL     1       5.889   3.910  14.308  0.00  0.00    +0.000 A 
ATOM     14  C   UNL     1       5.601   3.409  13.037  0.00  0.00    +0.000 A 
ATOM     15  C   UNL     1       6.387   3.780  11.947  0.00  0.00    +0.000 A 
ATOM     16  C   UNL     1       7.449   4.658  12.121  0.00  0.00    +0.000 A 
ATOM     17  C   UNL     1       7.747   5.160  13.389  0.00  0.00    +0.000 A 
ENDBRANCH  11  12
ENDBRANCH   9  11
ENDBRANCH   5   9
BRANCH   1  18
ATOM     18  C   UNL     1       2.472   5.501  20.327  0.00  0.00    +0.000 C 
BRANCH  18  19
ATOM     19  C   UNL     1       1.485   4.331  20.338  0.00  0.00    +0.000 C 
BRANCH  19  20
ATOM     20  C   UNL     1       1.043   3.795  18.977  0.00  0.00    +0.000 C 
BRANCH  20  22
ATOM     21  C   UNL     1       2.464   2.105  17.706  0.00  0.00    +0.000 C 
ATOM     22  C   UNL     1       1.508   2.337  18.858  0.00  0.00    +0.000 C 
ENDBRANCH  20  22
ENDBRANCH  19  20
ENDBRANCH  18  19
ENDBRANCH   1  18
TORSDOF 7
ENDMDL
MODEL 4
REMARK VINA RESULT:      -6.8      1.564      7.080
REMARK  Name = 
REMARK  9 active torsions:
REMARK  status: ('A' for Active; 'I' for Inactive)
REMARK    1  A    between atoms: C_1  and  C_2
REMARK    2  A    between atoms: C_2  and  C_3
REMARK    3  A    between atoms: C_3  and  C_4
REMARK    4  A    between atoms: C_4  and  C_5
REMARK    5  A    between atoms: C_5  and  N_6
REMARK    6  A    between atoms: C_7  and  C_8
REMARK    7  A    between atoms: C_10  and  N_11
REMARK    8  A    between atoms: N_11  and  C_12
REMARK    9  A    between atoms: C_12  and  C_13
REMARK                            x       y       z     vdW  Elec       q    Type
REMARK                         _______ _______ _______ _____ _____    ______ ____
ROOT
ATOM      1  N   UNL     1       5.042   4.343  18.508  0.00  0.00    +0.000 N 
ATOM      2  C   UNL     1       4.526   3.932  17.269  0.00  0.00    +0.000 A 
ATOM      3  C   UNL     1       3.122   3.436  17.080  0.00  0.00    +0.000 C 
ATOM      4  C   UNL     1       5.294   3.987  16.168  0.00  0.00    +0.000 A 
ATOM      5  C   UNL     1       6.650   4.477  16.200  0.00  0.00    +0.000 A 
ATOM      6  C   UNL     1       7.172   4.859  17.375  0.00  0.00    +0.000 A 
ATOM      7  C   UNL     1       6.365   4.813  18.616  0.00  0.00    +0.000 A 
ATOM      8  O   UNL     1       6.887   5.208  19.657  0.00  0.00    +0.000 OA
ENDROOT
BRANCH   5   9
ATOM      9  N   UNL     1       7.343   4.561  15.002  0.00  0.00    +0.000 N 
ATOM     10  H   UNL     1       8.195   5.108  15.115  0.00  0.00    +0.000 HD
BRANCH   9  11
ATOM     11  C   UNL     1       6.658   5.026  13.796  0.00  0.00    +0.000 C 
BRANCH  11  12
ATOM     12  C   UNL     1       6.421   3.880  12.838  0.00  0.00    +0.000 A 
ATOM     13  C   UNL     1       5.122   3.466  12.498  0.00  0.00    +0.000 A 
ATOM     14  C   UNL     1       4.924   2.428  11.584  0.00  0.00    +0.000 A 
ATOM     15  C   UNL     1       6.022   1.804  10.992  0.00  0.00    +0.000 A 
ATOM     16  C   UNL     1       7.310   2.220  11.299  0.00  0.00    +0.000 A 
ATOM     17  C   UNL     1       7.517   3.253  12.216  0.00  0.00    +0.000 A 
ENDBRANCH  11  12
ENDBRANCH   9  11
ENDBRANCH   5   9
BRANCH   1  18
ATOM     18  C   UNL     1       4.214   4.488  19.709  0.00  0.00    +0.000 C 
BRANCH  18  19
ATOM     19  C   UNL     1       3.311   5.720  19.823  0.00  0.00    +0.000 C 
BRANCH  19  20
ATOM     20  C   UNL     1       1.894   5.485  20.343  0.00  0.00    +0.000 C 
BRANCH  20  22
ATOM     21  C   UNL     1       0.841   3.166  20.283  0.00  0.00    +0.000 C 
ATOM     22  C   UNL     1       1.833   4.085  20.967  0.00  0.00    +0.000 C 
ENDBRANCH  20  22
ENDBRANCH  19  20
ENDBRANCH  18  19
ENDBRANCH   1  18
TORSDOF 7
ENDMDL
MODEL 5
REMARK VINA RESULT:      -6.8      0.868      1.015
REMARK  Name = 
REMARK  9 active torsions:
REMARK  status: ('A' for Active; 'I' for Inactive)
REMARK    1  A    between atoms: C_1  and  C_2
REMARK    2  A    between atoms: C_2  and  C_3
REMARK    3  A    between atoms: C_3  and  C_4
REMARK    4  A    between atoms: C_4  and  C_5
REMARK    5  A    between atoms: C_5  and  N_6
REMARK    6  A    between atoms: C_7  and  C_8
REMARK    7  A    between atoms: C_10  and  N_11
REMARK    8  A    between atoms: N_11  and  C_12
REMARK    9  A    between atoms: C_12  and  C_13
REMARK                            x       y       z     vdW  Elec       q    Type
REMARK                         _______ _______ _______ _____ _____    ______ ____
ROOT
ATOM      1  N   UNL     1       6.200   5.504  16.711  0.00  0.00    +0.000 N 
ATOM      2  C   UNL     1       5.076   6.332  16.577  0.00  0.00    +0.000 A 
ATOM      3  C   UNL     1       4.657   6.955  15.277  0.00  0.00    +0.000 C 
ATOM      4  C   UNL     1       4.299   6.592  17.642  0.00  0.00    +0.000 A 
ATOM      5  C   UNL     1       4.565   6.030  18.943  0.00  0.00    +0.000 A 
ATOM      6  C   UNL     1       5.643   5.249  19.101  0.00  0.00    +0.000 A 
ATOM      7  C   UNL     1       6.531   4.937  17.957  0.00  0.00    +0.000 A 
ATOM      8  O   UNL     1       7.486   4.188  18.157  0.00  0.00    +0.000 OA
ENDROOT
BRANCH   5   9
ATOM      9  N   UNL     1       3.670   6.299  19.967  0.00  0.00    +0.000 N 
ATOM     10  H   UNL     1       3.910   5.773  20.805  0.00  0.00    +0.000 HD
BRANCH   9  11
ATOM     11  C   UNL     1       2.232   6.155  19.734  0.00  0.00    +0.000 C 
BRANCH  11  12
ATOM     12  C   UNL     1       1.831   4.698  19.739  0.00  0.00    +0.000 A 
ATOM     13  C   UNL     1       1.691   3.980  20.939  0.00  0.00    +0.000 A 
ATOM     14  C   UNL     1       1.285   2.644  20.924  0.00  0.00    +0.000 A 
ATOM     15  C   UNL     1       1.002   2.016  19.711  0.00  0.00    +0.000 A 
ATOM     16  C   UNL     1       1.112   2.720  18.520  0.00  0.00    +0.000 A 
ATOM     17  C   UNL     1       1.522   4.055  18.525  0.00  0.00    +0.000 A 
ENDBRANCH  11  12
ENDBRANCH   9  11
ENDBRANCH   5   9
BRANCH   1  18
ATOM     18  C   UNL     1       6.982   5.026  15.566  0.00  0.00    +0.000 C 
BRANCH  18  19
ATOM     19  C   UNL     1       6.503   3.770  14.835  0.00  0.00    +0.000 C 
BRANCH  19  20
ATOM     20  C   UNL     1       5.561   3.983  13.652  0.00  0.00    +0.000 C 
BRANCH  20  22
ATOM     21  C   UNL     1       7.289   4.404  11.828  0.00  0.00    +0.000 C 
ATOM     22  C   UNL     1       6.248   3.455  12.385  0.00  0.00    +0.000 C 
ENDBRANCH  20  22
ENDBRANCH  19  20
ENDBRANCH  18  19
ENDBRANCH   1  18
TORSDOF 7
ENDMDL
MODEL 6
REMARK VINA RESULT:      -6.8      4.492      7.666
REMARK  Name = 
REMARK  9 active torsions:
REMARK  status: ('A' for Active; 'I' for Inactive)
REMARK    1  A    between atoms: C_1  and  C_2
REMARK    2  A    between atoms: C_2  and  C_3
REMARK    3  A    between atoms: C_3  and  C_4
REMARK    4  A    between atoms: C_4  and  C_5
REMARK    5  A    between atoms: C_5  and  N_6
REMARK    6  A    between atoms: C_7  and  C_8
REMARK    7  A    between atoms: C_10  and  N_11
REMARK    8  A    between atoms: N_11  and  C_12
REMARK    9  A    between atoms: C_12  and  C_13
REMARK                            x       y       z     vdW  Elec       q    Type
REMARK                         _______ _______ _______ _____ _____    ______ ____
ROOT
ATOM      1  N   UNL     1       5.589   5.345  17.614  0.00  0.00    +0.000 N 
ATOM      2  C   UNL     1       5.925   6.388  16.737  0.00  0.00    +0.000 A 
ATOM      3  C   UNL     1       5.217   6.637  15.437  0.00  0.00    +0.000 C 
ATOM      4  C   UNL     1       6.916   7.240  17.051  0.00  0.00    +0.000 A 
ATOM      5  C   UNL     1       7.655   7.138  18.285  0.00  0.00    +0.000 A 
ATOM      6  C   UNL     1       7.365   6.139  19.132  0.00  0.00    +0.000 A 
ATOM      7  C   UNL     1       6.283   5.174  18.827  0.00  0.00    +0.000 A 
ATOM      8  O   UNL     1       6.041   4.299  19.657  0.00  0.00    +0.000 OA
ENDROOT
BRANCH   5   9
ATOM      9  N   UNL     1       8.614   8.102  18.555  0.00  0.00    +0.000 N 
ATOM     10  H   UNL     1       8.830   8.129  19.549  0.00  0.00    +0.000 HD
BRANCH   9  11
ATOM     11  C   UNL     1       8.414   9.476  18.092  0.00  0.00    +0.000 C 
BRANCH  11  12
ATOM     12  C   UNL     1       9.366  10.421  18.791  0.00  0.00    +0.000 A 
ATOM     13  C   UNL     1       9.269  10.671  20.171  0.00  0.00    +0.000 A 
ATOM     14  C   UNL     1      10.180  11.519  20.804  0.00  0.00    +0.000 A 
ATOM     15  C   UNL     1      11.204  12.115  20.068  0.00  0.00    +0.000 A 
ATOM     16  C   UNL     1      11.327  11.857  18.709  0.00  0.00    +0.000 A 
ATOM     17  C   UNL     1      10.417  11.014  18.067  0.00  0.00    +0.000 A 
ENDBRANCH  11  12
ENDBRANCH   9  11
ENDBRANCH   5   9
BRANCH   1  18
ATOM     18  C   UNL     1       4.407   4.497  17.430  0.00  0.00    +0.000 C 
BRANCH  18  19
ATOM     19  C   UNL     1       3.027   5.119  17.656  0.00  0.00    +0.000 C 
BRANCH  19  20
ATOM     20  C   UNL     1       1.915   4.175  18.107  0.00  0.00    +0.000 C 
BRANCH  20  22
ATOM     21  C   UNL     1       0.994   3.031  20.190  0.00  0.00    +0.000 C 
ATOM     22  C   UNL     1       2.061   3.942  19.617  0.00  0.00    +0.000 C 
ENDBRANCH  20  22
ENDBRANCH  19  20
ENDBRANCH  18  19
ENDBRANCH   1  18
TORSDOF 7
ENDMDL
MODEL 7
REMARK VINA RESULT:      -6.7      4.348      7.909
REMARK  Name = 
REMARK  9 active torsions:
REMARK  status: ('A' for Active; 'I' for Inactive)
REMARK    1  A    between atoms: C_1  and  C_2
REMARK    2  A    between atoms: C_2  and  C_3
REMARK    3  A    between atoms: C_3  and  C_4
REMARK    4  A    between atoms: C_4  and  C_5
REMARK    5  A    between atoms: C_5  and  N_6
REMARK    6  A    between atoms: C_7  and  C_8
REMARK    7  A    between atoms: C_10  and  N_11
REMARK    8  A    between atoms: N_11  and  C_12
REMARK    9  A    between atoms: C_12  and  C_13
REMARK                            x       y       z     vdW  Elec       q    Type
REMARK                         _______ _______ _______ _____ _____    ______ ____
ROOT
ATOM      1  N   UNL     1       1.177   9.339  19.437  0.00  0.00    +0.000 N 
ATOM      2  C   UNL     1       1.164   8.429  20.505  0.00  0.00    +0.000 A 
ATOM      3  C   UNL     1       0.424   8.670  21.788  0.00  0.00    +0.000 C 
ATOM      4  C   UNL     1       1.824   7.263  20.405  0.00  0.00    +0.000 A 
ATOM      5  C   UNL     1       2.547   6.888  19.215  0.00  0.00    +0.000 A 
ATOM      6  C   UNL     1       2.589   7.748  18.186  0.00  0.00    +0.000 A 
ATOM      7  C   UNL     1       1.880   9.047  18.251  0.00  0.00    +0.000 A 
ATOM      8  O   UNL     1       1.927   9.779  17.265  0.00  0.00    +0.000 OA
ENDROOT
BRANCH   5   9
ATOM      9  N   UNL     1       3.140   5.636  19.176  0.00  0.00    +0.000 N 
ATOM     10  H   UNL     1       3.668   5.459  20.029  0.00  0.00    +0.000 HD
BRANCH   9  11
ATOM     11  C   UNL     1       3.976   5.262  18.035  0.00  0.00    +0.000 C 
BRANCH  11  12
ATOM     12  C   UNL     1       5.386   5.778  18.210  0.00  0.00    +0.000 A 
ATOM     13  C   UNL     1       6.221   5.298  19.234  0.00  0.00    +0.000 A 
ATOM     14  C   UNL     1       7.532   5.763  19.357  0.00  0.00    +0.000 A 
ATOM     15  C   UNL     1       8.026   6.701  18.452  0.00  0.00    +0.000 A 
ATOM     16  C   UNL     1       7.221   7.165  17.420  0.00  0.00    +0.000 A 
ATOM     17  C   UNL     1       5.907   6.710  17.293  0.00  0.00    +0.000 A 
ENDBRANCH  11  12
ENDBRANCH   9  11
ENDBRANCH   5   9
BRANCH   1  18
ATOM     18  C   UNL     1       0.335  10.539  19.399  0.00  0.00    +0.000 C 
BRANCH  18  19
ATOM     19  C   UNL     1      -1.149  10.371  19.057  0.00  0.00    +0.000 C 
BRANCH  19  20
ATOM     20  C   UNL     1      -1.483  10.031  17.606  0.00  0.00    +0.000 C 
BRANCH  20  22
ATOM     21  C   UNL     1      -3.446  10.531  16.060  0.00  0.00    +0.000 C 
ATOM     22  C   UNL     1      -3.008  10.078  17.438  0.00  0.00    +0.000 C 
ENDBRANCH  20  22
ENDBRANCH  19  20
ENDBRANCH  18  19
ENDBRANCH   1  18
TORSDOF 7
ENDMDL
MODEL 8
REMARK VINA RESULT:      -6.7      5.086      8.074
REMARK  Name = 
REMARK  9 active torsions:
REMARK  status: ('A' for Active; 'I' for Inactive)
REMARK    1  A    between atoms: C_1  and  C_2
REMARK    2  A    between atoms: C_2  and  C_3
REMARK    3  A    between atoms: C_3  and  C_4
REMARK    4  A    between atoms: C_4  and  C_5
REMARK    5  A    between atoms: C_5  and  N_6
REMARK    6  A    between atoms: C_7  and  C_8
REMARK    7  A    between atoms: C_10  and  N_11
REMARK    8  A    between atoms: N_11  and  C_12
REMARK    9  A    between atoms: C_12  and  C_13
REMARK                            x       y       z     vdW  Elec       q    Type
REMARK                         _______ _______ _______ _____ _____    ______ ____
ROOT
ATOM      1  N   UNL     1       6.731   5.619  17.927  0.00  0.00    +0.000 N 
ATOM      2  C   UNL     1       6.308   6.601  17.018  0.00  0.00    +0.000 A 
ATOM      3  C   UNL     1       5.219   6.381  16.008  0.00  0.00    +0.000 C 
ATOM      4  C   UNL     1       6.873   7.821  17.032  0.00  0.00    +0.000 A 
ATOM      5  C   UNL     1       7.905   8.179  17.974  0.00  0.00    +0.000 A 
ATOM      6  C   UNL     1       8.338   7.253  18.841  0.00  0.00    +0.000 A 
ATOM      7  C   UNL     1       7.749   5.894  18.860  0.00  0.00    +0.000 A 
ATOM      8  O   UNL     1       8.164   5.098  19.701  0.00  0.00    +0.000 OA
ENDROOT
BRANCH   5   9
ATOM      9  N   UNL     1       8.380   9.481  17.959  0.00  0.00    +0.000 N 
ATOM     10  H   UNL     1       8.932   9.656  17.122  0.00  0.00    +0.000 HD
BRANCH   9  11
ATOM     11  C   UNL     1       9.120   9.998  19.112  0.00  0.00    +0.000 C 
BRANCH  11  12
ATOM     12  C   UNL     1       9.959  11.192  18.718  0.00  0.00    +0.000 A 
ATOM     13  C   UNL     1       9.500  12.135  17.782  0.00  0.00    +0.000 A 
ATOM     14  C   UNL     1      10.276  13.250  17.458  0.00  0.00    +0.000 A 
ATOM     15  C   UNL     1      11.511  13.442  18.076  0.00  0.00    +0.000 A 
ATOM     16  C   UNL     1      11.966  12.532  19.021  0.00  0.00    +0.000 A 
ATOM     17  C   UNL     1      11.199  11.411  19.346  0.00  0.00    +0.000 A 
ENDBRANCH  11  12
ENDBRANCH   9  11
ENDBRANCH   5   9
BRANCH   1  18
ATOM     18  C   UNL     1       6.041   4.337  18.096  0.00  0.00    +0.000 C 
BRANCH  18  19
ATOM     19  C   UNL     1       4.906   4.254  19.121  0.00  0.00    +0.000 C 
BRANCH  19  20
ATOM     20  C   UNL     1       3.657   3.482  18.700  0.00  0.00    +0.000 C 
BRANCH  20  22
ATOM     21  C   UNL     1       1.388   4.195  17.787  0.00  0.00    +0.000 C 
ATOM     22  C   UNL     1       2.893   4.323  17.669  0.00  0.00    +0.000 C 
ENDBRANCH  20  22
ENDBRANCH  19  20
ENDBRANCH  18  19
ENDBRANCH   1  18
TORSDOF 7
ENDMDL
MODEL 9
REMARK VINA RESULT:      -6.7      2.006      7.020
REMARK  Name = 
REMARK  9 active torsions:
REMARK  status: ('A' for Active; 'I' for Inactive)
REMARK    1  A    between atoms: C_1  and  C_2
REMARK    2  A    between atoms: C_2  and  C_3
REMARK    3  A    between atoms: C_3  and  C_4
REMARK    4  A    between atoms: C_4  and  C_5
REMARK    5  A    between atoms: C_5  and  N_6
REMARK    6  A    between atoms: C_7  and  C_8
REMARK    7  A    between atoms: C_10  and  N_11
REMARK    8  A    between atoms: N_11  and  C_12
REMARK    9  A    between atoms: C_12  and  C_13
REMARK                            x       y       z     vdW  Elec       q    Type
REMARK                         _______ _______ _______ _____ _____    ______ ____
ROOT
ATOM      1  N   UNL     1       2.137   4.640  18.389  0.00  0.00    +0.000 N 
ATOM      2  C   UNL     1       2.793   5.852  18.652  0.00  0.00    +0.000 A 
ATOM      3  C   UNL     1       2.283   6.876  19.623  0.00  0.00    +0.000 C 
ATOM      4  C   UNL     1       3.951   6.139  18.033  0.00  0.00    +0.000 A 
ATOM      5  C   UNL     1       4.573   5.229  17.103  0.00  0.00    +0.000 A 
ATOM      6  C   UNL     1       3.956   4.071  16.822  0.00  0.00    +0.000 A 
ATOM      7  C   UNL     1       2.677   3.712  17.477  0.00  0.00    +0.000 A 
ATOM      8  O   UNL     1       2.176   2.623  17.205  0.00  0.00    +0.000 OA
ENDROOT
BRANCH   5   9
ATOM      9  N   UNL     1       5.801   5.580  16.565  0.00  0.00    +0.000 N 
ATOM     10  H   UNL     1       5.685   6.239  15.798  0.00  0.00    +0.000 HD
BRANCH   9  11
ATOM     11  C   UNL     1       6.732   4.536  16.134  0.00  0.00    +0.000 C 
BRANCH  11  12
ATOM     12  C   UNL     1       6.835   4.499  14.626  0.00  0.00    +0.000 A 
ATOM     13  C   UNL     1       7.751   5.312  13.934  0.00  0.00    +0.000 A 
ATOM     14  C   UNL     1       7.855   5.237  12.544  0.00  0.00    +0.000 A 
ATOM     15  C   UNL     1       7.057   4.342  11.832  0.00  0.00    +0.000 A 
ATOM     16  C   UNL     1       6.168   3.515  12.505  0.00  0.00    +0.000 A 
ATOM     17  C   UNL     1       6.052   3.587  13.895  0.00  0.00    +0.000 A 
ENDBRANCH  11  12
ENDBRANCH   9  11
ENDBRANCH   5   9
BRANCH   1  18
ATOM     18  C   UNL     1       0.978   4.176  19.158  0.00  0.00    +0.000 C 
BRANCH  18  19
ATOM     19  C   UNL     1       1.201   3.726  20.605  0.00  0.00    +0.000 C 
BRANCH  19  20
ATOM     20  C   UNL     1       1.916   2.391  20.804  0.00  0.00    +0.000 C 
BRANCH  20  22
ATOM     21  C   UNL     1       4.349   2.123  20.096  0.00  0.00    +0.000 C 
ATOM     22  C   UNL     1       3.389   2.675  21.129  0.00  0.00    +0.000 C 
ENDBRANCH  20  22
ENDBRANCH  19  20
ENDBRANCH  18  19
ENDBRANCH   1  18
TORSDOF 7
ENDMDL
