MODEL 1
REMARK VINA RESULT:      -8.2      0.000      0.000
REMARK  Name = 
REMARK  6 active torsions:
REMARK  status: ('A' for Active; 'I' for Inactive)
REMARK    1  A    between atoms: C_1  and  C_2
REMARK    2  A    between atoms: C_7  and  C_8
REMARK    3  A    between atoms: C_11  and  C_12
REMARK    4  A    between atoms: C_12  and  C_14
REMARK    5  A    between atoms: C_15  and  C_16
REMARK    6  A    between atoms: C_25  and  C_26
REMARK                            x       y       z     vdW  Elec       q    Type
REMARK                         _______ _______ _______ _____ _____    ______ ____
ROOT
ATOM      1  C   UNL     1       7.491   4.264  12.111  0.00  0.00    +0.000 C 
ATOM      2  C   UNL     1       6.592   4.221  13.317  0.00  0.00    +0.000 A 
ATOM      3  C   UNL     1       7.085   4.649  14.559  0.00  0.00    +0.000 A 
ATOM      4  C   UNL     1       6.294   4.620  15.732  0.00  0.00    +0.000 A 
ATOM      5  C   UNL     1       4.979   4.137  15.660  0.00  0.00    +0.000 A 
ATOM      6  C   UNL     1       4.491   3.714  14.399  0.00  0.00    +0.000 A 
ATOM      7  C   UNL     1       5.274   3.750  13.235  0.00  0.00    +0.000 A 
ATOM      8  C   UNL     1       4.681   3.276  11.935  0.00  0.00    +0.000 C 
ATOM      9  N   UNL     1       4.178   4.063  16.825  0.00  0.00    +0.000 N 
ATOM     10  O   UNL     1       3.013   3.556  16.696  0.00  0.00    +0.000 OA
ATOM     11  C   UNL     1       4.684   4.505  18.051  0.00  0.00    +0.000 A 
ATOM     12  C   UNL     1       6.010   5.009  18.123  0.00  0.00    +0.000 A 
ATOM     13  C   UNL     1       6.724   5.518  19.341  0.00  0.00    +0.000 C 
ATOM     14  N   UNL     1       6.802   5.053  16.966  0.00  0.00    +0.000 N 
ATOM     15  O   UNL     1       8.002   5.495  17.032  0.00  0.00    +0.000 OA
ENDROOT
BRANCH  11  16
ATOM     16  C   UNL     1       3.832   4.369  19.275  0.00  0.00    +0.000 C 
ATOM     17  O   UNL     1       3.938   3.350  19.963  0.00  0.00    +0.000 OA
BRANCH  16  18
ATOM     18  C   UNL     1       2.882   5.407  19.734  0.00  0.00    +0.000 C 
ATOM     19  C   UNL     1       2.953   6.634  19.189  0.00  0.00    +0.000 C 
BRANCH  19  20
ATOM     20  C   UNL     1       1.973   7.637  19.588  0.00  0.00    +0.000 A 
ATOM     21  C   UNL     1       1.484   7.602  20.910  0.00  0.00    +0.000 A 
ATOM     22  C   UNL     1       0.717   8.654  21.407  0.00  0.00    +0.000 A 
ATOM     23  C   UNL     1       0.485   9.718  20.566  0.00  0.00    +0.000 A 
ATOM     24  C   UNL     1       0.921   9.727  19.257  0.00  0.00    +0.000 A 
ATOM     25  C   UNL     1       1.654   8.692  18.727  0.00  0.00    +0.000 A 
ATOM     26  O   UNL     1       0.612  10.890  18.621  0.00  0.00    +0.000 OA
ATOM     27  C   UNL     1       0.217  11.686  19.756  0.00  0.00    +0.000 C 
ATOM     28  O   UNL     1      -0.125  10.888  20.907  0.00  0.00    +0.000 OA
ENDBRANCH  19  20
ENDBRANCH  16  18
ENDBRANCH  11  16
TORSDOF 3
ENDMDL
MODEL 2
REMARK VINA RESULT:      -8.0      4.405     10.409
REMARK  Name = 
REMARK  6 active torsions:
REMARK  status: ('A' for Active; 'I' for Inactive)
REMARK    1  A    between atoms: C_1  and  C_2
REMARK    2  A    between atoms: C_7  and  C_8
REMARK    3  A    between atoms: C_11  and  C_12
REMARK    4  A    between atoms: C_12  and  C_14
REMARK    5  A    between atoms: C_15  and  C_16
REMARK    6  A    between atoms: C_25  and  C_26
REMARK                            x       y       z     vdW  Elec       q    Type
REMARK                         _______ _______ _______ _____ _____    ______ ____
ROOT
ATOM      1  C   UNL     1      -4.679  14.379  22.261  0.00  0.00    +0.000 C 
ATOM      2  C   UNL     1      -3.434  13.650  21.832  0.00  0.00    +0.000 A 
ATOM      3  C   UNL     1      -3.451  12.896  20.649  0.00  0.00    +0.000 A 
ATOM      4  C   UNL     1      -2.317  12.178  20.200  0.00  0.00    +0.000 A 
ATOM      5  C   UNL     1      -1.142  12.206  20.964  0.00  0.00    +0.000 A 
ATOM      6  C   UNL     1      -1.135  12.976  22.153  0.00  0.00    +0.000 A 
ATOM      7  C   UNL     1      -2.257  13.693  22.594  0.00  0.00    +0.000 A 
ATOM      8  C   UNL     1      -2.169  14.482  23.873  0.00  0.00    +0.000 C 
ATOM      9  N   UNL     1      -0.004  11.466  20.557  0.00  0.00    +0.000 N 
ATOM     10  O   UNL     1       1.010  11.489  21.331  0.00  0.00    +0.000 OA
ATOM     11  C   UNL     1      -0.038  10.731  19.368  0.00  0.00    +0.000 A 
ATOM     12  C   UNL     1      -1.223  10.714  18.585  0.00  0.00    +0.000 A 
ATOM     13  C   UNL     1      -1.449   9.982  17.294  0.00  0.00    +0.000 C 
ATOM     14  N   UNL     1      -2.351  11.430  19.013  0.00  0.00    +0.000 N 
ATOM     15  O   UNL     1      -3.423  11.405  18.315  0.00  0.00    +0.000 OA
ENDROOT
BRANCH  11  16
ATOM     16  C   UNL     1       1.162   9.920  18.987  0.00  0.00    +0.000 C 
ATOM     17  O   UNL     1       1.950  10.378  18.154  0.00  0.00    +0.000 OA
BRANCH  16  18
ATOM     18  C   UNL     1       1.483   8.600  19.576  0.00  0.00    +0.000 C 
ATOM     19  C   UNL     1       2.245   7.747  18.870  0.00  0.00    +0.000 C 
BRANCH  19  20
ATOM     20  C   UNL     1       2.621   6.476  19.477  0.00  0.00    +0.000 A 
ATOM     21  C   UNL     1       1.791   5.947  20.485  0.00  0.00    +0.000 A 
ATOM     22  C   UNL     1       1.980   4.645  20.946  0.00  0.00    +0.000 A 
ATOM     23  C   UNL     1       2.985   3.909  20.362  0.00  0.00    +0.000 A 
ATOM     24  C   UNL     1       3.829   4.445  19.410  0.00  0.00    +0.000 A 
ATOM     25  C   UNL     1       3.688   5.735  18.957  0.00  0.00    +0.000 A 
ATOM     26  O   UNL     1       4.723   3.532  18.945  0.00  0.00    +0.000 OA
ATOM     27  C   UNL     1       4.142   2.328  19.487  0.00  0.00    +0.000 C 
ATOM     28  O   UNL     1       3.239   2.589  20.580  0.00  0.00    +0.000 OA
ENDBRANCH  19  20
ENDBRANCH  16  18
ENDBRANCH  11  16
TORSDOF 3
ENDMDL
MODEL 3
REMARK VINA RESULT:      -7.9      3.896      9.707
REMARK  Name = 
REMARK  6 active torsions:
REMARK  status: ('A' for Active; 'I' for Inactive)
REMARK    1  A    between atoms: C_1  and  C_2
REMARK    2  A    between atoms: C_7  and  C_8
REMARK    3  A    between atoms: C_11  and  C_12
REMARK    4  A    between atoms: C_12  and  C_14
REMARK    5  A    between atoms: C_15  and  C_16
REMARK    6  A    between atoms: C_25  and  C_26
REMARK                            x       y       z     vdW  Elec       q    Type
REMARK                         _______ _______ _______ _____ _____    ______ ____
ROOT
ATOM      1  C   UNL     1      -5.768  13.182  20.081  0.00  0.00    +0.000 C 
ATOM      2  C   UNL     1      -4.560  12.445  19.568  0.00  0.00    +0.000 A 
ATOM      3  C   UNL     1      -3.315  12.653  20.178  0.00  0.00    +0.000 A 
ATOM      4  C   UNL     1      -2.141  12.000  19.733  0.00  0.00    +0.000 A 
ATOM      5  C   UNL     1      -2.216  11.126  18.640  0.00  0.00    +0.000 A 
ATOM      6  C   UNL     1      -3.480  10.918  18.035  0.00  0.00    +0.000 A 
ATOM      7  C   UNL     1      -4.645  11.561  18.481  0.00  0.00    +0.000 A 
ATOM      8  C   UNL     1      -5.949  11.290  17.780  0.00  0.00    +0.000 C 
ATOM      9  N   UNL     1      -1.050  10.488  18.150  0.00  0.00    +0.000 N 
ATOM     10  O   UNL     1      -1.183   9.754  17.115  0.00  0.00    +0.000 OA
ATOM     11  C   UNL     1       0.180  10.700  18.780  0.00  0.00    +0.000 A 
ATOM     12  C   UNL     1       0.255  11.573  19.898  0.00  0.00    +0.000 A 
ATOM     13  C   UNL     1       1.477  11.928  20.693  0.00  0.00    +0.000 C 
ATOM     14  N   UNL     1      -0.903  12.219  20.356  0.00  0.00    +0.000 N 
ATOM     15  O   UNL     1      -0.834  13.016  21.355  0.00  0.00    +0.000 OA
ENDROOT
BRANCH  11  16
ATOM     16  C   UNL     1       1.403  10.051  18.212  0.00  0.00    +0.000 C 
ATOM     17  O   UNL     1       2.196  10.741  17.564  0.00  0.00    +0.000 OA
BRANCH  16  18
ATOM     18  C   UNL     1       1.743   8.623  18.408  0.00  0.00    +0.000 C 
ATOM     19  C   UNL     1       2.815   8.121  17.770  0.00  0.00    +0.000 C 
BRANCH  19  20
ATOM     20  C   UNL     1       3.191   6.735  18.016  0.00  0.00    +0.000 A 
ATOM     21  C   UNL     1       4.507   6.336  17.707  0.00  0.00    +0.000 A 
ATOM     22  C   UNL     1       4.983   5.092  18.117  0.00  0.00    +0.000 A 
ATOM     23  C   UNL     1       4.128   4.298  18.847  0.00  0.00    +0.000 A 
ATOM     24  C   UNL     1       2.824   4.670  19.106  0.00  0.00    +0.000 A 
ATOM     25  C   UNL     1       2.315   5.877  18.688  0.00  0.00    +0.000 A 
ATOM     26  O   UNL     1       2.172   3.753  19.871  0.00  0.00    +0.000 OA
ATOM     27  C   UNL     1       3.294   2.950  20.292  0.00  0.00    +0.000 C 
ATOM     28  O   UNL     1       4.448   3.117  19.445  0.00  0.00    +0.000 OA
ENDBRANCH  19  20
ENDBRANCH  16  18
ENDBRANCH  11  16
TORSDOF 3
ENDMDL
MODEL 4
REMARK VINA RESULT:      -7.9      3.649     10.189
REMARK  Name = 
REMARK  6 active torsions:
REMARK  status: ('A' for Active; 'I' for Inactive)
REMARK    1  A    between atoms: C_1  and  C_2
REMARK    2  A    between atoms: C_7  and  C_8
REMARK    3  A    between atoms: C_11  and  C_12
REMARK    4  A    between atoms: C_12  and  C_14
REMARK    5  A    between atoms: C_15  and  C_16
REMARK    6  A    between atoms: C_25  and  C_26
REMARK                            x       y       z     vdW  Elec       q    Type
REMARK                         _______ _______ _______ _____ _____    ______ ____
ROOT
ATOM      1  C   UNL     1      -4.169  13.022  24.087  0.00  0.00    +0.000 C 
ATOM      2  C   UNL     1      -3.305  12.543  22.952  0.00  0.00    +0.000 A 
ATOM      3  C   UNL     1      -2.211  11.707  23.223  0.00  0.00    +0.000 A 
ATOM      4  C   UNL     1      -1.355  11.235  22.200  0.00  0.00    +0.000 A 
ATOM      5  C   UNL     1      -1.593  11.622  20.874  0.00  0.00    +0.000 A 
ATOM      6  C   UNL     1      -2.704  12.460  20.612  0.00  0.00    +0.000 A 
ATOM      7  C   UNL     1      -3.557  12.922  21.625  0.00  0.00    +0.000 A 
ATOM      8  C   UNL     1      -4.713  13.816  21.263  0.00  0.00    +0.000 C 
ATOM      9  N   UNL     1      -0.729  11.194  19.836  0.00  0.00    +0.000 N 
ATOM     10  O   UNL     1      -0.972  11.634  18.663  0.00  0.00    +0.000 OA
ATOM     11  C   UNL     1       0.348  10.352  20.126  0.00  0.00    +0.000 A 
ATOM     12  C   UNL     1       0.582   9.947  21.467  0.00  0.00    +0.000 A 
ATOM     13  C   UNL     1       1.684   9.059  21.969  0.00  0.00    +0.000 C 
ATOM     14  N   UNL     1      -0.266  10.399  22.490  0.00  0.00    +0.000 N 
ATOM     15  O   UNL     1      -0.048  10.045  23.700  0.00  0.00    +0.000 OA
ENDROOT
BRANCH  11  16
ATOM     16  C   UNL     1       1.273   9.955  19.017  0.00  0.00    +0.000 C 
ATOM     17  O   UNL     1       1.668  10.823  18.233  0.00  0.00    +0.000 OA
BRANCH  16  18
ATOM     18  C   UNL     1       1.773   8.576  18.818  0.00  0.00    +0.000 C 
ATOM     19  C   UNL     1       2.783   8.375  17.953  0.00  0.00    +0.000 C 
BRANCH  19  20
ATOM     20  C   UNL     1       3.324   7.029  17.809  0.00  0.00    +0.000 A 
ATOM     21  C   UNL     1       2.466   5.936  18.046  0.00  0.00    +0.000 A 
ATOM     22  C   UNL     1       2.863   4.641  17.717  0.00  0.00    +0.000 A 
ATOM     23  C   UNL     1       4.102   4.489  17.139  0.00  0.00    +0.000 A 
ATOM     24  C   UNL     1       4.961   5.554  16.954  0.00  0.00    +0.000 A 
ATOM     25  C   UNL     1       4.611   6.839  17.296  0.00  0.00    +0.000 A 
ATOM     26  O   UNL     1       6.114   5.181  16.335  0.00  0.00    +0.000 OA
ATOM     27  C   UNL     1       5.737   3.858  15.902  0.00  0.00    +0.000 C 
ATOM     28  O   UNL     1       4.611   3.332  16.632  0.00  0.00    +0.000 OA
ENDBRANCH  19  20
ENDBRANCH  16  18
ENDBRANCH  11  16
TORSDOF 3
ENDMDL
MODEL 5
REMARK VINA RESULT:      -7.7      3.981      6.893
REMARK  Name = 
REMARK  6 active torsions:
REMARK  status: ('A' for Active; 'I' for Inactive)
REMARK    1  A    between atoms: C_1  and  C_2
REMARK    2  A    between atoms: C_7  and  C_8
REMARK    3  A    between atoms: C_11  and  C_12
REMARK    4  A    between atoms: C_12  and  C_14
REMARK    5  A    between atoms: C_15  and  C_16
REMARK    6  A    between atoms: C_25  and  C_26
REMARK                            x       y       z     vdW  Elec       q    Type
REMARK                         _______ _______ _______ _____ _____    ______ ____
ROOT
ATOM      1  C   UNL     1       3.740   3.473  18.832  0.00  0.00    +0.000 C 
ATOM      2  C   UNL     1       2.997   4.686  19.322  0.00  0.00    +0.000 A 
ATOM      3  C   UNL     1       3.073   5.882  18.593  0.00  0.00    +0.000 A 
ATOM      4  C   UNL     1       2.407   7.059  19.010  0.00  0.00    +0.000 A 
ATOM      5  C   UNL     1       1.657   7.040  20.194  0.00  0.00    +0.000 A 
ATOM      6  C   UNL     1       1.582   5.825  20.918  0.00  0.00    +0.000 A 
ATOM      7  C   UNL     1       2.237   4.656  20.501  0.00  0.00    +0.000 A 
ATOM      8  C   UNL     1       2.111   3.406  21.331  0.00  0.00    +0.000 C 
ATOM      9  N   UNL     1       1.012   8.214  20.653  0.00  0.00    +0.000 N 
ATOM     10  O   UNL     1       0.398   8.139  21.770  0.00  0.00    +0.000 OA
ATOM     11  C   UNL     1       1.091   9.393  19.906  0.00  0.00    +0.000 A 
ATOM     12  C   UNL     1       1.837   9.410  18.698  0.00  0.00    +0.000 A 
ATOM     13  C   UNL     1       2.041  10.574  17.772  0.00  0.00    +0.000 C 
ATOM     14  N   UNL     1       2.493   8.247  18.267  0.00  0.00    +0.000 N 
ATOM     15  O   UNL     1       3.177   8.265  17.186  0.00  0.00    +0.000 OA
ENDROOT
BRANCH  11  16
ATOM     16  C   UNL     1       0.439  10.631  20.440  0.00  0.00    +0.000 C 
ATOM     17  O   UNL     1       1.049  11.314  21.268  0.00  0.00    +0.000 OA
BRANCH  16  18
ATOM     18  C   UNL     1      -0.893  11.110  20.009  0.00  0.00    +0.000 C 
ATOM     19  C   UNL     1      -1.249  10.957  18.721  0.00  0.00    +0.000 C 
BRANCH  19  20
ATOM     20  C   UNL     1      -2.587  11.363  18.310  0.00  0.00    +0.000 A 
ATOM     21  C   UNL     1      -3.015  11.033  17.009  0.00  0.00    +0.000 A 
ATOM     22  C   UNL     1      -4.348  11.203  16.638  0.00  0.00    +0.000 A 
ATOM     23  C   UNL     1      -5.213  11.680  17.596  0.00  0.00    +0.000 A 
ATOM     24  C   UNL     1      -4.782  12.051  18.854  0.00  0.00    +0.000 A 
ATOM     25  C   UNL     1      -3.468  11.924  19.240  0.00  0.00    +0.000 A 
ATOM     26  O   UNL     1      -5.808  12.461  19.648  0.00  0.00    +0.000 OA
ATOM     27  C   UNL     1      -6.923  12.017  18.847  0.00  0.00    +0.000 C 
ATOM     28  O   UNL     1      -6.564  11.790  17.469  0.00  0.00    +0.000 OA
ENDBRANCH  19  20
ENDBRANCH  16  18
ENDBRANCH  11  16
TORSDOF 3
ENDMDL
MODEL 6
REMARK VINA RESULT:      -7.7      3.896      6.834
REMARK  Name = 
REMARK  6 active torsions:
REMARK  status: ('A' for Active; 'I' for Inactive)
REMARK    1  A    between atoms: C_1  and  C_2
REMARK    2  A    between atoms: C_7  and  C_8
REMARK    3  A    between atoms: C_11  and  C_12
REMARK    4  A    between atoms: C_12  and  C_14
REMARK    5  A    between atoms: C_15  and  C_16
REMARK    6  A    between atoms: C_25  and  C_26
REMARK                            x       y       z     vdW  Elec       q    Type
REMARK                         _______ _______ _______ _____ _____    ______ ____
ROOT
ATOM      1  C   UNL     1       4.153   3.777  18.907  0.00  0.00    +0.000 C 
ATOM      2  C   UNL     1       3.646   5.181  18.719  0.00  0.00    +0.000 A 
ATOM      3  C   UNL     1       2.803   5.745  19.688  0.00  0.00    +0.000 A 
ATOM      4  C   UNL     1       2.284   7.055  19.560  0.00  0.00    +0.000 A 
ATOM      5  C   UNL     1       2.607   7.814  18.427  0.00  0.00    +0.000 A 
ATOM      6  C   UNL     1       3.465   7.236  17.459  0.00  0.00    +0.000 A 
ATOM      7  C   UNL     1       3.986   5.940  17.589  0.00  0.00    +0.000 A 
ATOM      8  C   UNL     1       4.886   5.397  16.511  0.00  0.00    +0.000 C 
ATOM      9  N   UNL     1       2.071   9.114  18.256  0.00  0.00    +0.000 N 
ATOM     10  O   UNL     1       2.360   9.722  17.172  0.00  0.00    +0.000 OA
ATOM     11  C   UNL     1       1.241   9.662  19.239  0.00  0.00    +0.000 A 
ATOM     12  C   UNL     1       0.925   8.901  20.396  0.00  0.00    +0.000 A 
ATOM     13  C   UNL     1       0.052   9.314  21.545  0.00  0.00    +0.000 C 
ATOM     14  N   UNL     1       1.442   7.604  20.540  0.00  0.00    +0.000 N 
ATOM     15  O   UNL     1       1.146   6.913  21.575  0.00  0.00    +0.000 OA
ENDROOT
BRANCH  11  16
ATOM     16  C   UNL     1       0.650  11.018  19.010  0.00  0.00    +0.000 C 
ATOM     17  O   UNL     1       1.334  12.015  19.260  0.00  0.00    +0.000 OA
BRANCH  16  18
ATOM     18  C   UNL     1      -0.709  11.242  18.468  0.00  0.00    +0.000 C 
ATOM     19  C   UNL     1      -1.716  11.479  19.327  0.00  0.00    +0.000 C 
BRANCH  19  20
ATOM     20  C   UNL     1      -3.040  11.770  18.791  0.00  0.00    +0.000 A 
ATOM     21  C   UNL     1      -3.378  11.246  17.528  0.00  0.00    +0.000 A 
ATOM     22  C   UNL     1      -4.692  11.308  17.065  0.00  0.00    +0.000 A 
ATOM     23  C   UNL     1      -5.628  11.877  17.898  0.00  0.00    +0.000 A 
ATOM     24  C   UNL     1      -5.285  12.434  19.113  0.00  0.00    +0.000 A 
ATOM     25  C   UNL     1      -3.994  12.416  19.585  0.00  0.00    +0.000 A 
ATOM     26  O   UNL     1      -6.370  12.906  19.785  0.00  0.00    +0.000 OA
ATOM     27  C   UNL     1      -7.419  12.311  18.995  0.00  0.00    +0.000 C 
ATOM     28  O   UNL     1      -6.972  11.912  17.683  0.00  0.00    +0.000 OA
ENDBRANCH  19  20
ENDBRANCH  16  18
ENDBRANCH  11  16
TORSDOF 3
ENDMDL
MODEL 7
REMARK VINA RESULT:      -7.7      0.740      1.453
REMARK  Name = 
REMARK  6 active torsions:
REMARK  status: ('A' for Active; 'I' for Inactive)
REMARK    1  A    between atoms: C_1  and  C_2
REMARK    2  A    between atoms: C_7  and  C_8
REMARK    3  A    between atoms: C_11  and  C_12
REMARK    4  A    between atoms: C_12  and  C_14
REMARK    5  A    between atoms: C_15  and  C_16
REMARK    6  A    between atoms: C_25  and  C_26
REMARK                            x       y       z     vdW  Elec       q    Type
REMARK                         _______ _______ _______ _____ _____    ______ ____
ROOT
ATOM      1  C   UNL     1       7.534   4.332  12.122  0.00  0.00    +0.000 C 
ATOM      2  C   UNL     1       6.622   4.311  13.318  0.00  0.00    +0.000 A 
ATOM      3  C   UNL     1       7.093   4.785  14.551  0.00  0.00    +0.000 A 
ATOM      4  C   UNL     1       6.287   4.779  15.715  0.00  0.00    +0.000 A 
ATOM      5  C   UNL     1       4.983   4.272  15.643  0.00  0.00    +0.000 A 
ATOM      6  C   UNL     1       4.516   3.802  14.391  0.00  0.00    +0.000 A 
ATOM      7  C   UNL     1       5.313   3.814  13.236  0.00  0.00    +0.000 A 
ATOM      8  C   UNL     1       4.744   3.290  11.944  0.00  0.00    +0.000 C 
ATOM      9  N   UNL     1       4.168   4.220  16.801  0.00  0.00    +0.000 N 
ATOM     10  O   UNL     1       3.014   3.689  16.674  0.00  0.00    +0.000 OA
ATOM     11  C   UNL     1       4.652   4.708  18.018  0.00  0.00    +0.000 A 
ATOM     12  C   UNL     1       5.968   5.237  18.090  0.00  0.00    +0.000 A 
ATOM     13  C   UNL     1       6.659   5.796  19.300  0.00  0.00    +0.000 C 
ATOM     14  N   UNL     1       6.774   5.259  16.941  0.00  0.00    +0.000 N 
ATOM     15  O   UNL     1       7.964   5.723  17.007  0.00  0.00    +0.000 OA
ENDROOT
BRANCH  11  16
ATOM     16  C   UNL     1       3.788   4.596  19.236  0.00  0.00    +0.000 C 
ATOM     17  O   UNL     1       3.657   3.492  19.772  0.00  0.00    +0.000 OA
BRANCH  16  18
ATOM     18  C   UNL     1       3.097   5.746  19.862  0.00  0.00    +0.000 C 
ATOM     19  C   UNL     1       2.784   6.806  19.097  0.00  0.00    +0.000 C 
BRANCH  19  20
ATOM     20  C   UNL     1       2.042   7.908  19.696  0.00  0.00    +0.000 A 
ATOM     21  C   UNL     1       1.432   8.846  18.839  0.00  0.00    +0.000 A 
ATOM     22  C   UNL     1       0.538   9.789  19.344  0.00  0.00    +0.000 A 
ATOM     23  C   UNL     1       0.268   9.743  20.692  0.00  0.00    +0.000 A 
ATOM     24  C   UNL     1       0.903   8.856  21.538  0.00  0.00    +0.000 A 
ATOM     25  C   UNL     1       1.813   7.934  21.076  0.00  0.00    +0.000 A 
ATOM     26  O   UNL     1       0.458   8.961  22.819  0.00  0.00    +0.000 OA
ATOM     27  C   UNL     1      -0.708   9.781  22.602  0.00  0.00    +0.000 C 
ATOM     28  O   UNL     1      -0.668  10.486  21.345  0.00  0.00    +0.000 OA
ENDBRANCH  19  20
ENDBRANCH  16  18
ENDBRANCH  11  16
TORSDOF 3
ENDMDL
MODEL 8
REMARK VINA RESULT:      -7.6      4.303      9.701
REMARK  Name = 
REMARK  6 active torsions:
REMARK  status: ('A' for Active; 'I' for Inactive)
REMARK    1  A    between atoms: C_1  and  C_2
REMARK    2  A    between atoms: C_7  and  C_8
REMARK    3  A    between atoms: C_11  and  C_12
REMARK    4  A    between atoms: C_12  and  C_14
REMARK    5  A    between atoms: C_15  and  C_16
REMARK    6  A    between atoms: C_25  and  C_26
REMARK                            x       y       z     vdW  Elec       q    Type
REMARK                         _______ _______ _______ _____ _____    ______ ____
ROOT
ATOM      1  C   UNL     1      -5.799  13.515  19.791  0.00  0.00    +0.000 C 
ATOM      2  C   UNL     1      -4.657  12.655  19.321  0.00  0.00    +0.000 A 
ATOM      3  C   UNL     1      -3.457  12.648  20.046  0.00  0.00    +0.000 A 
ATOM      4  C   UNL     1      -2.343  11.871  19.647  0.00  0.00    +0.000 A 
ATOM      5  C   UNL     1      -2.432  11.092  18.485  0.00  0.00    +0.000 A 
ATOM      6  C   UNL     1      -3.652  11.101  17.766  0.00  0.00    +0.000 A 
ATOM      7  C   UNL     1      -4.758  11.866  18.165  0.00  0.00    +0.000 A 
ATOM      8  C   UNL     1      -6.017  11.826  17.340  0.00  0.00    +0.000 C 
ATOM      9  N   UNL     1      -1.320  10.334  18.043  0.00  0.00    +0.000 N 
ATOM     10  O   UNL     1      -1.452   9.697  16.945  0.00  0.00    +0.000 OA
ATOM     11  C   UNL     1      -0.136  10.332  18.787  0.00  0.00    +0.000 A 
ATOM     12  C   UNL     1      -0.049  11.109  19.972  0.00  0.00    +0.000 A 
ATOM     13  C   UNL     1       1.132  11.238  20.890  0.00  0.00    +0.000 C 
ATOM     14  N   UNL     1      -1.149  11.876  20.385  0.00  0.00    +0.000 N 
ATOM     15  O   UNL     1      -1.068  12.586  21.446  0.00  0.00    +0.000 OA
ENDROOT
BRANCH  11  16
ATOM     16  C   UNL     1       1.039   9.560  18.270  0.00  0.00    +0.000 C 
ATOM     17  O   UNL     1       1.868  10.142  17.564  0.00  0.00    +0.000 OA
BRANCH  16  18
ATOM     18  C   UNL     1       1.288   8.135  18.583  0.00  0.00    +0.000 C 
ATOM     19  C   UNL     1       2.422   7.803  19.225  0.00  0.00    +0.000 C 
BRANCH  19  20
ATOM     20  C   UNL     1       2.636   6.410  19.596  0.00  0.00    +0.000 A 
ATOM     21  C   UNL     1       1.707   5.800  20.463  0.00  0.00    +0.000 A 
ATOM     22  C   UNL     1       1.739   4.424  20.679  0.00  0.00    +0.000 A 
ATOM     23  C   UNL     1       2.691   3.701  19.997  0.00  0.00    +0.000 A 
ATOM     24  C   UNL     1       3.631   4.306  19.188  0.00  0.00    +0.000 A 
ATOM     25  C   UNL     1       3.645   5.664  18.979  0.00  0.00    +0.000 A 
ATOM     26  O   UNL     1       4.450   3.400  18.588  0.00  0.00    +0.000 OA
ATOM     27  C   UNL     1       3.722   2.189  18.878  0.00  0.00    +0.000 C 
ATOM     28  O   UNL     1       2.797   2.343  19.973  0.00  0.00    +0.000 OA
ENDBRANCH  19  20
ENDBRANCH  16  18
ENDBRANCH  11  16
TORSDOF 3
ENDMDL
MODEL 9
REMARK VINA RESULT:      -7.5      4.422      7.969
REMARK  Name = 
REMARK  6 active torsions:
REMARK  status: ('A' for Active; 'I' for Inactive)
REMARK    1  A    between atoms: C_1  and  C_2
REMARK    2  A    between atoms: C_7  and  C_8
REMARK    3  A    between atoms: C_11  and  C_12
REMARK    4  A    between atoms: C_12  and  C_14
REMARK    5  A    between atoms: C_15  and  C_16
REMARK    6  A    between atoms: C_25  and  C_26
REMARK                            x       y       z     vdW  Elec       q    Type
REMARK                         _______ _______ _______ _____ _____    ______ ____
ROOT
ATOM      1  C   UNL     1       3.455   5.069  18.119  0.00  0.00    +0.000 C 
ATOM      2  C   UNL     1       2.709   6.115  18.901  0.00  0.00    +0.000 A 
ATOM      3  C   UNL     1       2.566   7.404  18.366  0.00  0.00    +0.000 A 
ATOM      4  C   UNL     1       1.887   8.434  19.058  0.00  0.00    +0.000 A 
ATOM      5  C   UNL     1       1.349   8.169  20.325  0.00  0.00    +0.000 A 
ATOM      6  C   UNL     1       1.493   6.863  20.853  0.00  0.00    +0.000 A 
ATOM      7  C   UNL     1       2.161   5.839  20.163  0.00  0.00    +0.000 A 
ATOM      8  C   UNL     1       2.276   4.479  20.796  0.00  0.00    +0.000 C 
ATOM      9  N   UNL     1       0.697   9.193  21.056  0.00  0.00    +0.000 N 
ATOM     10  O   UNL     1       0.286   8.896  22.228  0.00  0.00    +0.000 OA
ATOM     11  C   UNL     1       0.556  10.467  20.500  0.00  0.00    +0.000 A 
ATOM     12  C   UNL     1       1.087  10.734  19.210  0.00  0.00    +0.000 A 
ATOM     13  C   UNL     1       1.039  12.032  18.457  0.00  0.00    +0.000 C 
ATOM     14  N   UNL     1       1.753   9.718  18.507  0.00  0.00    +0.000 N 
ATOM     15  O   UNL     1       2.243   9.961  17.350  0.00  0.00    +0.000 OA
ENDROOT
BRANCH  11  16
ATOM     16  C   UNL     1      -0.095  11.542  21.314  0.00  0.00    +0.000 C 
ATOM     17  O   UNL     1       0.619  12.299  21.979  0.00  0.00    +0.000 OA
BRANCH  16  18
ATOM     18  C   UNL     1      -1.556  11.777  21.349  0.00  0.00    +0.000 C 
ATOM     19  C   UNL     1      -2.046  12.668  22.229  0.00  0.00    +0.000 C 
BRANCH  19  20
ATOM     20  C   UNL     1      -3.475  12.952  22.216  0.00  0.00    +0.000 A 
ATOM     21  C   UNL     1      -4.101  13.172  20.972  0.00  0.00    +0.000 A 
ATOM     22  C   UNL     1      -5.490  13.234  20.881  0.00  0.00    +0.000 A 
ATOM     23  C   UNL     1      -6.207  13.050  22.041  0.00  0.00    +0.000 A 
ATOM     24  C   UNL     1      -5.592  12.885  23.265  0.00  0.00    +0.000 A 
ATOM     25  C   UNL     1      -4.224  12.850  23.393  0.00  0.00    +0.000 A 
ATOM     26  O   UNL     1      -6.490  12.685  24.268  0.00  0.00    +0.000 OA
ATOM     27  C   UNL     1      -7.677  12.449  23.484  0.00  0.00    +0.000 C 
ATOM     28  O   UNL     1      -7.562  12.944  22.135  0.00  0.00    +0.000 OA
ENDBRANCH  19  20
ENDBRANCH  16  18
ENDBRANCH  11  16
TORSDOF 3
ENDMDL
