MODEL 1
REMARK VINA RESULT:      -7.7      0.000      0.000
REMARK  Name = 
REMARK  3 active torsions:
REMARK  status: ('A' for Active; 'I' for Inactive)
REMARK    1  A    between atoms: C_1  and  C_2
REMARK    2  A    between atoms: C_5  and  C_6
REMARK    3  A    between atoms: C_17  and  C_18
REMARK                            x       y       z     vdW  Elec       q    Type
REMARK                         _______ _______ _______ _____ _____    ______ ____
ROOT
ATOM      1  C   UNL     1       5.261   3.960  17.680  0.00  0.00    +0.000 C 
ATOM      2  C   UNL     1       4.199   4.516  18.285  0.00  0.00    +0.000 C 
ATOM      3  C   UNL     1       3.404   3.709  19.281  0.00  0.00    +0.000 C 
ATOM      4  O   UNL     1       3.553   2.538  19.572  0.00  0.00    +0.000 OA
ATOM      5  N   UNL     1       2.488   4.601  19.813  0.00  0.00    +0.000 N 
ATOM      6  C   UNL     1       2.608   5.860  19.229  0.00  0.00    +0.000 A 
ATOM      7  C   UNL     1       1.849   6.977  19.517  0.00  0.00    +0.000 A 
ATOM      8  C   UNL     1       2.109   8.136  18.783  0.00  0.00    +0.000 A 
ATOM      9  C   UNL     1       3.105   8.148  17.791  0.00  0.00    +0.000 A 
ATOM     10  C   UNL     1       3.872   7.008  17.528  0.00  0.00    +0.000 A 
ATOM     11  C   UNL     1       3.624   5.865  18.265  0.00  0.00    +0.000 A 
ATOM     12  H   UNL     1       1.819   4.341  20.523  0.00  0.00    +0.000 HD
ENDROOT
BRANCH   1  17
ATOM     13  C   UNL     1       5.606   2.998  12.098  0.00  0.00    +0.000 C 
ATOM     14  C   UNL     1       6.010   3.729  13.330  0.00  0.00    +0.000 A 
ATOM     15  C   UNL     1       5.553   3.553  14.587  0.00  0.00    +0.000 A 
ATOM     16  N   UNL     1       6.165   4.411  15.479  0.00  0.00    +0.000 N 
ATOM     17  C   UNL     1       6.132   4.676  16.829  0.00  0.00    +0.000 A 
ATOM     18  C   UNL     1       7.068   5.697  16.998  0.00  0.00    +0.000 A 
ATOM     19  C   UNL     1       7.497   6.402  18.229  0.00  0.00    +0.000 C 
ATOM     20  N   UNL     1       7.671   6.033  15.795  0.00  0.00    +0.000 NA
ATOM     21  C   UNL     1       7.091   5.246  14.936  0.00  0.00    +0.000 A 
ATOM     22  S   UNL     1       7.252   5.002  13.228  0.00  0.00    +0.000 S 
ENDBRANCH   1  17
TORSDOF 1
ENDMDL
MODEL 2
REMARK VINA RESULT:      -7.1      2.907      5.943
REMARK  Name = 
REMARK  3 active torsions:
REMARK  status: ('A' for Active; 'I' for Inactive)
REMARK    1  A    between atoms: C_1  and  C_2
REMARK    2  A    between atoms: C_5  and  C_6
REMARK    3  A    between atoms: C_17  and  C_18
REMARK                            x       y       z     vdW  Elec       q    Type
REMARK                         _______ _______ _______ _____ _____    ______ ____
ROOT
ATOM      1  C   UNL     1       4.116   3.763  16.777  0.00  0.00    +0.000 C 
ATOM      2  C   UNL     1       5.194   4.544  16.608  0.00  0.00    +0.000 C 
ATOM      3  C   UNL     1       5.596   4.967  15.216  0.00  0.00    +0.000 C 
ATOM      4  O   UNL     1       5.097   4.617  14.164  0.00  0.00    +0.000 OA
ATOM      5  N   UNL     1       6.636   5.862  15.401  0.00  0.00    +0.000 N 
ATOM      6  C   UNL     1       6.943   6.011  16.752  0.00  0.00    +0.000 A 
ATOM      7  C   UNL     1       7.929   6.816  17.289  0.00  0.00    +0.000 A 
ATOM      8  C   UNL     1       8.094   6.789  18.675  0.00  0.00    +0.000 A 
ATOM      9  C   UNL     1       7.286   5.966  19.477  0.00  0.00    +0.000 A 
ATOM     10  C   UNL     1       6.284   5.171  18.912  0.00  0.00    +0.000 A 
ATOM     11  C   UNL     1       6.109   5.209  17.541  0.00  0.00    +0.000 A 
ATOM     12  H   UNL     1       7.105   6.322  14.635  0.00  0.00    +0.000 HD
ENDROOT
BRANCH   1  17
ATOM     13  C   UNL     1       1.711   7.549  20.254  0.00  0.00    +0.000 C 
ATOM     14  C   UNL     1       2.144   6.164  19.921  0.00  0.00    +0.000 A 
ATOM     15  C   UNL     1       2.751   5.733  18.797  0.00  0.00    +0.000 A 
ATOM     16  N   UNL     1       3.012   4.378  18.843  0.00  0.00    +0.000 N 
ATOM     17  C   UNL     1       3.597   3.421  18.046  0.00  0.00    +0.000 A 
ATOM     18  C   UNL     1       3.498   2.247  18.794  0.00  0.00    +0.000 A 
ATOM     19  C   UNL     1       3.960   0.875  18.479  0.00  0.00    +0.000 C 
ATOM     20  N   UNL     1       2.889   2.480  20.019  0.00  0.00    +0.000 NA
ATOM     21  C   UNL     1       2.619   3.752  19.986  0.00  0.00    +0.000 A 
ATOM     22  S   UNL     1       1.878   4.854  21.099  0.00  0.00    +0.000 S 
ENDBRANCH   1  17
TORSDOF 1
ENDMDL
MODEL 3
REMARK VINA RESULT:      -6.6      2.830      6.037
REMARK  Name = 
REMARK  3 active torsions:
REMARK  status: ('A' for Active; 'I' for Inactive)
REMARK    1  A    between atoms: C_1  and  C_2
REMARK    2  A    between atoms: C_5  and  C_6
REMARK    3  A    between atoms: C_17  and  C_18
REMARK                            x       y       z     vdW  Elec       q    Type
REMARK                         _______ _______ _______ _____ _____    ______ ____
ROOT
ATOM      1  C   UNL     1       5.444   5.573  19.230  0.00  0.00    +0.000 C 
ATOM      2  C   UNL     1       6.202   5.230  18.177  0.00  0.00    +0.000 C 
ATOM      3  C   UNL     1       7.679   4.994  18.369  0.00  0.00    +0.000 C 
ATOM      4  O   UNL     1       8.327   5.152  19.385  0.00  0.00    +0.000 OA
ATOM      5  N   UNL     1       8.129   4.527  17.145  0.00  0.00    +0.000 N 
ATOM      6  C   UNL     1       7.098   4.484  16.209  0.00  0.00    +0.000 A 
ATOM      7  C   UNL     1       7.197   4.079  14.893  0.00  0.00    +0.000 A 
ATOM      8  C   UNL     1       6.042   4.150  14.111  0.00  0.00    +0.000 A 
ATOM      9  C   UNL     1       4.836   4.622  14.656  0.00  0.00    +0.000 A 
ATOM     10  C   UNL     1       4.756   5.012  15.997  0.00  0.00    +0.000 A 
ATOM     11  C   UNL     1       5.895   4.927  16.775  0.00  0.00    +0.000 A 
ATOM     12  H   UNL     1       9.090   4.272  16.975  0.00  0.00    +0.000 HD
ENDROOT
BRANCH   1  17
ATOM     13  C   UNL     1       1.912   1.946  21.793  0.00  0.00    +0.000 C 
ATOM     14  C   UNL     1       2.177   3.153  20.964  0.00  0.00    +0.000 A 
ATOM     15  C   UNL     1       3.371   3.663  20.599  0.00  0.00    +0.000 A 
ATOM     16  N   UNL     1       3.228   4.794  19.820  0.00  0.00    +0.000 N 
ATOM     17  C   UNL     1       4.038   5.695  19.167  0.00  0.00    +0.000 A 
ATOM     18  C   UNL     1       3.144   6.580  18.563  0.00  0.00    +0.000 A 
ATOM     19  C   UNL     1       3.405   7.763  17.709  0.00  0.00    +0.000 C 
ATOM     20  N   UNL     1       1.828   6.223  18.820  0.00  0.00    +0.000 NA
ATOM     21  C   UNL     1       1.943   5.167  19.571  0.00  0.00    +0.000 A 
ATOM     22  S   UNL     1       0.808   4.096  20.323  0.00  0.00    +0.000 S 
ENDBRANCH   1  17
TORSDOF 1
ENDMDL
MODEL 4
REMARK VINA RESULT:      -6.6      2.710      5.892
REMARK  Name = 
REMARK  3 active torsions:
REMARK  status: ('A' for Active; 'I' for Inactive)
REMARK    1  A    between atoms: C_1  and  C_2
REMARK    2  A    between atoms: C_5  and  C_6
REMARK    3  A    between atoms: C_17  and  C_18
REMARK                            x       y       z     vdW  Elec       q    Type
REMARK                         _______ _______ _______ _____ _____    ______ ____
ROOT
ATOM      1  C   UNL     1       5.158   6.475  18.451  0.00  0.00    +0.000 C 
ATOM      2  C   UNL     1       5.921   6.250  17.371  0.00  0.00    +0.000 C 
ATOM      3  C   UNL     1       7.279   6.900  17.270  0.00  0.00    +0.000 C 
ATOM      4  O   UNL     1       7.773   7.703  18.037  0.00  0.00    +0.000 OA
ATOM      5  N   UNL     1       7.851   6.359  16.131  0.00  0.00    +0.000 N 
ATOM      6  C   UNL     1       6.981   5.474  15.499  0.00  0.00    +0.000 A 
ATOM      7  C   UNL     1       7.225   4.767  14.338  0.00  0.00    +0.000 A 
ATOM      8  C   UNL     1       6.197   3.958  13.851  0.00  0.00    +0.000 A 
ATOM      9  C   UNL     1       4.966   3.880  14.524  0.00  0.00    +0.000 A 
ATOM     10  C   UNL     1       4.746   4.594  15.707  0.00  0.00    +0.000 A 
ATOM     11  C   UNL     1       5.771   5.383  16.198  0.00  0.00    +0.000 A 
ATOM     12  H   UNL     1       8.776   6.604  15.813  0.00  0.00    +0.000 HD
ENDROOT
BRANCH   1  17
ATOM     13  C   UNL     1       4.835   1.171  20.442  0.00  0.00    +0.000 C 
ATOM     14  C   UNL     1       4.206   2.435  19.969  0.00  0.00    +0.000 A 
ATOM     15  C   UNL     1       4.819   3.563  19.557  0.00  0.00    +0.000 A 
ATOM     16  N   UNL     1       3.911   4.533  19.183  0.00  0.00    +0.000 N 
ATOM     17  C   UNL     1       3.931   5.816  18.686  0.00  0.00    +0.000 A 
ATOM     18  C   UNL     1       2.583   6.146  18.542  0.00  0.00    +0.000 A 
ATOM     19  C   UNL     1       1.956   7.391  18.039  0.00  0.00    +0.000 C 
ATOM     20  N   UNL     1       1.762   5.093  18.920  0.00  0.00    +0.000 NA
ATOM     21  C   UNL     1       2.603   4.174  19.295  0.00  0.00    +0.000 A 
ATOM     22  S   UNL     1       2.430   2.558  19.895  0.00  0.00    +0.000 S 
ENDBRANCH   1  17
TORSDOF 1
ENDMDL
MODEL 5
REMARK VINA RESULT:      -6.5      1.769      2.887
REMARK  Name = 
REMARK  3 active torsions:
REMARK  status: ('A' for Active; 'I' for Inactive)
REMARK    1  A    between atoms: C_1  and  C_2
REMARK    2  A    between atoms: C_5  and  C_6
REMARK    3  A    between atoms: C_17  and  C_18
REMARK                            x       y       z     vdW  Elec       q    Type
REMARK                         _______ _______ _______ _____ _____    ______ ____
ROOT
ATOM      1  C   UNL     1       4.734   6.519  17.687  0.00  0.00    +0.000 C 
ATOM      2  C   UNL     1       3.873   5.997  18.574  0.00  0.00    +0.000 C 
ATOM      3  C   UNL     1       2.627   6.763  18.942  0.00  0.00    +0.000 C 
ATOM      4  O   UNL     1       2.314   7.882  18.584  0.00  0.00    +0.000 OA
ATOM      5  N   UNL     1       1.903   5.903  19.750  0.00  0.00    +0.000 N 
ATOM      6  C   UNL     1       2.583   4.704  19.950  0.00  0.00    +0.000 A 
ATOM      7  C   UNL     1       2.155   3.631  20.708  0.00  0.00    +0.000 A 
ATOM      8  C   UNL     1       3.012   2.533  20.808  0.00  0.00    +0.000 A 
ATOM      9  C   UNL     1       4.260   2.538  20.162  0.00  0.00    +0.000 A 
ATOM     10  C   UNL     1       4.666   3.630  19.387  0.00  0.00    +0.000 A 
ATOM     11  C   UNL     1       3.809   4.710  19.275  0.00  0.00    +0.000 A 
ATOM     12  H   UNL     1       1.006   6.145  20.143  0.00  0.00    +0.000 HD
ENDROOT
BRANCH   1  17
ATOM     13  C   UNL     1       4.808   3.961  12.622  0.00  0.00    +0.000 C 
ATOM     14  C   UNL     1       5.457   4.350  13.904  0.00  0.00    +0.000 A 
ATOM     15  C   UNL     1       4.930   5.072  14.914  0.00  0.00    +0.000 A 
ATOM     16  N   UNL     1       5.827   5.230  15.953  0.00  0.00    +0.000 N 
ATOM     17  C   UNL     1       5.859   5.821  17.195  0.00  0.00    +0.000 A 
ATOM     18  C   UNL     1       7.140   5.539  17.672  0.00  0.00    +0.000 A 
ATOM     19  C   UNL     1       7.775   5.896  18.962  0.00  0.00    +0.000 C 
ATOM     20  N   UNL     1       7.863   4.784  16.761  0.00  0.00    +0.000 NA
ATOM     21  C   UNL     1       7.039   4.640  15.765  0.00  0.00    +0.000 A 
ATOM     22  S   UNL     1       7.129   3.833  14.234  0.00  0.00    +0.000 S 
ENDBRANCH   1  17
TORSDOF 1
ENDMDL
MODEL 6
REMARK VINA RESULT:      -6.5      1.799      2.944
REMARK  Name = 
REMARK  3 active torsions:
REMARK  status: ('A' for Active; 'I' for Inactive)
REMARK    1  A    between atoms: C_1  and  C_2
REMARK    2  A    between atoms: C_5  and  C_6
REMARK    3  A    between atoms: C_17  and  C_18
REMARK                            x       y       z     vdW  Elec       q    Type
REMARK                         _______ _______ _______ _____ _____    ______ ____
ROOT
ATOM      1  C   UNL     1       4.612   6.280  17.234  0.00  0.00    +0.000 C 
ATOM      2  C   UNL     1       3.580   5.615  17.775  0.00  0.00    +0.000 C 
ATOM      3  C   UNL     1       2.338   6.369  18.180  0.00  0.00    +0.000 C 
ATOM      4  O   UNL     1       2.161   7.571  18.152  0.00  0.00    +0.000 OA
ATOM      5  N   UNL     1       1.434   5.392  18.561  0.00  0.00    +0.000 N 
ATOM      6  C   UNL     1       1.995   4.120  18.469  0.00  0.00    +0.000 A 
ATOM      7  C   UNL     1       1.377   2.923  18.778  0.00  0.00    +0.000 A 
ATOM      8  C   UNL     1       2.136   1.758  18.651  0.00  0.00    +0.000 A 
ATOM      9  C   UNL     1       3.475   1.818  18.228  0.00  0.00    +0.000 A 
ATOM     10  C   UNL     1       4.074   3.040  17.905  0.00  0.00    +0.000 A 
ATOM     11  C   UNL     1       3.318   4.192  18.016  0.00  0.00    +0.000 A 
ATOM     12  H   UNL     1       0.499   5.603  18.875  0.00  0.00    +0.000 HD
ENDROOT
BRANCH   1  17
ATOM     13  C   UNL     1       4.714   3.749  12.156  0.00  0.00    +0.000 C 
ATOM     14  C   UNL     1       5.368   4.165  13.427  0.00  0.00    +0.000 A 
ATOM     15  C   UNL     1       4.826   4.856  14.451  0.00  0.00    +0.000 A 
ATOM     16  N   UNL     1       5.734   5.055  15.472  0.00  0.00    +0.000 N 
ATOM     17  C   UNL     1       5.761   5.642  16.716  0.00  0.00    +0.000 A 
ATOM     18  C   UNL     1       7.064   5.423  17.167  0.00  0.00    +0.000 A 
ATOM     19  C   UNL     1       7.706   5.807  18.446  0.00  0.00    +0.000 C 
ATOM     20  N   UNL     1       7.806   4.709  16.237  0.00  0.00    +0.000 NA
ATOM     21  C   UNL     1       6.970   4.528  15.258  0.00  0.00    +0.000 A 
ATOM     22  S   UNL     1       7.070   3.732  13.721  0.00  0.00    +0.000 S 
ENDBRANCH   1  17
TORSDOF 1
ENDMDL
MODEL 7
REMARK VINA RESULT:      -6.5      2.921      6.252
REMARK  Name = 
REMARK  3 active torsions:
REMARK  status: ('A' for Active; 'I' for Inactive)
REMARK    1  A    between atoms: C_1  and  C_2
REMARK    2  A    between atoms: C_5  and  C_6
REMARK    3  A    between atoms: C_17  and  C_18
REMARK                            x       y       z     vdW  Elec       q    Type
REMARK                         _______ _______ _______ _____ _____    ______ ____
ROOT
ATOM      1  C   UNL     1       5.530   4.129  19.246  0.00  0.00    +0.000 C 
ATOM      2  C   UNL     1       6.177   4.374  18.096  0.00  0.00    +0.000 C 
ATOM      3  C   UNL     1       7.642   4.732  18.128  0.00  0.00    +0.000 C 
ATOM      4  O   UNL     1       8.338   4.912  19.108  0.00  0.00    +0.000 OA
ATOM      5  N   UNL     1       8.028   4.778  16.798  0.00  0.00    +0.000 N 
ATOM      6  C   UNL     1       6.953   4.524  15.950  0.00  0.00    +0.000 A 
ATOM      7  C   UNL     1       6.981   4.502  14.569  0.00  0.00    +0.000 A 
ATOM      8  C   UNL     1       5.776   4.262  13.906  0.00  0.00    +0.000 A 
ATOM      9  C   UNL     1       4.588   4.060  14.630  0.00  0.00    +0.000 A 
ATOM     10  C   UNL     1       4.587   4.072  16.029  0.00  0.00    +0.000 A 
ATOM     11  C   UNL     1       5.784   4.293  16.685  0.00  0.00    +0.000 A 
ATOM     12  H   UNL     1       8.971   4.988  16.509  0.00  0.00    +0.000 HD
ENDROOT
BRANCH   1  17
ATOM     13  C   UNL     1       1.222   7.381  20.998  0.00  0.00    +0.000 C 
ATOM     14  C   UNL     1       1.769   6.098  20.478  0.00  0.00    +0.000 A 
ATOM     15  C   UNL     1       3.051   5.805  20.175  0.00  0.00    +0.000 A 
ATOM     16  N   UNL     1       3.186   4.507  19.723  0.00  0.00    +0.000 N 
ATOM     17  C   UNL     1       4.195   3.671  19.303  0.00  0.00    +0.000 A 
ATOM     18  C   UNL     1       3.543   2.472  19.012  0.00  0.00    +0.000 A 
ATOM     19  C   UNL     1       4.092   1.184  18.527  0.00  0.00    +0.000 C 
ATOM     20  N   UNL     1       2.182   2.563  19.264  0.00  0.00    +0.000 NA
ATOM     21  C   UNL     1       2.032   3.788  19.674  0.00  0.00    +0.000 A 
ATOM     22  S   UNL     1       0.671   4.723  20.203  0.00  0.00    +0.000 S 
ENDBRANCH   1  17
TORSDOF 1
ENDMDL
MODEL 8
REMARK VINA RESULT:      -6.4      9.187     10.841
REMARK  Name = 
REMARK  3 active torsions:
REMARK  status: ('A' for Active; 'I' for Inactive)
REMARK    1  A    between atoms: C_1  and  C_2
REMARK    2  A    between atoms: C_5  and  C_6
REMARK    3  A    between atoms: C_17  and  C_18
REMARK                            x       y       z     vdW  Elec       q    Type
REMARK                         _______ _______ _______ _____ _____    ______ ____
ROOT
ATOM      1  C   UNL     1      -2.301  12.823  20.886  0.00  0.00    +0.000 C 
ATOM      2  C   UNL     1      -3.051  12.371  19.870  0.00  0.00    +0.000 C 
ATOM      3  C   UNL     1      -4.471  12.856  19.719  0.00  0.00    +0.000 C 
ATOM      4  O   UNL     1      -5.089  13.581  20.474  0.00  0.00    +0.000 OA
ATOM      5  N   UNL     1      -4.907  12.321  18.518  0.00  0.00    +0.000 N 
ATOM      6  C   UNL     1      -3.923  11.530  17.929  0.00  0.00    +0.000 A 
ATOM      7  C   UNL     1      -4.024  10.842  16.736  0.00  0.00    +0.000 A 
ATOM      8  C   UNL     1      -2.926  10.073  16.344  0.00  0.00    +0.000 A 
ATOM      9  C   UNL     1      -1.773  10.009  17.145  0.00  0.00    +0.000 A 
ATOM     10  C   UNL     1      -1.688  10.727  18.342  0.00  0.00    +0.000 A 
ATOM     11  C   UNL     1      -2.769  11.501  18.723  0.00  0.00    +0.000 A 
ATOM     12  H   UNL     1      -5.830  12.487  18.147  0.00  0.00    +0.000 HD
ENDROOT
BRANCH   1  17
ATOM     13  C   UNL     1       1.823  15.911  18.507  0.00  0.00    +0.000 C 
ATOM     14  C   UNL     1       1.353  14.772  19.343  0.00  0.00    +0.000 A 
ATOM     15  C   UNL     1       0.084  14.436  19.649  0.00  0.00    +0.000 A 
ATOM     16  N   UNL     1       0.030  13.310  20.446  0.00  0.00    +0.000 N 
ATOM     17  C   UNL     1      -0.930  12.518  21.035  0.00  0.00    +0.000 A 
ATOM     18  C   UNL     1      -0.198  11.529  21.692  0.00  0.00    +0.000 A 
ATOM     19  C   UNL     1      -0.665  10.375  22.497  0.00  0.00    +0.000 C 
ATOM     20  N   UNL     1       1.165  11.696  21.498  0.00  0.00    +0.000 NA
ATOM     21  C   UNL     1       1.237  12.766  20.762  0.00  0.00    +0.000 A 
ATOM     22  S   UNL     1       2.546  13.660  20.060  0.00  0.00    +0.000 S 
ENDBRANCH   1  17
TORSDOF 1
ENDMDL
MODEL 9
REMARK VINA RESULT:      -6.3      8.434     10.063
REMARK  Name = 
REMARK  3 active torsions:
REMARK  status: ('A' for Active; 'I' for Inactive)
REMARK    1  A    between atoms: C_1  and  C_2
REMARK    2  A    between atoms: C_5  and  C_6
REMARK    3  A    between atoms: C_17  and  C_18
REMARK                            x       y       z     vdW  Elec       q    Type
REMARK                         _______ _______ _______ _____ _____    ______ ____
ROOT
ATOM      1  C   UNL     1      -0.769  10.562  18.263  0.00  0.00    +0.000 C 
ATOM      2  C   UNL     1      -2.052  10.917  18.094  0.00  0.00    +0.000 C 
ATOM      3  C   UNL     1      -2.831  10.362  16.928  0.00  0.00    +0.000 C 
ATOM      4  O   UNL     1      -2.415   9.658  16.028  0.00  0.00    +0.000 OA
ATOM      5  N   UNL     1      -4.130  10.801  17.123  0.00  0.00    +0.000 N 
ATOM      6  C   UNL     1      -4.230  11.597  18.261  0.00  0.00    +0.000 A 
ATOM      7  C   UNL     1      -5.372  12.205  18.744  0.00  0.00    +0.000 A 
ATOM      8  C   UNL     1      -5.244  12.996  19.888  0.00  0.00    +0.000 A 
ATOM      9  C   UNL     1      -3.994  13.160  20.509  0.00  0.00    +0.000 A 
ATOM     10  C   UNL     1      -2.854  12.522  20.011  0.00  0.00    +0.000 A 
ATOM     11  C   UNL     1      -2.983  11.726  18.888  0.00  0.00    +0.000 A 
ATOM     12  H   UNL     1      -4.886  10.573  16.495  0.00  0.00    +0.000 HD
ENDROOT
BRANCH   1  17
ATOM     13  C   UNL     1       2.266  15.352  18.480  0.00  0.00    +0.000 C 
ATOM     14  C   UNL     1       1.770  14.086  19.084  0.00  0.00    +0.000 A 
ATOM     15  C   UNL     1       0.942  13.173  18.536  0.00  0.00    +0.000 A 
ATOM     16  N   UNL     1       0.705  12.116  19.392  0.00  0.00    +0.000 N 
ATOM     17  C   UNL     1      -0.002  10.936  19.389  0.00  0.00    +0.000 A 
ATOM     18  C   UNL     1       0.260  10.378  20.640  0.00  0.00    +0.000 A 
ATOM     19  C   UNL     1      -0.205   9.101  21.230  0.00  0.00    +0.000 C 
ATOM     20  N   UNL     1       1.117  11.180  21.381  0.00  0.00    +0.000 NA
ATOM     21  C   UNL     1       1.337  12.193  20.595  0.00  0.00    +0.000 A 
ATOM     22  S   UNL     1       2.290  13.635  20.727  0.00  0.00    +0.000 S 
ENDBRANCH   1  17
TORSDOF 1
ENDMDL
