MODEL 1
REMARK VINA RESULT:      -8.2      0.000      0.000
REMARK  Name = 
REMARK  3 active torsions:
REMARK  status: ('A' for Active; 'I' for Inactive)
REMARK    1  A    between atoms: C_1  and  C_2
REMARK    2  A    between atoms: C_5  and  C_6
REMARK    3  A    between atoms: N_15  and  C_16
REMARK                            x       y       z     vdW  Elec       q    Type
REMARK                         _______ _______ _______ _____ _____    ______ ____
ROOT
ATOM      1  C   UNL     1       3.968   5.261  19.159  0.00  0.00    +0.000 A 
ATOM      2  C   UNL     1       3.338   4.290  19.931  0.00  0.00    +0.000 A 
ATOM      3  C   UNL     1       2.232   4.661  20.671  0.00  0.00    +0.000 A 
ATOM      4  N   UNL     1       1.712   5.908  20.673  0.00  0.00    +0.000 NA
ATOM      5  C   UNL     1       2.313   6.858  19.929  0.00  0.00    +0.000 A 
ATOM      6  N   UNL     1       1.800   8.182  19.896  0.00  0.00    +0.000 N 
ATOM      7  C   UNL     1       0.830   8.434  20.974  0.00  0.00    +0.000 C 
ATOM      8  C   UNL     1       0.795   9.892  21.429  0.00  0.00    +0.000 C 
ATOM      9  C   UNL     1       0.940  11.008  20.394  0.00  0.00    +0.000 C 
ATOM     10  N   UNL     1       0.393  10.840  19.048  0.00  0.00    +0.000 NA
ATOM     11  C   UNL     1       1.270   9.981  18.237  0.00  0.00    +0.000 C 
ATOM     12  C   UNL     1       1.267   8.475  18.542  0.00  0.00    +0.000 C 
ATOM     13  C   UNL     1       3.453   6.561  19.181  0.00  0.00    +0.000 A 
ENDROOT
BRANCH   1  18
ATOM     14  C   UNL     1       7.267   4.609  15.574  0.00  0.00    +0.000 C 
ATOM     15  C   UNL     1       6.609   4.653  16.893  0.00  0.00    +0.000 A 
ATOM     16  N   UNL     1       7.261   4.403  18.034  0.00  0.00    +0.000 NA
ATOM     17  O   UNL     1       6.283   4.611  19.009  0.00  0.00    +0.000 OA
ATOM     18  C   UNL     1       5.141   4.968  18.348  0.00  0.00    +0.000 A 
ATOM     19  N   UNL     1       5.289   4.989  17.040  0.00  0.00    +0.000 NA
ENDBRANCH   1  18
BRANCH  10  20
ATOM     20  C   UNL     1      -1.064  10.613  18.919  0.00  0.00    +0.000 C 
ATOM     21  C   UNL     1      -1.424  10.105  17.503  0.00  0.00    +0.000 C 
ATOM     22  C   UNL     1      -2.913  10.150  17.193  0.00  0.00    +0.000 C 
ATOM     23  O   UNL     1      -3.468  11.426  17.479  0.00  0.00    +0.000 OA
ATOM     24  C   UNL     1      -3.325  11.758  18.856  0.00  0.00    +0.000 C 
ATOM     25  C   UNL     1      -1.855  11.902  19.216  0.00  0.00    +0.000 C 
ENDBRANCH  10  20
TORSDOF 2
ENDMDL
MODEL 2
REMARK VINA RESULT:      -7.6      1.262      1.401
REMARK  Name = 
REMARK  3 active torsions:
REMARK  status: ('A' for Active; 'I' for Inactive)
REMARK    1  A    between atoms: C_1  and  C_2
REMARK    2  A    between atoms: C_5  and  C_6
REMARK    3  A    between atoms: N_15  and  C_16
REMARK                            x       y       z     vdW  Elec       q    Type
REMARK                         _______ _______ _______ _____ _____    ______ ____
ROOT
ATOM      1  C   UNL     1       4.150   5.356  17.431  0.00  0.00    +0.000 A 
ATOM      2  C   UNL     1       3.528   4.202  17.897  0.00  0.00    +0.000 A 
ATOM      3  C   UNL     1       2.473   4.339  18.777  0.00  0.00    +0.000 A 
ATOM      4  N   UNL     1       1.994   5.530  19.198  0.00  0.00    +0.000 NA
ATOM      5  C   UNL     1       2.587   6.656  18.755  0.00  0.00    +0.000 A 
ATOM      6  N   UNL     1       2.116   7.932  19.166  0.00  0.00    +0.000 N 
ATOM      7  C   UNL     1       1.210   7.848  20.323  0.00  0.00    +0.000 C 
ATOM      8  C   UNL     1       1.245   9.090  21.211  0.00  0.00    +0.000 C 
ATOM      9  C   UNL     1       1.374  10.472  20.570  0.00  0.00    +0.000 C 
ATOM     10  N   UNL     1       0.755  10.742  19.272  0.00  0.00    +0.000 NA
ATOM     11  C   UNL     1       1.562  10.167  18.185  0.00  0.00    +0.000 C 
ATOM     12  C   UNL     1       1.526   8.642  18.004  0.00  0.00    +0.000 C 
ATOM     13  C   UNL     1       3.678   6.592  17.887  0.00  0.00    +0.000 A 
ENDROOT
BRANCH   1  18
ATOM     14  C   UNL     1       7.185   4.727  13.616  0.00  0.00    +0.000 C 
ATOM     15  C   UNL     1       6.637   5.086  14.937  0.00  0.00    +0.000 A 
ATOM     16  N   UNL     1       7.335   5.781  15.844  0.00  0.00    +0.000 NA
ATOM     17  O   UNL     1       6.426   5.934  16.892  0.00  0.00    +0.000 OA
ATOM     18  C   UNL     1       5.270   5.315  16.503  0.00  0.00    +0.000 A 
ATOM     19  N   UNL     1       5.359   4.762  15.312  0.00  0.00    +0.000 NA
ENDBRANCH   1  18
BRANCH  10  20
ATOM     20  C   UNL     1      -0.713  10.589  19.163  0.00  0.00    +0.000 C 
ATOM     21  C   UNL     1      -1.124  10.189  17.726  0.00  0.00    +0.000 C 
ATOM     22  C   UNL     1      -2.616  10.320  17.455  0.00  0.00    +0.000 C 
ATOM     23  O   UNL     1      -3.106  11.599  17.834  0.00  0.00    +0.000 OA
ATOM     24  C   UNL     1      -2.921  11.834  19.226  0.00  0.00    +0.000 C 
ATOM     25  C   UNL     1      -1.438  11.889  19.559  0.00  0.00    +0.000 C 
ENDBRANCH  10  20
TORSDOF 2
ENDMDL
MODEL 3
REMARK VINA RESULT:      -7.3      1.560      1.725
REMARK  Name = 
REMARK  3 active torsions:
REMARK  status: ('A' for Active; 'I' for Inactive)
REMARK    1  A    between atoms: C_1  and  C_2
REMARK    2  A    between atoms: C_5  and  C_6
REMARK    3  A    between atoms: N_15  and  C_16
REMARK                            x       y       z     vdW  Elec       q    Type
REMARK                         _______ _______ _______ _____ _____    ______ ____
ROOT
ATOM      1  C   UNL     1       3.255   6.099  18.453  0.00  0.00    +0.000 A 
ATOM      2  C   UNL     1       2.822   5.097  19.314  0.00  0.00    +0.000 A 
ATOM      3  C   UNL     1       1.970   5.444  20.344  0.00  0.00    +0.000 A 
ATOM      4  N   UNL     1       1.514   6.699  20.552  0.00  0.00    +0.000 NA
ATOM      5  C   UNL     1       1.926   7.680  19.725  0.00  0.00    +0.000 A 
ATOM      6  N   UNL     1       1.470   9.014  19.902  0.00  0.00    +0.000 N 
ATOM      7  C   UNL     1       0.836   9.219  21.214  0.00  0.00    +0.000 C 
ATOM      8  C   UNL     1       0.977  10.647  21.738  0.00  0.00    +0.000 C 
ATOM      9  C   UNL     1       0.877  11.821  20.763  0.00  0.00    +0.000 C 
ATOM     10  N   UNL     1      -0.018  11.745  19.608  0.00  0.00    +0.000 NA
ATOM     11  C   UNL     1       0.577  10.919  18.546  0.00  0.00    +0.000 C 
ATOM     12  C   UNL     1       0.603   9.398  18.761  0.00  0.00    +0.000 C 
ATOM     13  C   UNL     1       2.810   7.406  18.681  0.00  0.00    +0.000 A 
ENDROOT
BRANCH   1  18
ATOM     14  C   UNL     1       5.978   4.134  14.863  0.00  0.00    +0.000 C 
ATOM     15  C   UNL     1       5.351   5.090  15.794  0.00  0.00    +0.000 A 
ATOM     16  N   UNL     1       5.506   6.415  15.681  0.00  0.00    +0.000 NA
ATOM     17  O   UNL     1       4.709   6.915  16.713  0.00  0.00    +0.000 OA
ATOM     18  C   UNL     1       4.154   5.833  17.339  0.00  0.00    +0.000 A 
ATOM     19  N   UNL     1       4.536   4.686  16.819  0.00  0.00    +0.000 NA
ENDBRANCH   1  18
BRANCH  10  20
ATOM     20  C   UNL     1      -1.463  11.555  19.868  0.00  0.00    +0.000 C 
ATOM     21  C   UNL     1      -2.269  11.557  18.547  0.00  0.00    +0.000 C 
ATOM     22  C   UNL     1      -3.773  11.685  18.745  0.00  0.00    +0.000 C 
ATOM     23  O   UNL     1      -4.098  12.778  19.591  0.00  0.00    +0.000 OA
ATOM     24  C   UNL     1      -3.526  12.621  20.886  0.00  0.00    +0.000 C 
ATOM     25  C   UNL     1      -2.009  12.653  20.801  0.00  0.00    +0.000 C 
ENDBRANCH  10  20
TORSDOF 2
ENDMDL
MODEL 4
REMARK VINA RESULT:      -7.1      0.921      1.006
REMARK  Name = 
REMARK  3 active torsions:
REMARK  status: ('A' for Active; 'I' for Inactive)
REMARK    1  A    between atoms: C_1  and  C_2
REMARK    2  A    between atoms: C_5  and  C_6
REMARK    3  A    between atoms: N_15  and  C_16
REMARK                            x       y       z     vdW  Elec       q    Type
REMARK                         _______ _______ _______ _____ _____    ______ ____
ROOT
ATOM      1  C   UNL     1       3.458   5.361  18.993  0.00  0.00    +0.000 A 
ATOM      2  C   UNL     1       2.906   4.465  19.902  0.00  0.00    +0.000 A 
ATOM      3  C   UNL     1       1.952   4.934  20.783  0.00  0.00    +0.000 A 
ATOM      4  N   UNL     1       1.506   6.209  20.800  0.00  0.00    +0.000 NA
ATOM      5  C   UNL     1       2.033   7.088  19.925  0.00  0.00    +0.000 A 
ATOM      6  N   UNL     1       1.593   8.438  19.902  0.00  0.00    +0.000 N 
ATOM      7  C   UNL     1       0.820   8.795  21.103  0.00  0.00    +0.000 C 
ATOM      8  C   UNL     1       0.935  10.270  21.481  0.00  0.00    +0.000 C 
ATOM      9  C   UNL     1       0.975  11.330  20.380  0.00  0.00    +0.000 C 
ATOM     10  N   UNL     1       0.216  11.138  19.145  0.00  0.00    +0.000 NA
ATOM     11  C   UNL     1       0.907  10.193  18.255  0.00  0.00    +0.000 C 
ATOM     12  C   UNL     1       0.871   8.705  18.634  0.00  0.00    +0.000 C 
ATOM     13  C   UNL     1       3.024   6.690  19.026  0.00  0.00    +0.000 A 
ENDROOT
BRANCH   1  18
ATOM     14  C   UNL     1       7.545   4.677  16.348  0.00  0.00    +0.000 C 
ATOM     15  C   UNL     1       6.155   4.614  16.836  0.00  0.00    +0.000 A 
ATOM     16  N   UNL     1       5.240   3.793  16.307  0.00  0.00    +0.000 NA
ATOM     17  O   UNL     1       4.113   4.024  17.098  0.00  0.00    +0.000 OA
ATOM     18  C   UNL     1       4.472   4.962  18.027  0.00  0.00    +0.000 A 
ATOM     19  N   UNL     1       5.716   5.369  17.892  0.00  0.00    +0.000 NA
ENDBRANCH   1  18
BRANCH  10  20
ATOM     20  C   UNL     1      -1.253  10.996  19.255  0.00  0.00    +0.000 C 
ATOM     21  C   UNL     1      -1.876  10.605  17.893  0.00  0.00    +0.000 C 
ATOM     22  C   UNL     1      -3.391  10.748  17.847  0.00  0.00    +0.000 C 
ATOM     23  O   UNL     1      -3.809  12.029  18.298  0.00  0.00    +0.000 OA
ATOM     24  C   UNL     1      -3.418  12.257  19.648  0.00  0.00    +0.000 C 
ATOM     25  C   UNL     1      -1.902  12.300  19.758  0.00  0.00    +0.000 C 
ENDBRANCH  10  20
TORSDOF 2
ENDMDL
MODEL 5
REMARK VINA RESULT:      -6.6      6.351      8.777
REMARK  Name = 
REMARK  3 active torsions:
REMARK  status: ('A' for Active; 'I' for Inactive)
REMARK    1  A    between atoms: C_1  and  C_2
REMARK    2  A    between atoms: C_5  and  C_6
REMARK    3  A    between atoms: N_15  and  C_16
REMARK                            x       y       z     vdW  Elec       q    Type
REMARK                         _______ _______ _______ _____ _____    ______ ____
ROOT
ATOM      1  C   UNL     1      -2.901  10.135  15.661  0.00  0.00    +0.000 A 
ATOM      2  C   UNL     1      -1.786   9.477  16.172  0.00  0.00    +0.000 A 
ATOM      3  C   UNL     1      -1.427   9.723  17.482  0.00  0.00    +0.000 A 
ATOM      4  N   UNL     1      -2.108  10.550  18.306  0.00  0.00    +0.000 NA
ATOM      5  C   UNL     1      -3.189  11.194  17.823  0.00  0.00    +0.000 A 
ATOM      6  N   UNL     1      -3.939  12.070  18.653  0.00  0.00    +0.000 N 
ATOM      7  C   UNL     1      -3.220  12.424  19.887  0.00  0.00    +0.000 C 
ATOM      8  C   UNL     1      -3.587  13.805  20.427  0.00  0.00    +0.000 C 
ATOM      9  C   UNL     1      -5.036  14.286  20.344  0.00  0.00    +0.000 C 
ATOM     10  N   UNL     1      -6.137  13.333  20.478  0.00  0.00    +0.000 NA
ATOM     11  C   UNL     1      -6.322  12.576  19.231  0.00  0.00    +0.000 C 
ATOM     12  C   UNL     1      -5.284  11.492  18.899  0.00  0.00    +0.000 C 
ATOM     13  C   UNL     1      -3.592  11.016  16.499  0.00  0.00    +0.000 A 
ENDROOT
BRANCH   1  18
ATOM     14  C   UNL     1      -5.449   9.714  11.478  0.00  0.00    +0.000 C 
ATOM     15  C   UNL     1      -4.354   9.736  12.465  0.00  0.00    +0.000 A 
ATOM     16  N   UNL     1      -3.068   9.604  12.120  0.00  0.00    +0.000 NA
ATOM     17  O   UNL     1      -2.398   9.740  13.337  0.00  0.00    +0.000 OA
ATOM     18  C   UNL     1      -3.357   9.942  14.292  0.00  0.00    +0.000 A 
ATOM     19  N   UNL     1      -4.579   9.930  13.803  0.00  0.00    +0.000 NA
ENDBRANCH   1  18
BRANCH  10  20
ATOM     20  C   UNL     1      -6.236  12.568  21.742  0.00  0.00    +0.000 C 
ATOM     21  C   UNL     1      -7.711  12.256  22.089  0.00  0.00    +0.000 C 
ATOM     22  C   UNL     1      -7.915  11.758  23.513  0.00  0.00    +0.000 C 
ATOM     23  O   UNL     1      -7.294  12.614  24.461  0.00  0.00    +0.000 OA
ATOM     24  C   UNL     1      -5.888  12.688  24.251  0.00  0.00    +0.000 C 
ATOM     25  C   UNL     1      -5.587  13.337  22.909  0.00  0.00    +0.000 C 
ENDBRANCH  10  20
TORSDOF 2
ENDMDL
MODEL 6
REMARK VINA RESULT:      -6.4      4.119      6.294
REMARK  Name = 
REMARK  3 active torsions:
REMARK  status: ('A' for Active; 'I' for Inactive)
REMARK    1  A    between atoms: C_1  and  C_2
REMARK    2  A    between atoms: C_5  and  C_6
REMARK    3  A    between atoms: N_15  and  C_16
REMARK                            x       y       z     vdW  Elec       q    Type
REMARK                         _______ _______ _______ _____ _____    ______ ____
ROOT
ATOM      1  C   UNL     1       0.672   9.710  20.993  0.00  0.00    +0.000 A 
ATOM      2  C   UNL     1       0.661   8.956  22.161  0.00  0.00    +0.000 A 
ATOM      3  C   UNL     1       0.041   9.486  23.275  0.00  0.00    +0.000 A 
ATOM      4  N   UNL     1      -0.575  10.688  23.292  0.00  0.00    +0.000 NA
ATOM      5  C   UNL     1      -0.573  11.430  22.166  0.00  0.00    +0.000 A 
ATOM      6  N   UNL     1      -1.212  12.698  22.134  0.00  0.00    +0.000 N 
ATOM      7  C   UNL     1      -1.529  13.199  23.481  0.00  0.00    +0.000 C 
ATOM      8  C   UNL     1      -1.533  14.724  23.575  0.00  0.00    +0.000 C 
ATOM      9  C   UNL     1      -2.089  15.548  22.414  0.00  0.00    +0.000 C 
ATOM     10  N   UNL     1      -3.211  15.044  21.622  0.00  0.00    +0.000 NA
ATOM     11  C   UNL     1      -2.754  14.020  20.670  0.00  0.00    +0.000 C 
ATOM     12  C   UNL     1      -2.391  12.637  21.235  0.00  0.00    +0.000 C 
ATOM     13  C   UNL     1       0.061  10.969  21.012  0.00  0.00    +0.000 A 
ENDROOT
BRANCH   1  18
ATOM     14  C   UNL     1       3.037   7.213  17.481  0.00  0.00    +0.000 C 
ATOM     15  C   UNL     1       2.296   8.257  18.212  0.00  0.00    +0.000 A 
ATOM     16  N   UNL     1       1.818   9.355  17.615  0.00  0.00    +0.000 NA
ATOM     17  O   UNL     1       1.154  10.015  18.651  0.00  0.00    +0.000 OA
ATOM     18  C   UNL     1       1.302   9.238  19.768  0.00  0.00    +0.000 A 
ATOM     19  N   UNL     1       2.014   8.153  19.549  0.00  0.00    +0.000 NA
ENDBRANCH   1  18
BRANCH  10  20
ATOM     20  C   UNL     1      -4.485  14.775  22.327  0.00  0.00    +0.000 C 
ATOM     21  C   UNL     1      -5.621  14.470  21.322  0.00  0.00    +0.000 C 
ATOM     22  C   UNL     1      -7.012  14.496  21.940  0.00  0.00    +0.000 C 
ATOM     23  O   UNL     1      -7.234  15.689  22.679  0.00  0.00    +0.000 OA
ATOM     24  C   UNL     1      -6.306  15.816  23.751  0.00  0.00    +0.000 C 
ATOM     25  C   UNL     1      -4.893  15.968  23.213  0.00  0.00    +0.000 C 
ENDBRANCH  10  20
TORSDOF 2
ENDMDL
MODEL 7
REMARK VINA RESULT:      -6.3      2.373      3.741
REMARK  Name = 
REMARK  3 active torsions:
REMARK  status: ('A' for Active; 'I' for Inactive)
REMARK    1  A    between atoms: C_1  and  C_2
REMARK    2  A    between atoms: C_5  and  C_6
REMARK    3  A    between atoms: N_15  and  C_16
REMARK                            x       y       z     vdW  Elec       q    Type
REMARK                         _______ _______ _______ _____ _____    ______ ____
ROOT
ATOM      1  C   UNL     1       3.626   5.522  18.863  0.00  0.00    +0.000 A 
ATOM      2  C   UNL     1       4.534   5.936  17.894  0.00  0.00    +0.000 A 
ATOM      3  C   UNL     1       4.329   7.161  17.289  0.00  0.00    +0.000 A 
ATOM      4  N   UNL     1       3.310   7.991  17.598  0.00  0.00    +0.000 NA
ATOM      5  C   UNL     1       2.423   7.602  18.535  0.00  0.00    +0.000 A 
ATOM      6  N   UNL     1       1.337   8.444  18.897  0.00  0.00    +0.000 N 
ATOM      7  C   UNL     1       1.129   9.536  17.932  0.00  0.00    +0.000 C 
ATOM      8  C   UNL     1      -0.324   9.996  17.842  0.00  0.00    +0.000 C 
ATOM      9  C   UNL     1      -1.174  10.064  19.111  0.00  0.00    +0.000 C 
ATOM     10  N   UNL     1      -0.561  10.427  20.389  0.00  0.00    +0.000 NA
ATOM     11  C   UNL     1       0.179   9.286  20.951  0.00  0.00    +0.000 C 
ATOM     12  C   UNL     1       1.518   8.916  20.292  0.00  0.00    +0.000 C 
ATOM     13  C   UNL     1       2.551   6.364  19.166  0.00  0.00    +0.000 A 
ENDROOT
BRANCH   1  18
ATOM     14  C   UNL     1       5.110   1.253  20.796  0.00  0.00    +0.000 C 
ATOM     15  C   UNL     1       4.291   2.418  20.413  0.00  0.00    +0.000 A 
ATOM     16  N   UNL     1       3.056   2.620  20.888  0.00  0.00    +0.000 NA
ATOM     17  O   UNL     1       2.693   3.841  20.316  0.00  0.00    +0.000 OA
ATOM     18  C   UNL     1       3.755   4.248  19.555  0.00  0.00    +0.000 A 
ATOM     19  N   UNL     1       4.756   3.393  19.570  0.00  0.00    +0.000 NA
ENDBRANCH   1  18
BRANCH  10  20
ATOM     20  C   UNL     1       0.086  11.754  20.491  0.00  0.00    +0.000 C 
ATOM     21  C   UNL     1      -0.189  12.402  21.868  0.00  0.00    +0.000 C 
ATOM     22  C   UNL     1       0.169  13.880  21.935  0.00  0.00    +0.000 C 
ATOM     23  O   UNL     1      -0.408  14.607  20.859  0.00  0.00    +0.000 OA
ATOM     24  C   UNL     1       0.058  14.129  19.601  0.00  0.00    +0.000 C 
ATOM     25  C   UNL     1      -0.404  12.698  19.375  0.00  0.00    +0.000 C 
ENDBRANCH  10  20
TORSDOF 2
ENDMDL
MODEL 8
REMARK VINA RESULT:      -6.3      2.892      8.640
REMARK  Name = 
REMARK  3 active torsions:
REMARK  status: ('A' for Active; 'I' for Inactive)
REMARK    1  A    between atoms: C_1  and  C_2
REMARK    2  A    between atoms: C_5  and  C_6
REMARK    3  A    between atoms: N_15  and  C_16
REMARK                            x       y       z     vdW  Elec       q    Type
REMARK                         _______ _______ _______ _____ _____    ______ ____
ROOT
ATOM      1  C   UNL     1      -0.958  11.865  20.385  0.00  0.00    +0.000 A 
ATOM      2  C   UNL     1      -1.766  12.059  19.269  0.00  0.00    +0.000 A 
ATOM      3  C   UNL     1      -1.565  11.250  18.169  0.00  0.00    +0.000 A 
ATOM      4  N   UNL     1      -0.643  10.264  18.119  0.00  0.00    +0.000 NA
ATOM      5  C   UNL     1       0.147  10.064  19.192  0.00  0.00    +0.000 A 
ATOM      6  N   UNL     1       1.127   9.037  19.188  0.00  0.00    +0.000 N 
ATOM      7  C   UNL     1       1.383   8.512  17.837  0.00  0.00    +0.000 C 
ATOM      8  C   UNL     1       2.806   7.990  17.648  0.00  0.00    +0.000 C 
ATOM      9  C   UNL     1       3.490   7.239  18.790  0.00  0.00    +0.000 C 
ATOM     10  N   UNL     1       2.707   6.388  19.686  0.00  0.00    +0.000 NA
ATOM     11  C   UNL     1       1.976   7.204  20.667  0.00  0.00    +0.000 C 
ATOM     12  C   UNL     1       0.752   7.987  20.167  0.00  0.00    +0.000 C 
ATOM     13  C   UNL     1       0.020  10.865  20.328  0.00  0.00    +0.000 A 
ENDROOT
BRANCH   1  18
ATOM     14  C   UNL     1      -2.507  14.403  24.299  0.00  0.00    +0.000 C 
ATOM     15  C   UNL     1      -1.653  13.774  23.275  0.00  0.00    +0.000 A 
ATOM     16  N   UNL     1      -0.316  13.769  23.353  0.00  0.00    +0.000 NA
ATOM     17  O   UNL     1       0.063  13.033  22.229  0.00  0.00    +0.000 OA
ATOM     18  C   UNL     1      -1.091  12.668  21.591  0.00  0.00    +0.000 A 
ATOM     19  N   UNL     1      -2.173  13.119  22.190  0.00  0.00    +0.000 NA
ENDBRANCH   1  18
BRANCH  10  20
ATOM     20  C   UNL     1       1.973   5.250  19.088  0.00  0.00    +0.000 C 
ATOM     21  C   UNL     1       1.384   4.331  20.184  0.00  0.00    +0.000 C 
ATOM     22  C   UNL     1       0.894   2.988  19.663  0.00  0.00    +0.000 C 
ATOM     23  O   UNL     1       1.882   2.342  18.873  0.00  0.00    +0.000 OA
ATOM     24  C   UNL     1       2.229   3.121  17.734  0.00  0.00    +0.000 C 
ATOM     25  C   UNL     1       2.887   4.422  18.164  0.00  0.00    +0.000 C 
ENDBRANCH  10  20
TORSDOF 2
ENDMDL
MODEL 9
REMARK VINA RESULT:      -6.3      3.185      8.839
REMARK  Name = 
REMARK  3 active torsions:
REMARK  status: ('A' for Active; 'I' for Inactive)
REMARK    1  A    between atoms: C_1  and  C_2
REMARK    2  A    between atoms: C_5  and  C_6
REMARK    3  A    between atoms: N_15  and  C_16
REMARK                            x       y       z     vdW  Elec       q    Type
REMARK                         _______ _______ _______ _____ _____    ______ ____
ROOT
ATOM      1  C   UNL     1      -1.316  12.573  20.935  0.00  0.00    +0.000 A 
ATOM      2  C   UNL     1      -2.378  12.653  20.040  0.00  0.00    +0.000 A 
ATOM      3  C   UNL     1      -2.399  11.775  18.973  0.00  0.00    +0.000 A 
ATOM      4  N   UNL     1      -1.460  10.829  18.760  0.00  0.00    +0.000 NA
ATOM      5  C   UNL     1      -0.426  10.740  19.620  0.00  0.00    +0.000 A 
ATOM      6  N   UNL     1       0.584   9.758  19.439  0.00  0.00    +0.000 N 
ATOM      7  C   UNL     1       0.539   9.149  18.099  0.00  0.00    +0.000 C 
ATOM      8  C   UNL     1       1.904   8.676  17.603  0.00  0.00    +0.000 C 
ATOM      9  C   UNL     1       2.884   8.038  18.587  0.00  0.00    +0.000 C 
ATOM     10  N   UNL     1       2.390   7.221  19.695  0.00  0.00    +0.000 NA
ATOM     11  C   UNL     1       1.868   8.074  20.774  0.00  0.00    +0.000 C 
ATOM     12  C   UNL     1       0.516   8.766  20.540  0.00  0.00    +0.000 C 
ATOM     13  C   UNL     1      -0.324  11.615  20.702  0.00  0.00    +0.000 A 
ENDROOT
BRANCH   1  18
ATOM     14  C   UNL     1      -1.915  15.080  25.121  0.00  0.00    +0.000 C 
ATOM     15  C   UNL     1      -1.373  14.574  23.846  0.00  0.00    +0.000 A 
ATOM     16  N   UNL     1      -0.166  14.923  23.385  0.00  0.00    +0.000 NA
ATOM     17  O   UNL     1      -0.050  14.180  22.209  0.00  0.00    +0.000 OA
ATOM     18  C   UNL     1      -1.204  13.455  22.088  0.00  0.00    +0.000 A 
ATOM     19  N   UNL     1      -2.057  13.680  23.065  0.00  0.00    +0.000 NA
ENDBRANCH   1  18
BRANCH  10  20
ATOM     20  C   UNL     1       1.601   6.013  19.362  0.00  0.00    +0.000 C 
ATOM     21  C   UNL     1       1.502   5.062  20.578  0.00  0.00    +0.000 C 
ATOM     22  C   UNL     1       0.986   3.672  20.231  0.00  0.00    +0.000 C 
ATOM     23  O   UNL     1       1.704   3.105  19.144  0.00  0.00    +0.000 OA
ATOM     24  C   UNL     1       1.575   3.895  17.967  0.00  0.00    +0.000 C 
ATOM     25  C   UNL     1       2.221   5.257  18.171  0.00  0.00    +0.000 C 
ENDBRANCH  10  20
TORSDOF 2
ENDMDL
