MODEL 1
REMARK VINA RESULT:      -7.0      0.000      0.000
REMARK  Name = 
REMARK  12 active torsions:
REMARK  status: ('A' for Active; 'I' for Inactive)
REMARK    1  A    between atoms: C_1  and  C_2
REMARK    2  A    between atoms: C_2  and  O_3
REMARK    3  A    between atoms: O_3  and  C_4
REMARK    4  A    between atoms: C_7  and  C_8
REMARK    5  A    between atoms: C_9  and  C_10
REMARK    6  A    between atoms: C_10  and  C_12
REMARK    7  A    between atoms: C_16  and  O_17
REMARK    8  A    between atoms: O_17  and  C_18
REMARK    9  A    between atoms: C_20  and  O_21
REMARK   10  A    between atoms: C_27  and  C_28
REMARK   11  A    between atoms: C_32  and  O_33
REMARK   12  A    between atoms: O_33  and  C_34
REMARK                            x       y       z     vdW  Elec       q    Type
REMARK                         _______ _______ _______ _____ _____    ______ ____
ROOT
ATOM      1  C   UNL     1      -1.093  13.788  20.537  0.00  0.00    +0.000 C 
ATOM      2  C   UNL     1      -1.293  15.235  20.853  0.00  0.00    +0.000 C 
ATOM      3  C   UNL     1      -1.260  15.447  22.179  0.00  0.00    +0.000 C 
ATOM      4  C   UNL     1      -0.974  14.150  22.851  0.00  0.00    +0.000 C 
ATOM      5  O   UNL     1      -0.859  14.035  24.054  0.00  0.00    +0.000 OA
ATOM      6  N   UNL     1      -0.815  13.213  21.833  0.00  0.00    +0.000 N 
ATOM      7  C   UNL     1      -0.388  11.910  22.073  0.00  0.00    +0.000 A 
ATOM      8  C   UNL     1       0.120  11.009  21.096  0.00  0.00    +0.000 A 
ATOM      9  C   UNL     1       0.387   9.849  21.778  0.00  0.00    +0.000 A 
ATOM     10  C   UNL     1       0.928   8.533  21.399  0.00  0.00    +0.000 C 
ATOM     11  O   UNL     1       0.073  10.029  23.084  0.00  0.00    +0.000 OA
ATOM     12  N   UNL     1      -0.385  11.316  23.273  0.00  0.00    +0.000 NA
ENDROOT
BRANCH   1  16
ATOM     13  C   UNL     1      -4.462  11.714  18.704  0.00  0.00    +0.000 A 
ATOM     14  C   UNL     1      -4.647  12.555  19.816  0.00  0.00    +0.000 A 
ATOM     15  C   UNL     1      -3.586  13.249  20.399  0.00  0.00    +0.000 A 
ATOM     16  C   UNL     1      -2.293  13.119  19.890  0.00  0.00    +0.000 A 
ATOM     17  C   UNL     1      -2.108  12.260  18.797  0.00  0.00    +0.000 A 
ATOM     18  C   UNL     1      -3.161  11.539  18.214  0.00  0.00    +0.000 A 
BRANCH  18  19
ATOM     19  O   UNL     1      -2.695  10.739  17.206  0.00  0.00    +0.000 OA
ATOM     20  C   UNL     1      -1.493  10.014  17.383  0.00  0.00    +0.000 C 
ENDBRANCH  18  19
BRANCH  13  21
ATOM     21  O   UNL     1      -5.511  11.064  18.101  0.00  0.00    +0.000 OA
BRANCH  21  23
ATOM     22  C   UNL     1      -6.959   9.579  19.331  0.00  0.00    +0.000 C 
ATOM     23  C   UNL     1      -6.720  11.001  18.867  0.00  0.00    +0.000 C 
ENDBRANCH  21  23
ENDBRANCH  13  21
ENDBRANCH   1  16
BRANCH   2  24
ATOM     24  C   UNL     1      -1.567  16.372  19.937  0.00  0.00    +0.000 C 
ATOM     25  O   UNL     1      -2.697  16.861  19.935  0.00  0.00    +0.000 OA
BRANCH  24  26
ATOM     26  C   UNL     1      -0.567  16.923  18.986  0.00  0.00    +0.000 A 
ATOM     27  C   UNL     1      -1.052  17.715  17.933  0.00  0.00    +0.000 A 
ATOM     28  C   UNL     1      -0.181  18.261  16.990  0.00  0.00    +0.000 A 
ATOM     29  C   UNL     1       1.184  18.007  17.085  0.00  0.00    +0.000 A 
ATOM     30  C   UNL     1       1.689  17.258  18.148  0.00  0.00    +0.000 A 
ATOM     31  C   UNL     1       0.816  16.743  19.110  0.00  0.00    +0.000 A 
BRANCH  30  32
ATOM     32  O   UNL     1       3.045  17.079  18.132  0.00  0.00    +0.000 OA
ATOM     33  C   UNL     1       3.526  15.886  17.526  0.00  0.00    +0.000 C 
ENDBRANCH  30  32
ENDBRANCH  24  26
ENDBRANCH   2  24
BRANCH   3  34
ATOM     34  O   UNL     1      -1.442  16.620  22.862  0.00  0.00    +0.000 OA
ATOM     35  H   UNL     1      -1.962  17.220  22.284  0.00  0.00    +0.000 HD
ENDBRANCH   3  34
TORSDOF 8
ENDMDL
MODEL 2
REMARK VINA RESULT:      -7.0      2.510      6.278
REMARK  Name = 
REMARK  12 active torsions:
REMARK  status: ('A' for Active; 'I' for Inactive)
REMARK    1  A    between atoms: C_1  and  C_2
REMARK    2  A    between atoms: C_2  and  O_3
REMARK    3  A    between atoms: O_3  and  C_4
REMARK    4  A    between atoms: C_7  and  C_8
REMARK    5  A    between atoms: C_9  and  C_10
REMARK    6  A    between atoms: C_10  and  C_12
REMARK    7  A    between atoms: C_16  and  O_17
REMARK    8  A    between atoms: O_17  and  C_18
REMARK    9  A    between atoms: C_20  and  O_21
REMARK   10  A    between atoms: C_27  and  C_28
REMARK   11  A    between atoms: C_32  and  O_33
REMARK   12  A    between atoms: O_33  and  C_34
REMARK                            x       y       z     vdW  Elec       q    Type
REMARK                         _______ _______ _______ _____ _____    ______ ____
ROOT
ATOM      1  C   UNL     1      -2.035  13.352  22.320  0.00  0.00    +0.000 C 
ATOM      2  C   UNL     1      -3.102  13.427  23.365  0.00  0.00    +0.000 C 
ATOM      3  C   UNL     1      -2.699  14.167  24.410  0.00  0.00    +0.000 C 
ATOM      4  C   UNL     1      -1.339  14.695  24.112  0.00  0.00    +0.000 C 
ATOM      5  O   UNL     1      -0.727  15.423  24.867  0.00  0.00    +0.000 OA
ATOM      6  N   UNL     1      -1.020  14.242  22.835  0.00  0.00    +0.000 N 
ATOM      7  C   UNL     1       0.121  14.660  22.154  0.00  0.00    +0.000 A 
ATOM      8  C   UNL     1       0.349  14.526  20.756  0.00  0.00    +0.000 A 
ATOM      9  C   UNL     1       1.599  15.050  20.542  0.00  0.00    +0.000 A 
ATOM     10  C   UNL     1       2.447  15.237  19.353  0.00  0.00    +0.000 C 
ATOM     11  O   UNL     1       2.098  15.484  21.724  0.00  0.00    +0.000 OA
ATOM     12  N   UNL     1       1.171  15.265  22.722  0.00  0.00    +0.000 NA
ENDROOT
BRANCH   1  16
ATOM     13  C   UNL     1      -0.298   9.418  21.597  0.00  0.00    +0.000 A 
ATOM     14  C   UNL     1      -0.549   9.870  22.905  0.00  0.00    +0.000 A 
ATOM     15  C   UNL     1      -1.130  11.114  23.156  0.00  0.00    +0.000 A 
ATOM     16  C   UNL     1      -1.476  11.957  22.099  0.00  0.00    +0.000 A 
ATOM     17  C   UNL     1      -1.201  11.514  20.797  0.00  0.00    +0.000 A 
ATOM     18  C   UNL     1      -0.598  10.276  20.530  0.00  0.00    +0.000 A 
BRANCH  18  19
ATOM     19  O   UNL     1      -0.395  10.120  19.186  0.00  0.00    +0.000 OA
ATOM     20  C   UNL     1      -1.437  10.421  18.278  0.00  0.00    +0.000 C 
ENDBRANCH  18  19
BRANCH  13  21
ATOM     21  O   UNL     1       0.233   8.177  21.346  0.00  0.00    +0.000 OA
BRANCH  21  23
ATOM     22  C   UNL     1       1.994   7.313  19.944  0.00  0.00    +0.000 C 
ATOM     23  C   UNL     1       1.654   8.137  21.169  0.00  0.00    +0.000 C 
ENDBRANCH  21  23
ENDBRANCH  13  21
ENDBRANCH   1  16
BRANCH   2  24
ATOM     24  C   UNL     1      -4.434  12.772  23.401  0.00  0.00    +0.000 C 
ATOM     25  O   UNL     1      -4.702  12.049  24.361  0.00  0.00    +0.000 OA
BRANCH  24  26
ATOM     26  C   UNL     1      -5.445  12.901  22.320  0.00  0.00    +0.000 A 
ATOM     27  C   UNL     1      -6.674  13.491  22.659  0.00  0.00    +0.000 A 
ATOM     28  C   UNL     1      -7.681  13.639  21.705  0.00  0.00    +0.000 A 
ATOM     29  C   UNL     1      -7.474  13.185  20.407  0.00  0.00    +0.000 A 
ATOM     30  C   UNL     1      -6.245  12.635  20.041  0.00  0.00    +0.000 A 
ATOM     31  C   UNL     1      -5.226  12.521  20.990  0.00  0.00    +0.000 A 
BRANCH  30  32
ATOM     32  O   UNL     1      -6.162  12.228  18.738  0.00  0.00    +0.000 OA
ATOM     33  C   UNL     1      -6.666  10.932  18.440  0.00  0.00    +0.000 C 
ENDBRANCH  30  32
ENDBRANCH  24  26
ENDBRANCH   2  24
BRANCH   3  34
ATOM     34  O   UNL     1      -3.368  14.438  25.574  0.00  0.00    +0.000 OA
ATOM     35  H   UNL     1      -3.919  13.653  25.786  0.00  0.00    +0.000 HD
ENDBRANCH   3  34
TORSDOF 8
ENDMDL
MODEL 3
REMARK VINA RESULT:      -6.9      1.781      7.191
REMARK  Name = 
REMARK  12 active torsions:
REMARK  status: ('A' for Active; 'I' for Inactive)
REMARK    1  A    between atoms: C_1  and  C_2
REMARK    2  A    between atoms: C_2  and  O_3
REMARK    3  A    between atoms: O_3  and  C_4
REMARK    4  A    between atoms: C_7  and  C_8
REMARK    5  A    between atoms: C_9  and  C_10
REMARK    6  A    between atoms: C_10  and  C_12
REMARK    7  A    between atoms: C_16  and  O_17
REMARK    8  A    between atoms: O_17  and  C_18
REMARK    9  A    between atoms: C_20  and  O_21
REMARK   10  A    between atoms: C_27  and  C_28
REMARK   11  A    between atoms: C_32  and  O_33
REMARK   12  A    between atoms: O_33  and  C_34
REMARK                            x       y       z     vdW  Elec       q    Type
REMARK                         _______ _______ _______ _____ _____    ______ ____
ROOT
ATOM      1  C   UNL     1      -0.767  12.646  20.219  0.00  0.00    +0.000 C 
ATOM      2  C   UNL     1      -0.736  11.187  19.894  0.00  0.00    +0.000 C 
ATOM      3  C   UNL     1      -0.573  10.451  21.004  0.00  0.00    +0.000 C 
ATOM      4  C   UNL     1      -0.542  11.370  22.174  0.00  0.00    +0.000 C 
ATOM      5  O   UNL     1      -0.432  10.986  23.321  0.00  0.00    +0.000 OA
ATOM      6  N   UNL     1      -0.730  12.652  21.664  0.00  0.00    +0.000 N 
ATOM      7  C   UNL     1      -0.909  13.766  22.481  0.00  0.00    +0.000 A 
ATOM      8  C   UNL     1      -1.435  15.022  22.068  0.00  0.00    +0.000 A 
ATOM      9  C   UNL     1      -1.404  15.812  23.189  0.00  0.00    +0.000 A 
ATOM     10  C   UNL     1      -1.797  17.201  23.481  0.00  0.00    +0.000 C 
ATOM     11  O   UNL     1      -0.902  15.089  24.219  0.00  0.00    +0.000 OA
ATOM     12  N   UNL     1      -0.618  13.810  23.786  0.00  0.00    +0.000 NA
ENDROOT
BRANCH   1  16
ATOM     13  C   UNL     1       2.517  15.056  18.664  0.00  0.00    +0.000 A 
ATOM     14  C   UNL     1       2.754  13.799  19.248  0.00  0.00    +0.000 A 
ATOM     15  C   UNL     1       1.714  13.000  19.726  0.00  0.00    +0.000 A 
ATOM     16  C   UNL     1       0.392  13.440  19.642  0.00  0.00    +0.000 A 
ATOM     17  C   UNL     1       0.162  14.704  19.082  0.00  0.00    +0.000 A 
ATOM     18  C   UNL     1       1.199  15.527  18.616  0.00  0.00    +0.000 A 
BRANCH  18  19
ATOM     19  O   UNL     1       0.702  16.722  18.174  0.00  0.00    +0.000 OA
ATOM     20  C   UNL     1      -0.654  17.052  18.412  0.00  0.00    +0.000 C 
ENDBRANCH  18  19
BRANCH  13  21
ATOM     21  O   UNL     1       3.535  15.824  18.152  0.00  0.00    +0.000 OA
BRANCH  21  23
ATOM     22  C   UNL     1       5.889  15.757  18.671  0.00  0.00    +0.000 C 
ATOM     23  C   UNL     1       4.757  15.128  17.883  0.00  0.00    +0.000 C 
ENDBRANCH  21  23
ENDBRANCH  13  21
ENDBRANCH   1  16
BRANCH   2  24
ATOM     24  C   UNL     1      -0.796  10.515  18.571  0.00  0.00    +0.000 C 
ATOM     25  O   UNL     1       0.188   9.878  18.195  0.00  0.00    +0.000 OA
BRANCH  24  26
ATOM     26  C   UNL     1      -1.961  10.607  17.653  0.00  0.00    +0.000 A 
ATOM     27  C   UNL     1      -1.933   9.805  16.500  0.00  0.00    +0.000 A 
ATOM     28  C   UNL     1      -2.982   9.841  15.580  0.00  0.00    +0.000 A 
ATOM     29  C   UNL     1      -4.062  10.689  15.800  0.00  0.00    +0.000 A 
ATOM     30  C   UNL     1      -4.128  11.461  16.960  0.00  0.00    +0.000 A 
ATOM     31  C   UNL     1      -3.092  11.396  17.896  0.00  0.00    +0.000 A 
BRANCH  30  32
ATOM     32  O   UNL     1      -5.238  12.252  17.062  0.00  0.00    +0.000 OA
ATOM     33  C   UNL     1      -6.326  11.735  17.818  0.00  0.00    +0.000 C 
ENDBRANCH  30  32
ENDBRANCH  24  26
ENDBRANCH   2  24
BRANCH   3  34
ATOM     34  O   UNL     1      -0.456   9.090  21.118  0.00  0.00    +0.000 OA
ATOM     35  H   UNL     1      -0.052   8.902  21.993  0.00  0.00    +0.000 HD
ENDBRANCH   3  34
TORSDOF 8
ENDMDL
MODEL 4
REMARK VINA RESULT:      -6.9      3.009      6.147
REMARK  Name = 
REMARK  12 active torsions:
REMARK  status: ('A' for Active; 'I' for Inactive)
REMARK    1  A    between atoms: C_1  and  C_2
REMARK    2  A    between atoms: C_2  and  O_3
REMARK    3  A    between atoms: O_3  and  C_4
REMARK    4  A    between atoms: C_7  and  C_8
REMARK    5  A    between atoms: C_9  and  C_10
REMARK    6  A    between atoms: C_10  and  C_12
REMARK    7  A    between atoms: C_16  and  O_17
REMARK    8  A    between atoms: O_17  and  C_18
REMARK    9  A    between atoms: C_20  and  O_21
REMARK   10  A    between atoms: C_27  and  C_28
REMARK   11  A    between atoms: C_32  and  O_33
REMARK   12  A    between atoms: O_33  and  C_34
REMARK                            x       y       z     vdW  Elec       q    Type
REMARK                         _______ _______ _______ _____ _____    ______ ____
ROOT
ATOM      1  C   UNL     1      -2.692  13.365  20.500  0.00  0.00    +0.000 C 
ATOM      2  C   UNL     1      -4.087  12.835  20.428  0.00  0.00    +0.000 C 
ATOM      3  C   UNL     1      -4.661  12.826  21.641  0.00  0.00    +0.000 C 
ATOM      4  C   UNL     1      -3.701  13.411  22.616  0.00  0.00    +0.000 C 
ATOM      5  O   UNL     1      -3.955  13.558  23.794  0.00  0.00    +0.000 OA
ATOM      6  N   UNL     1      -2.578  13.779  21.880  0.00  0.00    +0.000 N 
ATOM      7  C   UNL     1      -1.522  14.500  22.431  0.00  0.00    +0.000 A 
ATOM      8  C   UNL     1      -0.522  15.199  21.699  0.00  0.00    +0.000 A 
ATOM      9  C   UNL     1       0.312  15.734  22.648  0.00  0.00    +0.000 A 
ATOM     10  C   UNL     1       1.527  16.565  22.601  0.00  0.00    +0.000 C 
ATOM     11  O   UNL     1      -0.150  15.395  23.876  0.00  0.00    +0.000 OA
ATOM     12  N   UNL     1      -1.303  14.650  23.743  0.00  0.00    +0.000 NA
ENDROOT
BRANCH   1  16
ATOM     13  C   UNL     1       0.273  10.328  19.502  0.00  0.00    +0.000 A 
ATOM     14  C   UNL     1      -0.035  11.363  18.602  0.00  0.00    +0.000 A 
ATOM     15  C   UNL     1      -0.960  12.360  18.913  0.00  0.00    +0.000 A 
ATOM     16  C   UNL     1      -1.619  12.351  20.144  0.00  0.00    +0.000 A 
ATOM     17  C   UNL     1      -1.328  11.304  21.029  0.00  0.00    +0.000 A 
ATOM     18  C   UNL     1      -0.416  10.282  20.721  0.00  0.00    +0.000 A 
BRANCH  18  19
ATOM     19  O   UNL     1      -0.365   9.363  21.733  0.00  0.00    +0.000 OA
ATOM     20  C   UNL     1      -0.434   9.795  23.079  0.00  0.00    +0.000 C 
ENDBRANCH  18  19
BRANCH  13  21
ATOM     21  O   UNL     1       1.215   9.371  19.215  0.00  0.00    +0.000 OA
BRANCH  21  23
ATOM     22  C   UNL     1       2.687   8.234  17.680  0.00  0.00    +0.000 C 
ATOM     23  C   UNL     1       1.724   9.388  17.877  0.00  0.00    +0.000 C 
ENDBRANCH  21  23
ENDBRANCH  13  21
ENDBRANCH   1  16
BRANCH   2  24
ATOM     24  C   UNL     1      -4.832  12.297  19.261  0.00  0.00    +0.000 C 
ATOM     25  O   UNL     1      -6.033  12.554  19.165  0.00  0.00    +0.000 OA
BRANCH  24  26
ATOM     26  C   UNL     1      -4.222  11.424  18.224  0.00  0.00    +0.000 A 
ATOM     27  C   UNL     1      -3.693  10.195  18.651  0.00  0.00    +0.000 A 
ATOM     28  C   UNL     1      -3.092   9.323  17.743  0.00  0.00    +0.000 A 
ATOM     29  C   UNL     1      -3.002   9.679  16.402  0.00  0.00    +0.000 A 
ATOM     30  C   UNL     1      -3.560  10.876  15.951  0.00  0.00    +0.000 A 
ATOM     31  C   UNL     1      -4.192  11.731  16.858  0.00  0.00    +0.000 A 
BRANCH  30  32
ATOM     32  O   UNL     1      -3.409  11.113  14.613  0.00  0.00    +0.000 OA
ATOM     33  C   UNL     1      -3.194   9.979  13.783  0.00  0.00    +0.000 C 
ENDBRANCH  30  32
ENDBRANCH  24  26
ENDBRANCH   2  24
BRANCH   3  34
ATOM     34  O   UNL     1      -5.908  12.379  21.994  0.00  0.00    +0.000 OA
ATOM     35  H   UNL     1      -6.481  13.167  22.112  0.00  0.00    +0.000 HD
ENDBRANCH   3  34
TORSDOF 8
ENDMDL
MODEL 5
REMARK VINA RESULT:      -6.8      3.065      6.336
REMARK  Name = 
REMARK  12 active torsions:
REMARK  status: ('A' for Active; 'I' for Inactive)
REMARK    1  A    between atoms: C_1  and  C_2
REMARK    2  A    between atoms: C_2  and  O_3
REMARK    3  A    between atoms: O_3  and  C_4
REMARK    4  A    between atoms: C_7  and  C_8
REMARK    5  A    between atoms: C_9  and  C_10
REMARK    6  A    between atoms: C_10  and  C_12
REMARK    7  A    between atoms: C_16  and  O_17
REMARK    8  A    between atoms: O_17  and  C_18
REMARK    9  A    between atoms: C_20  and  O_21
REMARK   10  A    between atoms: C_27  and  C_28
REMARK   11  A    between atoms: C_32  and  O_33
REMARK   12  A    between atoms: O_33  and  C_34
REMARK                            x       y       z     vdW  Elec       q    Type
REMARK                         _______ _______ _______ _____ _____    ______ ____
ROOT
ATOM      1  C   UNL     1      -3.638  13.610  20.580  0.00  0.00    +0.000 C 
ATOM      2  C   UNL     1      -4.721  12.727  20.049  0.00  0.00    +0.000 C 
ATOM      3  C   UNL     1      -5.470  12.232  21.047  0.00  0.00    +0.000 C 
ATOM      4  C   UNL     1      -4.975  12.802  22.329  0.00  0.00    +0.000 C 
ATOM      5  O   UNL     1      -5.478  12.555  23.406  0.00  0.00    +0.000 OA
ATOM      6  N   UNL     1      -3.935  13.664  21.993  0.00  0.00    +0.000 N 
ATOM      7  C   UNL     1      -3.320  14.498  22.925  0.00  0.00    +0.000 A 
ATOM      8  C   UNL     1      -2.509  15.627  22.622  0.00  0.00    +0.000 A 
ATOM      9  C   UNL     1      -2.107  16.119  23.837  0.00  0.00    +0.000 A 
ATOM     10  C   UNL     1      -1.273  17.256  24.263  0.00  0.00    +0.000 C 
ATOM     11  O   UNL     1      -2.641  15.351  24.817  0.00  0.00    +0.000 OA
ATOM     12  N   UNL     1      -3.415  14.359  24.253  0.00  0.00    +0.000 NA
ENDROOT
BRANCH   1  16
ATOM     13  C   UNL     1       0.333  11.956  19.868  0.00  0.00    +0.000 A 
ATOM     14  C   UNL     1      -0.180  12.984  19.057  0.00  0.00    +0.000 A 
ATOM     15  C   UNL     1      -1.437  13.546  19.286  0.00  0.00    +0.000 A 
ATOM     16  C   UNL     1      -2.232  13.089  20.338  0.00  0.00    +0.000 A 
ATOM     17  C   UNL     1      -1.728  12.047  21.129  0.00  0.00    +0.000 A 
ATOM     18  C   UNL     1      -0.476  11.458  20.898  0.00  0.00    +0.000 A 
BRANCH  18  19
ATOM     19  O   UNL     1      -0.258  10.433  21.777  0.00  0.00    +0.000 OA
ATOM     20  C   UNL     1      -0.291   9.094  21.319  0.00  0.00    +0.000 C 
ENDBRANCH  18  19
BRANCH  13  21
ATOM     21  O   UNL     1       1.587  11.432  19.672  0.00  0.00    +0.000 OA
BRANCH  21  23
ATOM     22  C   UNL     1       1.441   9.633  18.073  0.00  0.00    +0.000 C 
ATOM     23  C   UNL     1       1.895  11.057  18.324  0.00  0.00    +0.000 C 
ENDBRANCH  21  23
ENDBRANCH  13  21
ENDBRANCH   1  16
BRANCH   2  24
ATOM     24  C   UNL     1      -5.000  12.315  18.650  0.00  0.00    +0.000 C 
ATOM     25  O   UNL     1      -6.073  12.648  18.146  0.00  0.00    +0.000 OA
BRANCH  24  26
ATOM     26  C   UNL     1      -4.077  11.481  17.837  0.00  0.00    +0.000 A 
ATOM     27  C   UNL     1      -3.244  10.586  18.528  0.00  0.00    +0.000 A 
ATOM     28  C   UNL     1      -2.340   9.775  17.840  0.00  0.00    +0.000 A 
ATOM     29  C   UNL     1      -2.252   9.863  16.455  0.00  0.00    +0.000 A 
ATOM     30  C   UNL     1      -3.101  10.714  15.747  0.00  0.00    +0.000 A 
ATOM     31  C   UNL     1      -4.030  11.498  16.437  0.00  0.00    +0.000 A 
BRANCH  30  32
ATOM     32  O   UNL     1      -2.921  10.710  14.392  0.00  0.00    +0.000 OA
ATOM     33  C   UNL     1      -3.852   9.959  13.624  0.00  0.00    +0.000 C 
ENDBRANCH  30  32
ENDBRANCH  24  26
ENDBRANCH   2  24
BRANCH   3  34
ATOM     34  O   UNL     1      -6.524  11.360  20.973  0.00  0.00    +0.000 OA
ATOM     35  H   UNL     1      -6.153  10.461  20.837  0.00  0.00    +0.000 HD
ENDBRANCH   3  34
TORSDOF 8
ENDMDL
MODEL 6
REMARK VINA RESULT:      -6.6      2.333      5.851
REMARK  Name = 
REMARK  12 active torsions:
REMARK  status: ('A' for Active; 'I' for Inactive)
REMARK    1  A    between atoms: C_1  and  C_2
REMARK    2  A    between atoms: C_2  and  O_3
REMARK    3  A    between atoms: O_3  and  C_4
REMARK    4  A    between atoms: C_7  and  C_8
REMARK    5  A    between atoms: C_9  and  C_10
REMARK    6  A    between atoms: C_10  and  C_12
REMARK    7  A    between atoms: C_16  and  O_17
REMARK    8  A    between atoms: O_17  and  C_18
REMARK    9  A    between atoms: C_20  and  O_21
REMARK   10  A    between atoms: C_27  and  C_28
REMARK   11  A    between atoms: C_32  and  O_33
REMARK   12  A    between atoms: O_33  and  C_34
REMARK                            x       y       z     vdW  Elec       q    Type
REMARK                         _______ _______ _______ _____ _____    ______ ____
ROOT
ATOM      1  C   UNL     1      -2.006  14.003  21.344  0.00  0.00    +0.000 C 
ATOM      2  C   UNL     1      -3.140  13.601  22.232  0.00  0.00    +0.000 C 
ATOM      3  C   UNL     1      -2.838  13.810  23.523  0.00  0.00    +0.000 C 
ATOM      4  C   UNL     1      -1.486  14.429  23.591  0.00  0.00    +0.000 C 
ATOM      5  O   UNL     1      -0.955  14.757  24.633  0.00  0.00    +0.000 OA
ATOM      6  N   UNL     1      -1.065  14.586  22.273  0.00  0.00    +0.000 N 
ATOM      7  C   UNL     1       0.098  15.273  21.933  0.00  0.00    +0.000 A 
ATOM      8  C   UNL     1       0.421  15.768  20.639  0.00  0.00    +0.000 A 
ATOM      9  C   UNL     1       1.658  16.346  20.773  0.00  0.00    +0.000 A 
ATOM     10  C   UNL     1       2.573  17.045  19.854  0.00  0.00    +0.000 C 
ATOM     11  O   UNL     1       2.061  16.221  22.060  0.00  0.00    +0.000 OA
ATOM     12  N   UNL     1       1.082  15.577  22.787  0.00  0.00    +0.000 NA
ENDROOT
BRANCH   1  16
ATOM     13  C   UNL     1      -0.315  10.597  19.211  0.00  0.00    +0.000 A 
ATOM     14  C   UNL     1      -0.730  11.751  18.521  0.00  0.00    +0.000 A 
ATOM     15  C   UNL     1      -1.248  12.862  19.189  0.00  0.00    +0.000 A 
ATOM     16  C   UNL     1      -1.375  12.853  20.579  0.00  0.00    +0.000 A 
ATOM     17  C   UNL     1      -0.984  11.692  21.260  0.00  0.00    +0.000 A 
ATOM     18  C   UNL     1      -0.482  10.559  20.601  0.00  0.00    +0.000 A 
BRANCH  18  19
ATOM     19  O   UNL     1      -0.232   9.555  21.495  0.00  0.00    +0.000 OA
ATOM     20  C   UNL     1       1.089   9.329  21.949  0.00  0.00    +0.000 C 
ENDBRANCH  18  19
BRANCH  13  21
ATOM     21  O   UNL     1       0.236   9.520  18.560  0.00  0.00    +0.000 OA
BRANCH  21  23
ATOM     22  C   UNL     1       2.244   8.379  17.868  0.00  0.00    +0.000 C 
ATOM     23  C   UNL     1       1.559   9.719  18.049  0.00  0.00    +0.000 C 
ENDBRANCH  21  23
ENDBRANCH  13  21
ENDBRANCH   1  16
BRANCH   2  24
ATOM     24  C   UNL     1      -4.443  12.983  21.876  0.00  0.00    +0.000 C 
ATOM     25  O   UNL     1      -4.993  12.260  22.707  0.00  0.00    +0.000 OA
BRANCH  24  26
ATOM     26  C   UNL     1      -5.099  13.148  20.553  0.00  0.00    +0.000 A 
ATOM     27  C   UNL     1      -5.909  14.282  20.376  0.00  0.00    +0.000 A 
ATOM     28  C   UNL     1      -6.570  14.506  19.168  0.00  0.00    +0.000 A 
ATOM     29  C   UNL     1      -6.437  13.589  18.130  0.00  0.00    +0.000 A 
ATOM     30  C   UNL     1      -5.604  12.480  18.272  0.00  0.00    +0.000 A 
ATOM     31  C   UNL     1      -4.915  12.278  19.471  0.00  0.00    +0.000 A 
BRANCH  30  32
ATOM     32  O   UNL     1      -5.555  11.654  17.183  0.00  0.00    +0.000 OA
ATOM     33  C   UNL     1      -4.264  11.254  16.740  0.00  0.00    +0.000 C 
ENDBRANCH  30  32
ENDBRANCH  24  26
ENDBRANCH   2  24
BRANCH   3  34
ATOM     34  O   UNL     1      -3.592  13.535  24.633  0.00  0.00    +0.000 OA
ATOM     35  H   UNL     1      -4.134  12.741  24.431  0.00  0.00    +0.000 HD
ENDBRANCH   3  34
TORSDOF 8
ENDMDL
MODEL 7
REMARK VINA RESULT:      -6.6      3.321      6.576
REMARK  Name = 
REMARK  12 active torsions:
REMARK  status: ('A' for Active; 'I' for Inactive)
REMARK    1  A    between atoms: C_1  and  C_2
REMARK    2  A    between atoms: C_2  and  O_3
REMARK    3  A    between atoms: O_3  and  C_4
REMARK    4  A    between atoms: C_7  and  C_8
REMARK    5  A    between atoms: C_9  and  C_10
REMARK    6  A    between atoms: C_10  and  C_12
REMARK    7  A    between atoms: C_16  and  O_17
REMARK    8  A    between atoms: O_17  and  C_18
REMARK    9  A    between atoms: C_20  and  O_21
REMARK   10  A    between atoms: C_27  and  C_28
REMARK   11  A    between atoms: C_32  and  O_33
REMARK   12  A    between atoms: O_33  and  C_34
REMARK                            x       y       z     vdW  Elec       q    Type
REMARK                         _______ _______ _______ _____ _____    ______ ____
ROOT
ATOM      1  C   UNL     1      -4.457  13.817  21.589  0.00  0.00    +0.000 C 
ATOM      2  C   UNL     1      -5.760  13.085  21.557  0.00  0.00    +0.000 C 
ATOM      3  C   UNL     1      -6.571  13.506  22.540  0.00  0.00    +0.000 C 
ATOM      4  C   UNL     1      -5.885  14.604  23.274  0.00  0.00    +0.000 C 
ATOM      5  O   UNL     1      -6.389  15.200  24.204  0.00  0.00    +0.000 OA
ATOM      6  N   UNL     1      -4.666  14.797  22.630  0.00  0.00    +0.000 N 
ATOM      7  C   UNL     1      -3.809  15.849  22.945  0.00  0.00    +0.000 A 
ATOM      8  C   UNL     1      -2.737  16.318  22.135  0.00  0.00    +0.000 A 
ATOM      9  C   UNL     1      -2.165  17.339  22.850  0.00  0.00    +0.000 A 
ATOM     10  C   UNL     1      -1.037  18.256  22.613  0.00  0.00    +0.000 C 
ATOM     11  O   UNL     1      -2.843  17.491  24.013  0.00  0.00    +0.000 OA
ATOM     12  N   UNL     1      -3.880  16.583  24.061  0.00  0.00    +0.000 NA
ENDROOT
BRANCH   1  16
ATOM     13  C   UNL     1      -0.906  11.436  22.445  0.00  0.00    +0.000 A 
ATOM     14  C   UNL     1      -1.920  11.596  23.406  0.00  0.00    +0.000 A 
ATOM     15  C   UNL     1      -3.077  12.331  23.142  0.00  0.00    +0.000 A 
ATOM     16  C   UNL     1      -3.256  12.941  21.899  0.00  0.00    +0.000 A 
ATOM     17  C   UNL     1      -2.232  12.800  20.952  0.00  0.00    +0.000 A 
ATOM     18  C   UNL     1      -1.054  12.082  21.211  0.00  0.00    +0.000 A 
BRANCH  18  19
ATOM     19  O   UNL     1      -0.204  12.151  20.141  0.00  0.00    +0.000 OA
ATOM     20  C   UNL     1      -0.264  11.162  19.131  0.00  0.00    +0.000 C 
ENDBRANCH  18  19
BRANCH  13  21
ATOM     21  O   UNL     1       0.213  10.676  22.688  0.00  0.00    +0.000 OA
BRANCH  21  23
ATOM     22  C   UNL     1       0.876   8.638  21.585  0.00  0.00    +0.000 C 
ATOM     23  C   UNL     1       0.013   9.258  22.665  0.00  0.00    +0.000 C 
ENDBRANCH  21  23
ENDBRANCH  13  21
ENDBRANCH   1  16
BRANCH   2  24
ATOM     24  C   UNL     1      -6.200  11.982  20.665  0.00  0.00    +0.000 C 
ATOM     25  O   UNL     1      -6.985  11.147  21.114  0.00  0.00    +0.000 OA
BRANCH  24  26
ATOM     26  C   UNL     1      -5.710  11.802  19.274  0.00  0.00    +0.000 A 
ATOM     27  C   UNL     1      -6.260  12.635  18.287  0.00  0.00    +0.000 A 
ATOM     28  C   UNL     1      -5.862  12.523  16.955  0.00  0.00    +0.000 A 
ATOM     29  C   UNL     1      -4.920  11.564  16.596  0.00  0.00    +0.000 A 
ATOM     30  C   UNL     1      -4.331  10.756  17.568  0.00  0.00    +0.000 A 
ATOM     31  C   UNL     1      -4.706  10.897  18.907  0.00  0.00    +0.000 A 
BRANCH  30  32
ATOM     32  O   UNL     1      -3.419   9.855  17.092  0.00  0.00    +0.000 OA
ATOM     33  C   UNL     1      -2.473  10.340  16.147  0.00  0.00    +0.000 C 
ENDBRANCH  30  32
ENDBRANCH  24  26
ENDBRANCH   2  24
BRANCH   3  34
ATOM     34  O   UNL     1      -7.824  13.056  22.866  0.00  0.00    +0.000 OA
ATOM     35  H   UNL     1      -7.913  12.147  22.506  0.00  0.00    +0.000 HD
ENDBRANCH   3  34
TORSDOF 8
ENDMDL
MODEL 8
REMARK VINA RESULT:      -6.6      1.996      6.303
REMARK  Name = 
REMARK  12 active torsions:
REMARK  status: ('A' for Active; 'I' for Inactive)
REMARK    1  A    between atoms: C_1  and  C_2
REMARK    2  A    between atoms: C_2  and  O_3
REMARK    3  A    between atoms: O_3  and  C_4
REMARK    4  A    between atoms: C_7  and  C_8
REMARK    5  A    between atoms: C_9  and  C_10
REMARK    6  A    between atoms: C_10  and  C_12
REMARK    7  A    between atoms: C_16  and  O_17
REMARK    8  A    between atoms: O_17  and  C_18
REMARK    9  A    between atoms: C_20  and  O_21
REMARK   10  A    between atoms: C_27  and  C_28
REMARK   11  A    between atoms: C_32  and  O_33
REMARK   12  A    between atoms: O_33  and  C_34
REMARK                            x       y       z     vdW  Elec       q    Type
REMARK                         _______ _______ _______ _____ _____    ______ ____
ROOT
ATOM      1  C   UNL     1      -2.204  14.103  20.668  0.00  0.00    +0.000 C 
ATOM      2  C   UNL     1      -3.219  13.806  21.725  0.00  0.00    +0.000 C 
ATOM      3  C   UNL     1      -2.974  14.513  22.839  0.00  0.00    +0.000 C 
ATOM      4  C   UNL     1      -1.797  15.389  22.587  0.00  0.00    +0.000 C 
ATOM      5  O   UNL     1      -1.356  16.165  23.410  0.00  0.00    +0.000 OA
ATOM      6  N   UNL     1      -1.421  15.161  21.266  0.00  0.00    +0.000 N 
ATOM      7  C   UNL     1      -0.443  15.915  20.623  0.00  0.00    +0.000 A 
ATOM      8  C   UNL     1      -0.238  15.984  19.216  0.00  0.00    +0.000 A 
ATOM      9  C   UNL     1       0.836  16.820  19.049  0.00  0.00    +0.000 A 
ATOM     10  C   UNL     1       1.571  17.331  17.878  0.00  0.00    +0.000 C 
ATOM     11  O   UNL     1       1.255  17.242  20.266  0.00  0.00    +0.000 OA
ATOM     12  N   UNL     1       0.446  16.701  21.243  0.00  0.00    +0.000 NA
ENDROOT
BRANCH   1  16
ATOM     13  C   UNL     1       0.219  10.610  19.701  0.00  0.00    +0.000 A 
ATOM     14  C   UNL     1      -0.453  11.327  18.695  0.00  0.00    +0.000 A 
ATOM     15  C   UNL     1      -1.211  12.463  18.980  0.00  0.00    +0.000 A 
ATOM     16  C   UNL     1      -1.328  12.921  20.294  0.00  0.00    +0.000 A 
ATOM     17  C   UNL     1      -0.677  12.189  21.297  0.00  0.00    +0.000 A 
ATOM     18  C   UNL     1       0.070  11.032  21.028  0.00  0.00    +0.000 A 
BRANCH  18  19
ATOM     19  O   UNL     1       0.547  10.487  22.189  0.00  0.00    +0.000 OA
ATOM     20  C   UNL     1      -0.350   9.896  23.109  0.00  0.00    +0.000 C 
ENDBRANCH  18  19
BRANCH  13  21
ATOM     21  O   UNL     1       1.000   9.517  19.416  0.00  0.00    +0.000 OA
BRANCH  21  23
ATOM     22  C   UNL     1       2.459   8.350  17.891  0.00  0.00    +0.000 C 
ATOM     23  C   UNL     1       1.299   9.316  18.030  0.00  0.00    +0.000 C 
ENDBRANCH  21  23
ENDBRANCH  13  21
ENDBRANCH   1  16
BRANCH   2  24
ATOM     24  C   UNL     1      -4.347  12.841  21.703  0.00  0.00    +0.000 C 
ATOM     25  O   UNL     1      -4.532  12.136  22.696  0.00  0.00    +0.000 OA
BRANCH  24  26
ATOM     26  C   UNL     1      -5.240  12.642  20.532  0.00  0.00    +0.000 A 
ATOM     27  C   UNL     1      -6.615  12.846  20.731  0.00  0.00    +0.000 A 
ATOM     28  C   UNL     1      -7.521  12.670  19.685  0.00  0.00    +0.000 A 
ATOM     29  C   UNL     1      -7.061  12.273  18.434  0.00  0.00    +0.000 A 
ATOM     30  C   UNL     1      -5.695  12.107  18.205  0.00  0.00    +0.000 A 
ATOM     31  C   UNL     1      -4.787  12.320  19.246  0.00  0.00    +0.000 A 
BRANCH  30  32
ATOM     32  O   UNL     1      -5.367  11.718  16.936  0.00  0.00    +0.000 OA
ATOM     33  C   UNL     1      -4.083  11.135  16.757  0.00  0.00    +0.000 C 
ENDBRANCH  30  32
ENDBRANCH  24  26
ENDBRANCH   2  24
BRANCH   3  34
ATOM     34  O   UNL     1      -3.648  14.490  24.032  0.00  0.00    +0.000 OA
ATOM     35  H   UNL     1      -3.387  13.668  24.501  0.00  0.00    +0.000 HD
ENDBRANCH   3  34
TORSDOF 8
ENDMDL
MODEL 9
REMARK VINA RESULT:      -6.5      2.509      6.331
REMARK  Name = 
REMARK  12 active torsions:
REMARK  status: ('A' for Active; 'I' for Inactive)
REMARK    1  A    between atoms: C_1  and  C_2
REMARK    2  A    between atoms: C_2  and  O_3
REMARK    3  A    between atoms: O_3  and  C_4
REMARK    4  A    between atoms: C_7  and  C_8
REMARK    5  A    between atoms: C_9  and  C_10
REMARK    6  A    between atoms: C_10  and  C_12
REMARK    7  A    between atoms: C_16  and  O_17
REMARK    8  A    between atoms: O_17  and  C_18
REMARK    9  A    between atoms: C_20  and  O_21
REMARK   10  A    between atoms: C_27  and  C_28
REMARK   11  A    between atoms: C_32  and  O_33
REMARK   12  A    between atoms: O_33  and  C_34
REMARK                            x       y       z     vdW  Elec       q    Type
REMARK                         _______ _______ _______ _____ _____    ______ ____
ROOT
ATOM      1  C   UNL     1      -2.289  14.292  22.326  0.00  0.00    +0.000 C 
ATOM      2  C   UNL     1      -3.288  13.900  23.367  0.00  0.00    +0.000 C 
ATOM      3  C   UNL     1      -2.853  14.220  24.595  0.00  0.00    +0.000 C 
ATOM      4  C   UNL     1      -1.542  14.911  24.461  0.00  0.00    +0.000 C 
ATOM      5  O   UNL     1      -0.916  15.342  25.409  0.00  0.00    +0.000 OA
ATOM      6  N   UNL     1      -1.285  14.991  23.096  0.00  0.00    +0.000 N 
ATOM      7  C   UNL     1      -0.211  15.710  22.575  0.00  0.00    +0.000 A 
ATOM      8  C   UNL     1      -0.068  16.124  21.221  0.00  0.00    +0.000 A 
ATOM      9  C   UNL     1       1.140  16.773  21.168  0.00  0.00    +0.000 A 
ATOM     10  C   UNL     1       1.900  17.448  20.103  0.00  0.00    +0.000 C 
ATOM     11  O   UNL     1       1.694  16.764  22.404  0.00  0.00    +0.000 OA
ATOM     12  N   UNL     1       0.844  16.127  23.284  0.00  0.00    +0.000 NA
ENDROOT
BRANCH   1  16
ATOM     13  C   UNL     1      -0.604  10.830  20.281  0.00  0.00    +0.000 A 
ATOM     14  C   UNL     1      -1.520  11.679  19.634  0.00  0.00    +0.000 A 
ATOM     15  C   UNL     1      -2.049  12.808  20.262  0.00  0.00    +0.000 A 
ATOM     16  C   UNL     1      -1.682  13.123  21.571  0.00  0.00    +0.000 A 
ATOM     17  C   UNL     1      -0.788  12.261  22.221  0.00  0.00    +0.000 A 
ATOM     18  C   UNL     1      -0.265  11.111  21.611  0.00  0.00    +0.000 A 
BRANCH  18  19
ATOM     19  O   UNL     1       0.533  10.424  22.484  0.00  0.00    +0.000 OA
ATOM     20  C   UNL     1      -0.037   9.463  23.351  0.00  0.00    +0.000 C 
ENDBRANCH  18  19
BRANCH  13  21
ATOM     21  O   UNL     1      -0.049   9.744  19.649  0.00  0.00    +0.000 OA
BRANCH  21  23
ATOM     22  C   UNL     1       1.585   9.173  17.970  0.00  0.00    +0.000 C 
ATOM     23  C   UNL     1       0.320   9.948  18.280  0.00  0.00    +0.000 C 
ENDBRANCH  21  23
ENDBRANCH  13  21
ENDBRANCH   1  16
BRANCH   2  24
ATOM     24  C   UNL     1      -4.584  13.191  23.209  0.00  0.00    +0.000 C 
ATOM     25  O   UNL     1      -4.898  12.354  24.056  0.00  0.00    +0.000 OA
BRANCH  24  26
ATOM     26  C   UNL     1      -5.503  13.399  22.061  0.00  0.00    +0.000 A 
ATOM     27  C   UNL     1      -6.090  14.668  21.932  0.00  0.00    +0.000 A 
ATOM     28  C   UNL     1      -6.974  14.943  20.887  0.00  0.00    +0.000 A 
ATOM     29  C   UNL     1      -7.289  13.945  19.971  0.00  0.00    +0.000 A 
ATOM     30  C   UNL     1      -6.683  12.691  20.058  0.00  0.00    +0.000 A 
ATOM     31  C   UNL     1      -5.771  12.432  21.084  0.00  0.00    +0.000 A 
BRANCH  30  32
ATOM     32  O   UNL     1      -7.072  11.797  19.099  0.00  0.00    +0.000 OA
ATOM     33  C   UNL     1      -7.053  12.253  17.753  0.00  0.00    +0.000 C 
ENDBRANCH  30  32
ENDBRANCH  24  26
ENDBRANCH   2  24
BRANCH   3  34
ATOM     34  O   UNL     1      -3.458  13.989  25.803  0.00  0.00    +0.000 OA
ATOM     35  H   UNL     1      -4.197  14.629  25.890  0.00  0.00    +0.000 HD
ENDBRANCH   3  34
TORSDOF 8
ENDMDL
