MODEL 1
REMARK VINA RESULT:      -8.2      0.000      0.000
REMARK  Name = 
REMARK  8 active torsions:
REMARK  status: ('A' for Active; 'I' for Inactive)
REMARK    1  A    between atoms: C_1  and  C_2
REMARK    2  A    between atoms: C_2  and  S_3
REMARK    3  A    between atoms: C_2  and  C_10
REMARK    4  A    between atoms: S_3  and  C_4
REMARK    5  A    between atoms: N_8  and  C_9
REMARK    6  A    between atoms: C_14  and  N_15
REMARK    7  A    between atoms: C_16  and  C_18
REMARK    8  A    between atoms: C_22  and  C_23
REMARK                            x       y       z     vdW  Elec       q    Type
REMARK                         _______ _______ _______ _____ _____    ______ ____
ROOT
ATOM      1  C   UNL     1       9.946  12.554  18.578  0.00  0.00    +0.000 A 
ATOM      2  C   UNL     1      10.107  12.911  19.924  0.00  0.00    +0.000 A 
ATOM      3  C   UNL     1       9.923  11.977  20.939  0.00  0.00    +0.000 A 
ATOM      4  C   UNL     1       9.546  10.674  20.630  0.00  0.00    +0.000 A 
ATOM      5  C   UNL     1       9.342  10.282  19.307  0.00  0.00    +0.000 A 
ATOM      6  C   UNL     1       9.567  11.221  18.285  0.00  0.00    +0.000 A 
ENDROOT
BRANCH   5   7
ATOM      7  N   UNL     1       8.918   8.982  18.953  0.00  0.00    +0.000 N 
ATOM      8  C   UNL     1       8.011   8.659  17.957  0.00  0.00    +0.000 C 
ATOM      9  O   UNL     1       7.440   9.438  17.200  0.00  0.00    +0.000 OA
ATOM     10  H   UNL     1       9.349   8.194  19.431  0.00  0.00    +0.000 HD
BRANCH   8  11
ATOM     11  C   UNL     1       7.737   7.208  17.792  0.00  0.00    +0.000 A 
ATOM     12  C   UNL     1       7.918   6.360  18.877  0.00  0.00    +0.000 A 
ATOM     13  N   UNL     1       7.673   5.029  18.806  0.00  0.00    +0.000 NA
ATOM     14  C   UNL     1       7.238   4.580  17.605  0.00  0.00    +0.000 A 
ATOM     15  C   UNL     1       7.051   5.413  16.503  0.00  0.00    +0.000 A 
ATOM     16  N   UNL     1       7.303   6.761  16.578  0.00  0.00    +0.000 NA
BRANCH  15  17
ATOM     17  C   UNL     1       6.547   4.803  15.212  0.00  0.00    +0.000 C 
ATOM     18  F   UNL     1       6.766   3.458  15.126  0.00  0.00    +0.000 F 
ATOM     19  F   UNL     1       5.204   4.963  15.044  0.00  0.00    +0.000 F 
ATOM     20  F   UNL     1       7.133   5.341  14.107  0.00  0.00    +0.000 F 
ENDBRANCH  15  17
ENDBRANCH   8  11
ENDBRANCH   5   7
BRANCH   1  22
ATOM     21  C   UNL     1      11.562  13.535  16.837  0.00  0.00    +0.000 C 
ATOM     22  C   UNL     1      10.147  13.560  17.438  0.00  0.00    +0.000 C 
BRANCH  22  23
ATOM     23  S   UNL     1       9.758  15.250  18.052  0.00  0.00    +0.000 S 
BRANCH  23  24
ATOM     24  C   UNL     1       8.047  15.191  18.263  0.00  0.00    +0.000 A 
ATOM     25  N   UNL     1       7.156  14.655  17.459  0.00  0.00    +0.000 NA
ATOM     26  N   UNL     1       5.909  14.899  17.997  0.00  0.00    +0.000 NA
ATOM     27  C   UNL     1       6.082  15.559  19.120  0.00  0.00    +0.000 A 
ATOM     28  N   UNL     1       7.414  15.746  19.338  0.00  0.00    +0.000 N 
ATOM     29  C   UNL     1       8.006  16.408  20.468  0.00  0.00    +0.000 C 
ENDBRANCH  23  24
ENDBRANCH  22  23
ENDBRANCH   1  22
TORSDOF 6
ENDMDL
MODEL 2
REMARK VINA RESULT:      -8.1      6.583      7.825
REMARK  Name = 
REMARK  8 active torsions:
REMARK  status: ('A' for Active; 'I' for Inactive)
REMARK    1  A    between atoms: C_1  and  C_2
REMARK    2  A    between atoms: C_2  and  S_3
REMARK    3  A    between atoms: C_2  and  C_10
REMARK    4  A    between atoms: S_3  and  C_4
REMARK    5  A    between atoms: N_8  and  C_9
REMARK    6  A    between atoms: C_14  and  N_15
REMARK    7  A    between atoms: C_16  and  C_18
REMARK    8  A    between atoms: C_22  and  C_23
REMARK                            x       y       z     vdW  Elec       q    Type
REMARK                         _______ _______ _______ _____ _____    ______ ____
ROOT
ATOM      1  C   UNL     1       1.761   6.749  20.242  0.00  0.00    +0.000 A 
ATOM      2  C   UNL     1       1.124   5.582  20.686  0.00  0.00    +0.000 A 
ATOM      3  C   UNL     1       1.443   4.341  20.144  0.00  0.00    +0.000 A 
ATOM      4  C   UNL     1       2.385   4.246  19.124  0.00  0.00    +0.000 A 
ATOM      5  C   UNL     1       3.020   5.384  18.627  0.00  0.00    +0.000 A 
ATOM      6  C   UNL     1       2.720   6.629  19.206  0.00  0.00    +0.000 A 
ENDROOT
BRANCH   5   7
ATOM      7  N   UNL     1       3.950   5.336  17.564  0.00  0.00    +0.000 N 
ATOM      8  C   UNL     1       4.597   4.206  17.093  0.00  0.00    +0.000 C 
ATOM      9  O   UNL     1       4.460   3.056  17.497  0.00  0.00    +0.000 OA
ATOM     10  H   UNL     1       4.134   6.197  17.053  0.00  0.00    +0.000 HD
BRANCH   8  11
ATOM     11  C   UNL     1       5.533   4.435  15.961  0.00  0.00    +0.000 A 
ATOM     12  C   UNL     1       6.672   5.201  16.172  0.00  0.00    +0.000 A 
ATOM     13  N   UNL     1       7.577   5.439  15.192  0.00  0.00    +0.000 NA
ATOM     14  C   UNL     1       7.299   4.877  13.992  0.00  0.00    +0.000 A 
ATOM     15  C   UNL     1       6.162   4.105  13.759  0.00  0.00    +0.000 A 
ATOM     16  N   UNL     1       5.244   3.869  14.753  0.00  0.00    +0.000 NA
BRANCH  15  17
ATOM     17  C   UNL     1       5.960   3.514  12.380  0.00  0.00    +0.000 C 
ATOM     18  F   UNL     1       4.712   3.732  11.873  0.00  0.00    +0.000 F 
ATOM     19  F   UNL     1       6.821   4.027  11.456  0.00  0.00    +0.000 F 
ATOM     20  F   UNL     1       6.135   2.163  12.351  0.00  0.00    +0.000 F 
ENDBRANCH  15  17
ENDBRANCH   8  11
ENDBRANCH   5   7
BRANCH   1  22
ATOM     21  C   UNL     1       0.141   8.155  21.658  0.00  0.00    +0.000 C 
ATOM     22  C   UNL     1       1.433   8.129  20.825  0.00  0.00    +0.000 C 
BRANCH  22  23
ATOM     23  S   UNL     1       1.318   9.350  19.453  0.00  0.00    +0.000 S 
BRANCH  23  24
ATOM     24  C   UNL     1       0.691  10.749  20.246  0.00  0.00    +0.000 A 
ATOM     25  N   UNL     1       1.270  11.471  21.178  0.00  0.00    +0.000 NA
ATOM     26  N   UNL     1       0.376  12.449  21.562  0.00  0.00    +0.000 NA
ATOM     27  C   UNL     1      -0.711  12.302  20.839  0.00  0.00    +0.000 A 
ATOM     28  N   UNL     1      -0.549  11.256  19.981  0.00  0.00    +0.000 N 
ATOM     29  C   UNL     1      -1.506  10.791  19.015  0.00  0.00    +0.000 C 
ENDBRANCH  23  24
ENDBRANCH  22  23
ENDBRANCH   1  22
TORSDOF 6
ENDMDL
MODEL 3
REMARK VINA RESULT:      -8.0      7.619      8.801
REMARK  Name = 
REMARK  8 active torsions:
REMARK  status: ('A' for Active; 'I' for Inactive)
REMARK    1  A    between atoms: C_1  and  C_2
REMARK    2  A    between atoms: C_2  and  S_3
REMARK    3  A    between atoms: C_2  and  C_10
REMARK    4  A    between atoms: S_3  and  C_4
REMARK    5  A    between atoms: N_8  and  C_9
REMARK    6  A    between atoms: C_14  and  N_15
REMARK    7  A    between atoms: C_16  and  C_18
REMARK    8  A    between atoms: C_22  and  C_23
REMARK                            x       y       z     vdW  Elec       q    Type
REMARK                         _______ _______ _______ _____ _____    ______ ____
ROOT
ATOM      1  C   UNL     1       0.055  10.404  19.882  0.00  0.00    +0.000 A 
ATOM      2  C   UNL     1      -0.420  10.556  21.193  0.00  0.00    +0.000 A 
ATOM      3  C   UNL     1       0.009   9.712  22.212  0.00  0.00    +0.000 A 
ATOM      4  C   UNL     1       0.900   8.680  21.935  0.00  0.00    +0.000 A 
ATOM      5  C   UNL     1       1.373   8.470  20.640  0.00  0.00    +0.000 A 
ATOM      6  C   UNL     1       0.965   9.351  19.623  0.00  0.00    +0.000 A 
ENDROOT
BRANCH   5   7
ATOM      7  N   UNL     1       2.245   7.408  20.308  0.00  0.00    +0.000 N 
ATOM      8  C   UNL     1       1.933   6.059  20.319  0.00  0.00    +0.000 C 
ATOM      9  O   UNL     1       0.848   5.556  20.595  0.00  0.00    +0.000 OA
ATOM     10  H   UNL     1       3.178   7.644  19.977  0.00  0.00    +0.000 HD
BRANCH   8  11
ATOM     11  C   UNL     1       3.039   5.147  19.928  0.00  0.00    +0.000 A 
ATOM     12  C   UNL     1       2.820   3.776  19.941  0.00  0.00    +0.000 A 
ATOM     13  N   UNL     1       3.776   2.885  19.582  0.00  0.00    +0.000 NA
ATOM     14  C   UNL     1       4.961   3.422  19.205  0.00  0.00    +0.000 A 
ATOM     15  C   UNL     1       5.202   4.795  19.184  0.00  0.00    +0.000 A 
ATOM     16  N   UNL     1       4.232   5.694  19.553  0.00  0.00    +0.000 NA
BRANCH  15  17
ATOM     17  C   UNL     1       6.562   5.283  18.732  0.00  0.00    +0.000 C 
ATOM     18  F   UNL     1       7.393   5.606  19.765  0.00  0.00    +0.000 F 
ATOM     19  F   UNL     1       7.237   4.353  17.999  0.00  0.00    +0.000 F 
ATOM     20  F   UNL     1       6.493   6.399  17.955  0.00  0.00    +0.000 F 
ENDBRANCH  15  17
ENDBRANCH   8  11
ENDBRANCH   5   7
BRANCH   1  22
ATOM     21  C   UNL     1       0.264  12.712  18.769  0.00  0.00    +0.000 C 
ATOM     22  C   UNL     1      -0.397  11.323  18.740  0.00  0.00    +0.000 C 
BRANCH  22  23
ATOM     23  S   UNL     1      -2.228  11.501  18.799  0.00  0.00    +0.000 S 
BRANCH  23  24
ATOM     24  C   UNL     1      -2.715  10.876  17.266  0.00  0.00    +0.000 A 
ATOM     25  N   UNL     1      -2.023  10.111  16.453  0.00  0.00    +0.000 NA
ATOM     26  N   UNL     1      -2.784   9.913  15.319  0.00  0.00    +0.000 NA
ATOM     27  C   UNL     1      -3.921  10.549  15.486  0.00  0.00    +0.000 A 
ATOM     28  N   UNL     1      -3.930  11.152  16.707  0.00  0.00    +0.000 N 
ATOM     29  C   UNL     1      -5.005  11.926  17.266  0.00  0.00    +0.000 C 
ENDBRANCH  23  24
ENDBRANCH  22  23
ENDBRANCH   1  22
TORSDOF 6
ENDMDL
MODEL 4
REMARK VINA RESULT:      -7.9      4.749      9.141
REMARK  Name = 
REMARK  8 active torsions:
REMARK  status: ('A' for Active; 'I' for Inactive)
REMARK    1  A    between atoms: C_1  and  C_2
REMARK    2  A    between atoms: C_2  and  S_3
REMARK    3  A    between atoms: C_2  and  C_10
REMARK    4  A    between atoms: S_3  and  C_4
REMARK    5  A    between atoms: N_8  and  C_9
REMARK    6  A    between atoms: C_14  and  N_15
REMARK    7  A    between atoms: C_16  and  C_18
REMARK    8  A    between atoms: C_22  and  C_23
REMARK                            x       y       z     vdW  Elec       q    Type
REMARK                         _______ _______ _______ _____ _____    ______ ____
ROOT
ATOM      1  C   UNL     1       6.387   6.409  17.377  0.00  0.00    +0.000 A 
ATOM      2  C   UNL     1       6.940   5.562  18.348  0.00  0.00    +0.000 A 
ATOM      3  C   UNL     1       7.978   5.994  19.167  0.00  0.00    +0.000 A 
ATOM      4  C   UNL     1       8.504   7.272  19.012  0.00  0.00    +0.000 A 
ATOM      5  C   UNL     1       8.008   8.138  18.038  0.00  0.00    +0.000 A 
ATOM      6  C   UNL     1       6.934   7.708  17.239  0.00  0.00    +0.000 A 
ENDROOT
BRANCH   5   7
ATOM      7  N   UNL     1       8.542   9.428  17.819  0.00  0.00    +0.000 N 
ATOM      8  C   UNL     1       9.029  10.287  18.790  0.00  0.00    +0.000 C 
ATOM      9  O   UNL     1       9.103  10.071  19.995  0.00  0.00    +0.000 OA
ATOM     10  H   UNL     1       8.631   9.750  16.858  0.00  0.00    +0.000 HD
BRANCH   8  11
ATOM     11  C   UNL     1       9.533  11.593  18.288  0.00  0.00    +0.000 A 
ATOM     12  C   UNL     1      10.787  11.648  17.695  0.00  0.00    +0.000 A 
ATOM     13  N   UNL     1      11.305  12.798  17.200  0.00  0.00    +0.000 NA
ATOM     14  C   UNL     1      10.516  13.892  17.322  0.00  0.00    +0.000 A 
ATOM     15  C   UNL     1       9.255  13.859  17.914  0.00  0.00    +0.000 A 
ATOM     16  N   UNL     1       8.735  12.692  18.418  0.00  0.00    +0.000 NA
BRANCH  15  17
ATOM     17  C   UNL     1       8.455  15.142  17.983  0.00  0.00    +0.000 C 
ATOM     18  F   UNL     1       7.242  15.059  17.364  0.00  0.00    +0.000 F 
ATOM     19  F   UNL     1       8.184  15.525  19.263  0.00  0.00    +0.000 F 
ATOM     20  F   UNL     1       9.091  16.196  17.400  0.00  0.00    +0.000 F 
ENDBRANCH  15  17
ENDBRANCH   8  11
ENDBRANCH   5   7
BRANCH   1  22
ATOM     21  C   UNL     1       3.880   5.877  17.179  0.00  0.00    +0.000 C 
ATOM     22  C   UNL     1       5.239   5.962  16.464  0.00  0.00    +0.000 C 
BRANCH  22  23
ATOM     23  S   UNL     1       5.659   4.330  15.724  0.00  0.00    +0.000 S 
BRANCH  23  24
ATOM     24  C   UNL     1       6.766   4.757  14.472  0.00  0.00    +0.000 A 
ATOM     25  N   UNL     1       7.818   5.538  14.562  0.00  0.00    +0.000 NA
ATOM     26  N   UNL     1       8.367   5.646  13.300  0.00  0.00    +0.000 NA
ATOM     27  C   UNL     1       7.640   4.913  12.487  0.00  0.00    +0.000 A 
ATOM     28  N   UNL     1       6.634   4.318  13.186  0.00  0.00    +0.000 N 
ATOM     29  C   UNL     1       5.640   3.426  12.653  0.00  0.00    +0.000 C 
ENDBRANCH  23  24
ENDBRANCH  22  23
ENDBRANCH   1  22
TORSDOF 6
ENDMDL
MODEL 5
REMARK VINA RESULT:      -7.9      7.757     10.317
REMARK  Name = 
REMARK  8 active torsions:
REMARK  status: ('A' for Active; 'I' for Inactive)
REMARK    1  A    between atoms: C_1  and  C_2
REMARK    2  A    between atoms: C_2  and  S_3
REMARK    3  A    between atoms: C_2  and  C_10
REMARK    4  A    between atoms: S_3  and  C_4
REMARK    5  A    between atoms: N_8  and  C_9
REMARK    6  A    between atoms: C_14  and  N_15
REMARK    7  A    between atoms: C_16  and  C_18
REMARK    8  A    between atoms: C_22  and  C_23
REMARK                            x       y       z     vdW  Elec       q    Type
REMARK                         _______ _______ _______ _____ _____    ______ ____
ROOT
ATOM      1  C   UNL     1       4.478   5.201  18.036  0.00  0.00    +0.000 A 
ATOM      2  C   UNL     1       4.370   3.890  18.519  0.00  0.00    +0.000 A 
ATOM      3  C   UNL     1       3.524   3.585  19.581  0.00  0.00    +0.000 A 
ATOM      4  C   UNL     1       2.791   4.592  20.200  0.00  0.00    +0.000 A 
ATOM      5  C   UNL     1       2.891   5.917  19.775  0.00  0.00    +0.000 A 
ATOM      6  C   UNL     1       3.719   6.210  18.678  0.00  0.00    +0.000 A 
ENDROOT
BRANCH   5   7
ATOM      7  N   UNL     1       2.197   6.975  20.403  0.00  0.00    +0.000 N 
ATOM      8  C   UNL     1       1.738   8.130  19.792  0.00  0.00    +0.000 C 
ATOM      9  O   UNL     1       1.833   8.422  18.604  0.00  0.00    +0.000 OA
ATOM     10  H   UNL     1       1.959   6.871  21.387  0.00  0.00    +0.000 HD
BRANCH   8  11
ATOM     11  C   UNL     1       1.037   9.088  20.686  0.00  0.00    +0.000 A 
ATOM     12  C   UNL     1       1.149   8.931  22.062  0.00  0.00    +0.000 A 
ATOM     13  N   UNL     1       0.552   9.774  22.938  0.00  0.00    +0.000 NA
ATOM     14  C   UNL     1      -0.160  10.783  22.383  0.00  0.00    +0.000 A 
ATOM     15  C   UNL     1      -0.287  10.958  21.007  0.00  0.00    +0.000 A 
ATOM     16  N   UNL     1       0.317  10.099  20.121  0.00  0.00    +0.000 NA
BRANCH  15  17
ATOM     17  C   UNL     1      -1.098  12.131  20.498  0.00  0.00    +0.000 C 
ATOM     18  F   UNL     1      -0.802  13.307  21.123  0.00  0.00    +0.000 F 
ATOM     19  F   UNL     1      -0.907  12.367  19.169  0.00  0.00    +0.000 F 
ATOM     20  F   UNL     1      -2.440  11.958  20.661  0.00  0.00    +0.000 F 
ENDBRANCH  15  17
ENDBRANCH   8  11
ENDBRANCH   5   7
BRANCH   1  22
ATOM     21  C   UNL     1       4.898   6.760  16.036  0.00  0.00    +0.000 C 
ATOM     22  C   UNL     1       5.398   5.565  16.865  0.00  0.00    +0.000 C 
BRANCH  22  23
ATOM     23  S   UNL     1       5.601   4.093  15.779  0.00  0.00    +0.000 S 
BRANCH  23  24
ATOM     24  C   UNL     1       6.725   4.650  14.594  0.00  0.00    +0.000 A 
ATOM     25  N   UNL     1       7.738   5.467  14.770  0.00  0.00    +0.000 NA
ATOM     26  N   UNL     1       8.319   5.682  13.537  0.00  0.00    +0.000 NA
ATOM     27  C   UNL     1       7.651   4.975  12.653  0.00  0.00    +0.000 A 
ATOM     28  N   UNL     1       6.651   4.293  13.279  0.00  0.00    +0.000 N 
ATOM     29  C   UNL     1       5.715   3.396  12.657  0.00  0.00    +0.000 C 
ENDBRANCH  23  24
ENDBRANCH  22  23
ENDBRANCH   1  22
TORSDOF 6
ENDMDL
MODEL 6
REMARK VINA RESULT:      -7.9      5.979      7.073
REMARK  Name = 
REMARK  8 active torsions:
REMARK  status: ('A' for Active; 'I' for Inactive)
REMARK    1  A    between atoms: C_1  and  C_2
REMARK    2  A    between atoms: C_2  and  S_3
REMARK    3  A    between atoms: C_2  and  C_10
REMARK    4  A    between atoms: S_3  and  C_4
REMARK    5  A    between atoms: N_8  and  C_9
REMARK    6  A    between atoms: C_14  and  N_15
REMARK    7  A    between atoms: C_16  and  C_18
REMARK    8  A    between atoms: C_22  and  C_23
REMARK                            x       y       z     vdW  Elec       q    Type
REMARK                         _______ _______ _______ _____ _____    ______ ____
ROOT
ATOM      1  C   UNL     1       1.733   7.751  20.005  0.00  0.00    +0.000 A 
ATOM      2  C   UNL     1       1.315   6.711  20.847  0.00  0.00    +0.000 A 
ATOM      3  C   UNL     1       1.849   5.433  20.725  0.00  0.00    +0.000 A 
ATOM      4  C   UNL     1       2.792   5.161  19.738  0.00  0.00    +0.000 A 
ATOM      5  C   UNL     1       3.213   6.156  18.857  0.00  0.00    +0.000 A 
ATOM      6  C   UNL     1       2.697   7.455  19.011  0.00  0.00    +0.000 A 
ENDROOT
BRANCH   5   7
ATOM      7  N   UNL     1       4.135   5.912  17.814  0.00  0.00    +0.000 N 
ATOM      8  C   UNL     1       4.239   4.750  17.068  0.00  0.00    +0.000 C 
ATOM      9  O   UNL     1       3.539   3.747  17.166  0.00  0.00    +0.000 OA
ATOM     10  H   UNL     1       4.755   6.671  17.540  0.00  0.00    +0.000 HD
BRANCH   8  11
ATOM     11  C   UNL     1       5.302   4.754  16.029  0.00  0.00    +0.000 A 
ATOM     12  C   UNL     1       6.536   5.316  16.330  0.00  0.00    +0.000 A 
ATOM     13  N   UNL     1       7.557   5.341  15.439  0.00  0.00    +0.000 NA
ATOM     14  C   UNL     1       7.294   4.779  14.236  0.00  0.00    +0.000 A 
ATOM     15  C   UNL     1       6.064   4.210  13.913  0.00  0.00    +0.000 A 
ATOM     16  N   UNL     1       5.030   4.190  14.817  0.00  0.00    +0.000 NA
BRANCH  15  17
ATOM     17  C   UNL     1       5.888   3.598  12.540  0.00  0.00    +0.000 C 
ATOM     18  F   UNL     1       6.126   2.255  12.510  0.00  0.00    +0.000 F 
ATOM     19  F   UNL     1       4.624   3.754  12.053  0.00  0.00    +0.000 F 
ATOM     20  F   UNL     1       6.721   4.138  11.608  0.00  0.00    +0.000 F 
ENDBRANCH  15  17
ENDBRANCH   8  11
ENDBRANCH   5   7
BRANCH   1  22
ATOM     21  C   UNL     1      -0.043   9.278  21.067  0.00  0.00    +0.000 C 
ATOM     22  C   UNL     1       1.165   9.171  20.120  0.00  0.00    +0.000 C 
BRANCH  22  23
ATOM     23  S   UNL     1       0.701   9.772  18.444  0.00  0.00    +0.000 S 
BRANCH  23  24
ATOM     24  C   UNL     1       1.323  11.381  18.434  0.00  0.00    +0.000 A 
ATOM     25  N   UNL     1       2.519  11.778  18.061  0.00  0.00    +0.000 NA
ATOM     26  N   UNL     1       2.595  13.137  18.283  0.00  0.00    +0.000 NA
ATOM     27  C   UNL     1       1.437  13.527  18.768  0.00  0.00    +0.000 A 
ATOM     28  N   UNL     1       0.599  12.457  18.860  0.00  0.00    +0.000 N 
ATOM     29  C   UNL     1      -0.761  12.480  19.325  0.00  0.00    +0.000 C 
ENDBRANCH  23  24
ENDBRANCH  22  23
ENDBRANCH   1  22
TORSDOF 6
ENDMDL
MODEL 7
REMARK VINA RESULT:      -7.9      6.322      7.460
REMARK  Name = 
REMARK  8 active torsions:
REMARK  status: ('A' for Active; 'I' for Inactive)
REMARK    1  A    between atoms: C_1  and  C_2
REMARK    2  A    between atoms: C_2  and  S_3
REMARK    3  A    between atoms: C_2  and  C_10
REMARK    4  A    between atoms: S_3  and  C_4
REMARK    5  A    between atoms: N_8  and  C_9
REMARK    6  A    between atoms: C_14  and  N_15
REMARK    7  A    between atoms: C_16  and  C_18
REMARK    8  A    between atoms: C_22  and  C_23
REMARK                            x       y       z     vdW  Elec       q    Type
REMARK                         _______ _______ _______ _____ _____    ______ ____
ROOT
ATOM      1  C   UNL     1       1.999   7.422  19.931  0.00  0.00    +0.000 A 
ATOM      2  C   UNL     1       1.606   6.332  20.720  0.00  0.00    +0.000 A 
ATOM      3  C   UNL     1       2.130   5.062  20.500  0.00  0.00    +0.000 A 
ATOM      4  C   UNL     1       3.036   4.851  19.466  0.00  0.00    +0.000 A 
ATOM      5  C   UNL     1       3.431   5.898  18.634  0.00  0.00    +0.000 A 
ATOM      6  C   UNL     1       2.927   7.186  18.887  0.00  0.00    +0.000 A 
ENDROOT
BRANCH   5   7
ATOM      7  N   UNL     1       4.316   5.718  17.547  0.00  0.00    +0.000 N 
ATOM      8  C   UNL     1       4.523   4.542  16.846  0.00  0.00    +0.000 C 
ATOM      9  O   UNL     1       3.961   3.466  17.030  0.00  0.00    +0.000 OA
ATOM     10  H   UNL     1       4.818   6.533  17.202  0.00  0.00    +0.000 HD
BRANCH   8  11
ATOM     11  C   UNL     1       5.515   4.625  15.743  0.00  0.00    +0.000 A 
ATOM     12  C   UNL     1       6.678   5.360  15.936  0.00  0.00    +0.000 A 
ATOM     13  N   UNL     1       7.634   5.468  14.983  0.00  0.00    +0.000 NA
ATOM     14  C   UNL     1       7.383   4.807  13.828  0.00  0.00    +0.000 A 
ATOM     15  C   UNL     1       6.224   4.064  13.613  0.00  0.00    +0.000 A 
ATOM     16  N   UNL     1       5.254   3.961  14.580  0.00  0.00    +0.000 NA
BRANCH  15  17
ATOM     17  C   UNL     1       6.055   3.356  12.285  0.00  0.00    +0.000 C 
ATOM     18  F   UNL     1       5.740   2.034  12.412  0.00  0.00    +0.000 F 
ATOM     19  F   UNL     1       5.061   3.894  11.524  0.00  0.00    +0.000 F 
ATOM     20  F   UNL     1       7.180   3.392  11.518  0.00  0.00    +0.000 F 
ENDBRANCH  15  17
ENDBRANCH   8  11
ENDBRANCH   5   7
BRANCH   1  22
ATOM     21  C   UNL     1       0.185   8.867  21.041  0.00  0.00    +0.000 C 
ATOM     22  C   UNL     1       1.442   8.833  20.155  0.00  0.00    +0.000 C 
BRANCH  22  23
ATOM     23  S   UNL     1       1.078   9.602  18.523  0.00  0.00    +0.000 S 
BRANCH  23  24
ATOM     24  C   UNL     1      -0.088  10.809  18.927  0.00  0.00    +0.000 A 
ATOM     25  N   UNL     1      -1.391  10.752  18.770  0.00  0.00    +0.000 NA
ATOM     26  N   UNL     1      -1.912  11.965  19.170  0.00  0.00    +0.000 NA
ATOM     27  C   UNL     1      -0.912  12.714  19.574  0.00  0.00    +0.000 A 
ATOM     28  N   UNL     1       0.254  12.019  19.459  0.00  0.00    +0.000 N 
ATOM     29  C   UNL     1       1.564  12.489  19.817  0.00  0.00    +0.000 C 
ENDBRANCH  23  24
ENDBRANCH  22  23
ENDBRANCH   1  22
TORSDOF 6
ENDMDL
MODEL 8
REMARK VINA RESULT:      -7.8      7.331      8.507
REMARK  Name = 
REMARK  8 active torsions:
REMARK  status: ('A' for Active; 'I' for Inactive)
REMARK    1  A    between atoms: C_1  and  C_2
REMARK    2  A    between atoms: C_2  and  S_3
REMARK    3  A    between atoms: C_2  and  C_10
REMARK    4  A    between atoms: S_3  and  C_4
REMARK    5  A    between atoms: N_8  and  C_9
REMARK    6  A    between atoms: C_14  and  N_15
REMARK    7  A    between atoms: C_16  and  C_18
REMARK    8  A    between atoms: C_22  and  C_23
REMARK                            x       y       z     vdW  Elec       q    Type
REMARK                         _______ _______ _______ _____ _____    ______ ____
ROOT
ATOM      1  C   UNL     1       0.008  10.611  19.626  0.00  0.00    +0.000 A 
ATOM      2  C   UNL     1      -0.320  10.618  20.989  0.00  0.00    +0.000 A 
ATOM      3  C   UNL     1       0.200   9.661  21.855  0.00  0.00    +0.000 A 
ATOM      4  C   UNL     1       1.035   8.660  21.370  0.00  0.00    +0.000 A 
ATOM      5  C   UNL     1       1.363   8.594  20.016  0.00  0.00    +0.000 A 
ATOM      6  C   UNL     1       0.864   9.586  19.154  0.00  0.00    +0.000 A 
ENDROOT
BRANCH   5   7
ATOM      7  N   UNL     1       2.173   7.570  19.476  0.00  0.00    +0.000 N 
ATOM      8  C   UNL     1       2.736   7.554  18.210  0.00  0.00    +0.000 C 
ATOM      9  O   UNL     1       2.648   8.428  17.354  0.00  0.00    +0.000 OA
ATOM     10  H   UNL     1       2.418   6.788  20.079  0.00  0.00    +0.000 HD
BRANCH   8  11
ATOM     11  C   UNL     1       3.547   6.351  17.890  0.00  0.00    +0.000 A 
ATOM     12  C   UNL     1       2.924   5.111  17.842  0.00  0.00    +0.000 A 
ATOM     13  N   UNL     1       3.595   3.973  17.542  0.00  0.00    +0.000 NA
ATOM     14  C   UNL     1       4.917   4.126  17.290  0.00  0.00    +0.000 A 
ATOM     15  C   UNL     1       5.562   5.360  17.333  0.00  0.00    +0.000 A 
ATOM     16  N   UNL     1       4.879   6.511  17.641  0.00  0.00    +0.000 NA
BRANCH  15  17
ATOM     17  C   UNL     1       7.043   5.413  17.019  0.00  0.00    +0.000 C 
ATOM     18  F   UNL     1       7.697   4.247  17.292  0.00  0.00    +0.000 F 
ATOM     19  F   UNL     1       7.293   5.671  15.704  0.00  0.00    +0.000 F 
ATOM     20  F   UNL     1       7.700   6.376  17.724  0.00  0.00    +0.000 F 
ENDBRANCH  15  17
ENDBRANCH   8  11
ENDBRANCH   5   7
BRANCH   1  22
ATOM     21  C   UNL     1      -0.037  13.082  18.919  0.00  0.00    +0.000 C 
ATOM     22  C   UNL     1      -0.546  11.656  18.649  0.00  0.00    +0.000 C 
BRANCH  22  23
ATOM     23  S   UNL     1      -2.384  11.625  18.713  0.00  0.00    +0.000 S 
BRANCH  23  24
ATOM     24  C   UNL     1      -2.803  10.957  17.178  0.00  0.00    +0.000 A 
ATOM     25  N   UNL     1      -2.061  10.202  16.400  0.00  0.00    +0.000 NA
ATOM     26  N   UNL     1      -2.779   9.958  15.248  0.00  0.00    +0.000 NA
ATOM     27  C   UNL     1      -3.942  10.557  15.369  0.00  0.00    +0.000 A 
ATOM     28  N   UNL     1      -4.009  11.181  16.578  0.00  0.00    +0.000 N 
ATOM     29  C   UNL     1      -5.126  11.928  17.089  0.00  0.00    +0.000 C 
ENDBRANCH  23  24
ENDBRANCH  22  23
ENDBRANCH   1  22
TORSDOF 6
ENDMDL
MODEL 9
REMARK VINA RESULT:      -7.8      6.591      7.813
REMARK  Name = 
REMARK  8 active torsions:
REMARK  status: ('A' for Active; 'I' for Inactive)
REMARK    1  A    between atoms: C_1  and  C_2
REMARK    2  A    between atoms: C_2  and  S_3
REMARK    3  A    between atoms: C_2  and  C_10
REMARK    4  A    between atoms: S_3  and  C_4
REMARK    5  A    between atoms: N_8  and  C_9
REMARK    6  A    between atoms: C_14  and  N_15
REMARK    7  A    between atoms: C_16  and  C_18
REMARK    8  A    between atoms: C_22  and  C_23
REMARK                            x       y       z     vdW  Elec       q    Type
REMARK                         _______ _______ _______ _____ _____    ______ ____
ROOT
ATOM      1  C   UNL     1       1.652   8.863  18.747  0.00  0.00    +0.000 A 
ATOM      2  C   UNL     1       1.400   8.158  19.931  0.00  0.00    +0.000 A 
ATOM      3  C   UNL     1       2.088   6.986  20.227  0.00  0.00    +0.000 A 
ATOM      4  C   UNL     1       3.023   6.479  19.329  0.00  0.00    +0.000 A 
ATOM      5  C   UNL     1       3.283   7.129  18.123  0.00  0.00    +0.000 A 
ATOM      6  C   UNL     1       2.611   8.334  17.849  0.00  0.00    +0.000 A 
ENDROOT
BRANCH   5   7
ATOM      7  N   UNL     1       4.192   6.627  17.165  0.00  0.00    +0.000 N 
ATOM      8  C   UNL     1       4.375   5.295  16.829  0.00  0.00    +0.000 C 
ATOM      9  O   UNL     1       3.768   4.331  17.285  0.00  0.00    +0.000 OA
ATOM     10  H   UNL     1       4.735   7.298  16.626  0.00  0.00    +0.000 HD
BRANCH   8  11
ATOM     11  C   UNL     1       5.403   5.038  15.787  0.00  0.00    +0.000 A 
ATOM     12  C   UNL     1       6.717   5.415  16.029  0.00  0.00    +0.000 A 
ATOM     13  N   UNL     1       7.710   5.198  15.133  0.00  0.00    +0.000 NA
ATOM     14  C   UNL     1       7.335   4.586  13.985  0.00  0.00    +0.000 A 
ATOM     15  C   UNL     1       6.022   4.200  13.721  0.00  0.00    +0.000 A 
ATOM     16  N   UNL     1       5.017   4.425  14.631  0.00  0.00    +0.000 NA
BRANCH  15  17
ATOM     17  C   UNL     1       5.720   3.511  12.408  0.00  0.00    +0.000 C 
ATOM     18  F   UNL     1       6.503   3.942  11.376  0.00  0.00    +0.000 F 
ATOM     19  F   UNL     1       5.908   2.162  12.467  0.00  0.00    +0.000 F 
ATOM     20  F   UNL     1       4.436   3.696  11.994  0.00  0.00    +0.000 F 
ENDBRANCH  15  17
ENDBRANCH   8  11
ENDBRANCH   5   7
BRANCH   1  22
ATOM     21  C   UNL     1       1.776  11.424  18.553  0.00  0.00    +0.000 C 
ATOM     22  C   UNL     1       0.913  10.161  18.398  0.00  0.00    +0.000 C 
BRANCH  22  23
ATOM     23  S   UNL     1      -0.591  10.299  19.450  0.00  0.00    +0.000 S 
BRANCH  23  24
ATOM     24  C   UNL     1      -1.850  10.483  18.285  0.00  0.00    +0.000 A 
ATOM     25  N   UNL     1      -1.994   9.840  17.149  0.00  0.00    +0.000 NA
ATOM     26  N   UNL     1      -3.106  10.357  16.515  0.00  0.00    +0.000 NA
ATOM     27  C   UNL     1      -3.612  11.285  17.295  0.00  0.00    +0.000 A 
ATOM     28  N   UNL     1      -2.866  11.383  18.430  0.00  0.00    +0.000 N 
ATOM     29  C   UNL     1      -3.111  12.271  19.535  0.00  0.00    +0.000 C 
ENDBRANCH  23  24
ENDBRANCH  22  23
ENDBRANCH   1  22
TORSDOF 6
ENDMDL
