MODEL 1
REMARK VINA RESULT:      -7.7      0.000      0.000
REMARK  Name = 
REMARK  6 active torsions:
REMARK  status: ('A' for Active; 'I' for Inactive)
REMARK    1  A    between atoms: C_1  and  C_2
REMARK    2  A    between atoms: C_2  and  C_3
REMARK    3  A    between atoms: C_2  and  C_4
REMARK    4  A    between atoms: C_2  and  O_5
REMARK    5  A    between atoms: O_5  and  C_6
REMARK    6  A    between atoms: N_18  and  C_19
REMARK                            x       y       z     vdW  Elec       q    Type
REMARK                         _______ _______ _______ _____ _____    ______ ____
ROOT
ATOM      1  C   UNL     1       2.041  12.754  20.264  0.00  0.00    +0.000 C 
ATOM      2  O   UNL     1       2.088  13.057  21.467  0.00  0.00    +0.000 OA
ATOM      3  N   UNL     1       1.275  11.687  19.850  0.00  0.00    +0.000 N 
ATOM      4  C   UNL     1       1.143  11.200  18.488  0.00  0.00    +0.000 C 
ATOM      5  C   UNL     1      -0.335  11.228  18.066  0.00  0.00    +0.000 C 
ATOM      6  C   UNL     1      -1.371  10.926  19.156  0.00  0.00    +0.000 C 
ATOM      7  C   UNL     1      -0.892  10.874  20.608  0.00  0.00    +0.000 C 
ATOM      8  C   UNL     1       0.619  10.825  20.823  0.00  0.00    +0.000 C 
ATOM      9  C   UNL     1       1.203   9.404  20.775  0.00  0.00    +0.000 C 
ATOM     10  N   UNL     1       1.446   8.838  19.440  0.00  0.00    +0.000 N 
ATOM     11  C   UNL     1       1.889   7.512  19.475  0.00  0.00    +0.000 C 
ATOM     12  O   UNL     1       1.969   6.922  20.561  0.00  0.00    +0.000 OA
ATOM     13  N   UNL     1       2.221   6.931  18.271  0.00  0.00    +0.000 N 
ATOM     14  C   UNL     1       1.769   9.783  18.357  0.00  0.00    +0.000 C 
ATOM     15  H   UNL     1       2.437   7.548  17.507  0.00  0.00    +0.000 HD
ENDROOT
BRANCH  13  16
ATOM     16  C   UNL     1       2.681   5.591  18.112  0.00  0.00    +0.000 A 
ATOM     17  C   UNL     1       1.819   4.532  17.783  0.00  0.00    +0.000 A 
ATOM     18  C   UNL     1       2.261   3.214  17.696  0.00  0.00    +0.000 A 
ATOM     19  C   UNL     1       3.598   2.896  17.921  0.00  0.00    +0.000 A 
ATOM     20  C   UNL     1       4.468   3.947  18.228  0.00  0.00    +0.000 A 
ATOM     21  N   UNL     1       5.816   3.908  18.504  0.00  0.00    +0.000 N 
ATOM     22  C   UNL     1       6.281   5.169  18.771  0.00  0.00    +0.000 A 
ATOM     23  C   UNL     1       5.217   6.034  18.659  0.00  0.00    +0.000 A 
ATOM     24  C   UNL     1       4.054   5.283  18.319  0.00  0.00    +0.000 A 
ATOM     25  H   UNL     1       6.371   3.063  18.523  0.00  0.00    +0.000 HD
ENDBRANCH  13  16
BRANCH   1  26
ATOM     26  O   UNL     1       2.707  13.400  19.262  0.00  0.00    +0.000 OA
BRANCH  26  28
ATOM     27  C   UNL     1       2.964  15.207  17.651  0.00  0.00    +0.000 C 
ATOM     28  C   UNL     1       2.363  14.793  18.995  0.00  0.00    +0.000 C 
ATOM     29  C   UNL     1       2.914  15.683  20.113  0.00  0.00    +0.000 C 
ATOM     30  C   UNL     1       0.829  14.994  18.867  0.00  0.00    +0.000 C 
ENDBRANCH  26  28
ENDBRANCH   1  26
TORSDOF 3
ENDMDL
MODEL 2
REMARK VINA RESULT:      -7.2      1.117      2.051
REMARK  Name = 
REMARK  6 active torsions:
REMARK  status: ('A' for Active; 'I' for Inactive)
REMARK    1  A    between atoms: C_1  and  C_2
REMARK    2  A    between atoms: C_2  and  C_3
REMARK    3  A    between atoms: C_2  and  C_4
REMARK    4  A    between atoms: C_2  and  O_5
REMARK    5  A    between atoms: O_5  and  C_6
REMARK    6  A    between atoms: N_18  and  C_19
REMARK                            x       y       z     vdW  Elec       q    Type
REMARK                         _______ _______ _______ _____ _____    ______ ____
ROOT
ATOM      1  C   UNL     1       1.761  12.440  20.202  0.00  0.00    +0.000 C 
ATOM      2  O   UNL     1       1.807  12.708  21.414  0.00  0.00    +0.000 OA
ATOM      3  N   UNL     1       1.126  11.296  19.772  0.00  0.00    +0.000 N 
ATOM      4  C   UNL     1       1.015  10.840  18.397  0.00  0.00    +0.000 C 
ATOM      5  C   UNL     1      -0.467  10.688  18.018  0.00  0.00    +0.000 C 
ATOM      6  C   UNL     1      -1.420  10.220  19.124  0.00  0.00    +0.000 C 
ATOM      7  C   UNL     1      -0.893  10.184  20.560  0.00  0.00    +0.000 C 
ATOM      8  C   UNL     1       0.617  10.325  20.732  0.00  0.00    +0.000 C 
ATOM      9  C   UNL     1       1.378   8.995  20.616  0.00  0.00    +0.000 C 
ATOM     10  N   UNL     1       1.650   8.507  19.256  0.00  0.00    +0.000 N 
ATOM     11  C   UNL     1       2.262   7.250  19.231  0.00  0.00    +0.000 C 
ATOM     12  O   UNL     1       2.452   6.641  20.293  0.00  0.00    +0.000 OA
ATOM     13  N   UNL     1       2.627   6.756  17.999  0.00  0.00    +0.000 N 
ATOM     14  C   UNL     1       1.814   9.521  18.199  0.00  0.00    +0.000 C 
ATOM     15  H   UNL     1       2.737   7.420  17.252  0.00  0.00    +0.000 HD
ENDROOT
BRANCH  13  16
ATOM     16  C   UNL     1       3.251   5.493  17.780  0.00  0.00    +0.000 A 
ATOM     17  C   UNL     1       4.557   5.376  17.276  0.00  0.00    +0.000 A 
ATOM     18  C   UNL     1       5.138   4.140  17.000  0.00  0.00    +0.000 A 
ATOM     19  C   UNL     1       4.438   2.958  17.230  0.00  0.00    +0.000 A 
ATOM     20  C   UNL     1       3.145   3.065  17.751  0.00  0.00    +0.000 A 
ATOM     21  N   UNL     1       2.245   2.069  18.056  0.00  0.00    +0.000 N 
ATOM     22  C   UNL     1       1.080   2.613  18.530  0.00  0.00    +0.000 A 
ATOM     23  C   UNL     1       1.236   3.980  18.537  0.00  0.00    +0.000 A 
ATOM     24  C   UNL     1       2.536   4.293  18.043  0.00  0.00    +0.000 A 
ATOM     25  H   UNL     1       2.420   1.082  17.927  0.00  0.00    +0.000 HD
ENDBRANCH  13  16
BRANCH   1  26
ATOM     26  O   UNL     1       2.305  13.199  19.207  0.00  0.00    +0.000 OA
BRANCH  26  28
ATOM     27  C   UNL     1       0.377  14.645  18.860  0.00  0.00    +0.000 C 
ATOM     28  C   UNL     1       1.887  14.593  19.097  0.00  0.00    +0.000 C 
ATOM     29  C   UNL     1       2.624  15.260  17.932  0.00  0.00    +0.000 C 
ATOM     30  C   UNL     1       2.149  15.379  20.409  0.00  0.00    +0.000 C 
ENDBRANCH  26  28
ENDBRANCH   1  26
TORSDOF 3
ENDMDL
MODEL 3
REMARK VINA RESULT:      -7.2      1.056      1.332
REMARK  Name = 
REMARK  6 active torsions:
REMARK  status: ('A' for Active; 'I' for Inactive)
REMARK    1  A    between atoms: C_1  and  C_2
REMARK    2  A    between atoms: C_2  and  C_3
REMARK    3  A    between atoms: C_2  and  C_4
REMARK    4  A    between atoms: C_2  and  O_5
REMARK    5  A    between atoms: O_5  and  C_6
REMARK    6  A    between atoms: N_18  and  C_19
REMARK                            x       y       z     vdW  Elec       q    Type
REMARK                         _______ _______ _______ _____ _____    ______ ____
ROOT
ATOM      1  C   UNL     1       1.973  13.018  20.452  0.00  0.00    +0.000 C 
ATOM      2  O   UNL     1       1.908  13.520  21.585  0.00  0.00    +0.000 OA
ATOM      3  N   UNL     1       1.185  11.934  20.131  0.00  0.00    +0.000 N 
ATOM      4  C   UNL     1       1.171  11.227  18.862  0.00  0.00    +0.000 C 
ATOM      5  C   UNL     1      -0.246  11.254  18.267  0.00  0.00    +0.000 C 
ATOM      6  C   UNL     1      -1.414  11.195  19.260  0.00  0.00    +0.000 C 
ATOM      7  C   UNL     1      -1.102  11.370  20.747  0.00  0.00    +0.000 C 
ATOM      8  C   UNL     1       0.368  11.285  21.147  0.00  0.00    +0.000 C 
ATOM      9  C   UNL     1       0.856   9.850  21.404  0.00  0.00    +0.000 C 
ATOM     10  N   UNL     1       1.205   9.051  20.220  0.00  0.00    +0.000 N 
ATOM     11  C   UNL     1       1.550   7.731  20.527  0.00  0.00    +0.000 C 
ATOM     12  O   UNL     1       1.469   7.334  21.697  0.00  0.00    +0.000 OA
ATOM     13  N   UNL     1       1.972   6.937  19.484  0.00  0.00    +0.000 N 
ATOM     14  C   UNL     1       1.710   9.780  19.043  0.00  0.00    +0.000 C 
ATOM     15  H   UNL     1       2.312   7.403  18.660  0.00  0.00    +0.000 HD
ENDROOT
BRANCH  13  16
ATOM     16  C   UNL     1       2.354   5.569  19.605  0.00  0.00    +0.000 A 
ATOM     17  C   UNL     1       1.483   4.584  20.098  0.00  0.00    +0.000 A 
ATOM     18  C   UNL     1       1.883   3.261  20.279  0.00  0.00    +0.000 A 
ATOM     19  C   UNL     1       3.177   2.860  19.957  0.00  0.00    +0.000 A 
ATOM     20  C   UNL     1       4.044   3.829  19.444  0.00  0.00    +0.000 A 
ATOM     21  N   UNL     1       5.361   3.704  19.062  0.00  0.00    +0.000 N 
ATOM     22  C   UNL     1       5.846   4.910  18.631  0.00  0.00    +0.000 A 
ATOM     23  C   UNL     1       4.823   5.826  18.730  0.00  0.00    +0.000 A 
ATOM     24  C   UNL     1       3.670   5.166  19.248  0.00  0.00    +0.000 A 
ATOM     25  H   UNL     1       5.891   2.844  19.114  0.00  0.00    +0.000 HD
ENDBRANCH  13  16
BRANCH   1  26
ATOM     26  O   UNL     1       2.787  13.449  19.445  0.00  0.00    +0.000 OA
BRANCH  26  28
ATOM     27  C   UNL     1       3.304  15.758  20.019  0.00  0.00    +0.000 C 
ATOM     28  C   UNL     1       2.651  14.830  18.994  0.00  0.00    +0.000 C 
ATOM     29  C   UNL     1       1.167  15.177  18.843  0.00  0.00    +0.000 C 
ATOM     30  C   UNL     1       3.390  15.075  17.651  0.00  0.00    +0.000 C 
ENDBRANCH  26  28
ENDBRANCH   1  26
TORSDOF 3
ENDMDL
MODEL 4
REMARK VINA RESULT:      -7.0      2.340      8.246
REMARK  Name = 
REMARK  6 active torsions:
REMARK  status: ('A' for Active; 'I' for Inactive)
REMARK    1  A    between atoms: C_1  and  C_2
REMARK    2  A    between atoms: C_2  and  C_3
REMARK    3  A    between atoms: C_2  and  C_4
REMARK    4  A    between atoms: C_2  and  O_5
REMARK    5  A    between atoms: O_5  and  C_6
REMARK    6  A    between atoms: N_18  and  C_19
REMARK                            x       y       z     vdW  Elec       q    Type
REMARK                         _______ _______ _______ _____ _____    ______ ____
ROOT
ATOM      1  C   UNL     1       4.727   4.216  18.197  0.00  0.00    +0.000 C 
ATOM      2  O   UNL     1       4.717   3.601  17.119  0.00  0.00    +0.000 OA
ATOM      3  N   UNL     1       3.568   4.783  18.679  0.00  0.00    +0.000 N 
ATOM      4  C   UNL     1       3.432   5.551  19.905  0.00  0.00    +0.000 C 
ATOM      5  C   UNL     1       2.387   4.890  20.820  0.00  0.00    +0.000 C 
ATOM      6  C   UNL     1       1.197   4.212  20.132  0.00  0.00    +0.000 C 
ATOM      7  C   UNL     1       1.257   4.017  18.616  0.00  0.00    +0.000 C 
ATOM      8  C   UNL     1       2.353   4.781  17.877  0.00  0.00    +0.000 C 
ATOM      9  C   UNL     1       1.953   6.214  17.490  0.00  0.00    +0.000 C 
ATOM     10  N   UNL     1       2.053   7.233  18.545  0.00  0.00    +0.000 N 
ATOM     11  C   UNL     1       1.585   8.489  18.146  0.00  0.00    +0.000 C 
ATOM     12  O   UNL     1       1.081   8.626  17.023  0.00  0.00    +0.000 OA
ATOM     13  N   UNL     1       1.720   9.522  19.048  0.00  0.00    +0.000 N 
ATOM     14  C   UNL     1       3.082   7.030  19.580  0.00  0.00    +0.000 C 
ATOM     15  H   UNL     1       2.406   9.411  19.774  0.00  0.00    +0.000 HD
ENDROOT
BRANCH  13  16
ATOM     16  C   UNL     1       1.294  10.863  18.819  0.00  0.00    +0.000 A 
ATOM     17  C   UNL     1       2.200  11.920  18.636  0.00  0.00    +0.000 A 
ATOM     18  C   UNL     1       1.781  13.240  18.481  0.00  0.00    +0.000 A 
ATOM     19  C   UNL     1       0.425  13.560  18.488  0.00  0.00    +0.000 A 
ATOM     20  C   UNL     1      -0.485  12.511  18.648  0.00  0.00    +0.000 A 
ATOM     21  N   UNL     1      -1.860  12.553  18.702  0.00  0.00    +0.000 N 
ATOM     22  C   UNL     1      -2.364  11.292  18.887  0.00  0.00    +0.000 A 
ATOM     23  C   UNL     1      -1.298  10.425  18.946  0.00  0.00    +0.000 A 
ATOM     24  C   UNL     1      -0.094  11.174  18.802  0.00  0.00    +0.000 A 
ATOM     25  H   UNL     1      -2.409  13.399  18.633  0.00  0.00    +0.000 HD
ENDBRANCH  13  16
BRANCH   1  26
ATOM     26  O   UNL     1       5.824   4.401  18.988  0.00  0.00    +0.000 OA
BRANCH  26  28
ATOM     27  C   UNL     1       7.740   4.473  17.487  0.00  0.00    +0.000 C 
ATOM     28  C   UNL     1       6.895   5.259  18.491  0.00  0.00    +0.000 C 
ATOM     29  C   UNL     1       7.767   5.723  19.662  0.00  0.00    +0.000 C 
ATOM     30  C   UNL     1       6.340   6.489  17.725  0.00  0.00    +0.000 C 
ENDBRANCH  26  28
ENDBRANCH   1  26
TORSDOF 3
ENDMDL
MODEL 5
REMARK VINA RESULT:      -7.0      2.470      4.038
REMARK  Name = 
REMARK  6 active torsions:
REMARK  status: ('A' for Active; 'I' for Inactive)
REMARK    1  A    between atoms: C_1  and  C_2
REMARK    2  A    between atoms: C_2  and  C_3
REMARK    3  A    between atoms: C_2  and  C_4
REMARK    4  A    between atoms: C_2  and  O_5
REMARK    5  A    between atoms: O_5  and  C_6
REMARK    6  A    between atoms: N_18  and  C_19
REMARK                            x       y       z     vdW  Elec       q    Type
REMARK                         _______ _______ _______ _____ _____    ______ ____
ROOT
ATOM      1  C   UNL     1      -1.805  11.618  19.682  0.00  0.00    +0.000 C 
ATOM      2  O   UNL     1      -2.351  11.965  18.623  0.00  0.00    +0.000 OA
ATOM      3  N   UNL     1      -0.449  11.375  19.712  0.00  0.00    +0.000 N 
ATOM      4  C   UNL     1       0.321  10.940  20.864  0.00  0.00    +0.000 C 
ATOM      5  C   UNL     1       1.439  11.955  21.156  0.00  0.00    +0.000 C 
ATOM      6  C   UNL     1       2.079  12.646  19.946  0.00  0.00    +0.000 C 
ATOM      7  C   UNL     1       1.407  12.477  18.583  0.00  0.00    +0.000 C 
ATOM      8  C   UNL     1       0.334  11.395  18.484  0.00  0.00    +0.000 C 
ATOM      9  C   UNL     1       0.894   9.998  18.173  0.00  0.00    +0.000 C 
ATOM     10  N   UNL     1       1.451   9.244  19.306  0.00  0.00    +0.000 N 
ATOM     11  C   UNL     1       2.024   8.025  18.930  0.00  0.00    +0.000 C 
ATOM     12  O   UNL     1       2.084   7.721  17.731  0.00  0.00    +0.000 OA
ATOM     13  N   UNL     1       2.494   7.217  19.941  0.00  0.00    +0.000 N 
ATOM     14  C   UNL     1       0.871   9.504  20.635  0.00  0.00    +0.000 C 
ATOM     15  H   UNL     1       2.127   7.375  20.864  0.00  0.00    +0.000 HD
ENDROOT
BRANCH  13  16
ATOM     16  C   UNL     1       3.115   5.948  19.748  0.00  0.00    +0.000 A 
ATOM     17  C   UNL     1       4.420   5.816  19.245  0.00  0.00    +0.000 A 
ATOM     18  C   UNL     1       4.997   4.573  18.994  0.00  0.00    +0.000 A 
ATOM     19  C   UNL     1       4.295   3.398  19.251  0.00  0.00    +0.000 A 
ATOM     20  C   UNL     1       3.003   3.520  19.773  0.00  0.00    +0.000 A 
ATOM     21  N   UNL     1       2.101   2.533  20.101  0.00  0.00    +0.000 N 
ATOM     22  C   UNL     1       0.938   3.090  20.565  0.00  0.00    +0.000 A 
ATOM     23  C   UNL     1       1.098   4.457  20.543  0.00  0.00    +0.000 A 
ATOM     24  C   UNL     1       2.397   4.755  20.039  0.00  0.00    +0.000 A 
ATOM     25  H   UNL     1       2.273   1.543  19.993  0.00  0.00    +0.000 HD
ENDBRANCH  13  16
BRANCH   1  26
ATOM     26  O   UNL     1      -2.442  11.440  20.876  0.00  0.00    +0.000 OA
BRANCH  26  28
ATOM     27  C   UNL     1      -2.389  12.412  23.107  0.00  0.00    +0.000 C 
ATOM     28  C   UNL     1      -2.797  12.625  21.649  0.00  0.00    +0.000 C 
ATOM     29  C   UNL     1      -4.308  12.865  21.557  0.00  0.00    +0.000 C 
ATOM     30  C   UNL     1      -2.031  13.884  21.162  0.00  0.00    +0.000 C 
ENDBRANCH  26  28
ENDBRANCH   1  26
TORSDOF 3
ENDMDL
MODEL 6
REMARK VINA RESULT:      -6.9      2.338      8.256
REMARK  Name = 
REMARK  6 active torsions:
REMARK  status: ('A' for Active; 'I' for Inactive)
REMARK    1  A    between atoms: C_1  and  C_2
REMARK    2  A    between atoms: C_2  and  C_3
REMARK    3  A    between atoms: C_2  and  C_4
REMARK    4  A    between atoms: C_2  and  O_5
REMARK    5  A    between atoms: O_5  and  C_6
REMARK    6  A    between atoms: N_18  and  C_19
REMARK                            x       y       z     vdW  Elec       q    Type
REMARK                         _______ _______ _______ _____ _____    ______ ____
ROOT
ATOM      1  C   UNL     1       4.755   4.235  17.999  0.00  0.00    +0.000 C 
ATOM      2  O   UNL     1       4.759   3.826  16.827  0.00  0.00    +0.000 OA
ATOM      3  N   UNL     1       3.581   4.669  18.574  0.00  0.00    +0.000 N 
ATOM      4  C   UNL     1       3.426   5.195  19.920  0.00  0.00    +0.000 C 
ATOM      5  C   UNL     1       2.405   4.348  20.696  0.00  0.00    +0.000 C 
ATOM      6  C   UNL     1       1.232   3.772  19.893  0.00  0.00    +0.000 C 
ATOM      7  C   UNL     1       1.293   3.861  18.367  0.00  0.00    +0.000 C 
ATOM      8  C   UNL     1       2.364   4.778  17.782  0.00  0.00    +0.000 C 
ATOM      9  C   UNL     1       1.921   6.245  17.663  0.00  0.00    +0.000 C 
ATOM     10  N   UNL     1       1.994   7.057  18.887  0.00  0.00    +0.000 N 
ATOM     11  C   UNL     1       1.489   8.350  18.724  0.00  0.00    +0.000 C 
ATOM     12  O   UNL     1       0.978   8.676  17.643  0.00  0.00    +0.000 OA
ATOM     13  N   UNL     1       1.596   9.204  19.799  0.00  0.00    +0.000 N 
ATOM     14  C   UNL     1       3.032   6.699  19.870  0.00  0.00    +0.000 C 
ATOM     15  H   UNL     1       2.288   8.983  20.494  0.00  0.00    +0.000 HD
ENDROOT
BRANCH  13  16
ATOM     16  C   UNL     1       1.130  10.551  19.819  0.00  0.00    +0.000 A 
ATOM     17  C   UNL     1       1.491  11.488  18.836  0.00  0.00    +0.000 A 
ATOM     18  C   UNL     1       1.089  12.820  18.896  0.00  0.00    +0.000 A 
ATOM     19  C   UNL     1       0.291  13.276  19.943  0.00  0.00    +0.000 A 
ATOM     20  C   UNL     1      -0.091  12.345  20.914  0.00  0.00    +0.000 A 
ATOM     21  N   UNL     1      -0.856  12.531  22.044  0.00  0.00    +0.000 N 
ATOM     22  C   UNL     1      -0.974  11.353  22.734  0.00  0.00    +0.000 A 
ATOM     23  C   UNL     1      -0.279  10.393  22.035  0.00  0.00    +0.000 A 
ATOM     24  C   UNL     1       0.294  10.998  20.879  0.00  0.00    +0.000 A 
ATOM     25  H   UNL     1      -1.254  13.417  22.325  0.00  0.00    +0.000 HD
ENDBRANCH  13  16
BRANCH   1  26
ATOM     26  O   UNL     1       5.848   4.303  18.813  0.00  0.00    +0.000 OA
BRANCH  26  28
ATOM     27  C   UNL     1       7.841   4.495  17.427  0.00  0.00    +0.000 C 
ATOM     28  C   UNL     1       6.933   5.203  18.434  0.00  0.00    +0.000 C 
ATOM     29  C   UNL     1       7.735   5.594  19.679  0.00  0.00    +0.000 C 
ATOM     30  C   UNL     1       6.404   6.477  17.723  0.00  0.00    +0.000 C 
ENDBRANCH  26  28
ENDBRANCH   1  26
TORSDOF 3
ENDMDL
MODEL 7
REMARK VINA RESULT:      -6.9      2.781      4.214
REMARK  Name = 
REMARK  6 active torsions:
REMARK  status: ('A' for Active; 'I' for Inactive)
REMARK    1  A    between atoms: C_1  and  C_2
REMARK    2  A    between atoms: C_2  and  C_3
REMARK    3  A    between atoms: C_2  and  C_4
REMARK    4  A    between atoms: C_2  and  O_5
REMARK    5  A    between atoms: O_5  and  C_6
REMARK    6  A    between atoms: N_18  and  C_19
REMARK                            x       y       z     vdW  Elec       q    Type
REMARK                         _______ _______ _______ _____ _____    ______ ____
ROOT
ATOM      1  C   UNL     1      -2.488  12.434  20.888  0.00  0.00    +0.000 C 
ATOM      2  O   UNL     1      -3.476  12.654  20.170  0.00  0.00    +0.000 OA
ATOM      3  N   UNL     1      -1.232  12.357  20.329  0.00  0.00    +0.000 N 
ATOM      4  C   UNL     1       0.008  12.082  21.035  0.00  0.00    +0.000 C 
ATOM      5  C   UNL     1       0.998  13.237  20.817  0.00  0.00    +0.000 C 
ATOM      6  C   UNL     1       0.962  13.930  19.449  0.00  0.00    +0.000 C 
ATOM      7  C   UNL     1      -0.201  13.606  18.510  0.00  0.00    +0.000 C 
ATOM      8  C   UNL     1      -1.060  12.401  18.883  0.00  0.00    +0.000 C 
ATOM      9  C   UNL     1      -0.509  11.065  18.359  0.00  0.00    +0.000 C 
ATOM     10  N   UNL     1       0.573  10.447  19.140  0.00  0.00    +0.000 N 
ATOM     11  C   UNL     1       1.085   9.286  18.553  0.00  0.00    +0.000 C 
ATOM     12  O   UNL     1       0.665   8.924  17.445  0.00  0.00    +0.000 OA
ATOM     13  N   UNL     1       2.045   8.598  19.261  0.00  0.00    +0.000 N 
ATOM     14  C   UNL     1       0.590  10.710  20.590  0.00  0.00    +0.000 C 
ATOM     15  H   UNL     1       2.091   8.762  20.252  0.00  0.00    +0.000 HD
ENDROOT
BRANCH  13  16
ATOM     16  C   UNL     1       2.684   7.403  18.817  0.00  0.00    +0.000 A 
ATOM     17  C   UNL     1       3.537   7.374  17.702  0.00  0.00    +0.000 A 
ATOM     18  C   UNL     1       4.105   6.192  17.231  0.00  0.00    +0.000 A 
ATOM     19  C   UNL     1       3.855   4.980  17.870  0.00  0.00    +0.000 A 
ATOM     20  C   UNL     1       3.024   5.003  18.995  0.00  0.00    +0.000 A 
ATOM     21  N   UNL     1       2.611   3.959  19.793  0.00  0.00    +0.000 N 
ATOM     22  C   UNL     1       1.784   4.420  20.783  0.00  0.00    +0.000 A 
ATOM     23  C   UNL     1       1.668   5.782  20.624  0.00  0.00    +0.000 A 
ATOM     24  C   UNL     1       2.442   6.176  19.494  0.00  0.00    +0.000 A 
ATOM     25  H   UNL     1       2.871   2.993  19.649  0.00  0.00    +0.000 HD
ENDBRANCH  13  16
BRANCH   1  26
ATOM     26  O   UNL     1      -2.523  12.249  22.240  0.00  0.00    +0.000 OA
BRANCH  26  28
ATOM     27  C   UNL     1      -1.489  13.889  23.713  0.00  0.00    +0.000 C 
ATOM     28  C   UNL     1      -2.797  13.406  23.086  0.00  0.00    +0.000 C 
ATOM     29  C   UNL     1      -3.792  13.015  24.183  0.00  0.00    +0.000 C 
ATOM     30  C   UNL     1      -3.356  14.600  22.267  0.00  0.00    +0.000 C 
ENDBRANCH  26  28
ENDBRANCH   1  26
TORSDOF 3
ENDMDL
MODEL 8
REMARK VINA RESULT:      -6.9      1.556      1.819
REMARK  Name = 
REMARK  6 active torsions:
REMARK  status: ('A' for Active; 'I' for Inactive)
REMARK    1  A    between atoms: C_1  and  C_2
REMARK    2  A    between atoms: C_2  and  C_3
REMARK    3  A    between atoms: C_2  and  C_4
REMARK    4  A    between atoms: C_2  and  O_5
REMARK    5  A    between atoms: O_5  and  C_6
REMARK    6  A    between atoms: N_18  and  C_19
REMARK                            x       y       z     vdW  Elec       q    Type
REMARK                         _______ _______ _______ _____ _____    ______ ____
ROOT
ATOM      1  C   UNL     1       1.283  14.035  21.125  0.00  0.00    +0.000 C 
ATOM      2  O   UNL     1       1.085  14.399  22.295  0.00  0.00    +0.000 OA
ATOM      3  N   UNL     1       0.608  12.946  20.618  0.00  0.00    +0.000 N 
ATOM      4  C   UNL     1       0.754  12.390  19.284  0.00  0.00    +0.000 C 
ATOM      5  C   UNL     1      -0.606  12.394  18.567  0.00  0.00    +0.000 C 
ATOM      6  C   UNL     1      -1.846  12.148  19.435  0.00  0.00    +0.000 C 
ATOM      7  C   UNL     1      -1.676  12.171  20.954  0.00  0.00    +0.000 C 
ATOM      8  C   UNL     1      -0.242  12.135  21.478  0.00  0.00    +0.000 C 
ATOM      9  C   UNL     1       0.326  10.715  21.622  0.00  0.00    +0.000 C 
ATOM     10  N   UNL     1       0.833  10.080  20.396  0.00  0.00    +0.000 N 
ATOM     11  C   UNL     1       1.246   8.758  20.589  0.00  0.00    +0.000 C 
ATOM     12  O   UNL     1       1.096   8.225  21.697  0.00  0.00    +0.000 OA
ATOM     13  N   UNL     1       1.813   8.117  19.510  0.00  0.00    +0.000 N 
ATOM     14  C   UNL     1       1.380  10.969  19.357  0.00  0.00    +0.000 C 
ATOM     15  H   UNL     1       2.187   8.694  18.776  0.00  0.00    +0.000 HD
ENDROOT
BRANCH  13  16
ATOM     16  C   UNL     1       2.283   6.771  19.517  0.00  0.00    +0.000 A 
ATOM     17  C   UNL     1       1.839   5.822  20.453  0.00  0.00    +0.000 A 
ATOM     18  C   UNL     1       2.351   4.528  20.499  0.00  0.00    +0.000 A 
ATOM     19  C   UNL     1       3.328   4.117  19.595  0.00  0.00    +0.000 A 
ATOM     20  C   UNL     1       3.760   5.048  18.646  0.00  0.00    +0.000 A 
ATOM     21  N   UNL     1       4.710   4.907  17.658  0.00  0.00    +0.000 N 
ATOM     22  C   UNL     1       4.839   6.077  16.957  0.00  0.00    +0.000 A 
ATOM     23  C   UNL     1       3.954   6.982  17.496  0.00  0.00    +0.000 A 
ATOM     24  C   UNL     1       3.261   6.356  18.572  0.00  0.00    +0.000 A 
ATOM     25  H   UNL     1       5.243   4.064  17.495  0.00  0.00    +0.000 HD
ENDBRANCH  13  16
BRANCH   1  26
ATOM     26  O   UNL     1       2.146  14.629  20.251  0.00  0.00    +0.000 OA
BRANCH  26  28
ATOM     27  C   UNL     1       2.317  16.042  18.275  0.00  0.00    +0.000 C 
ATOM     28  C   UNL     1       1.782  15.932  19.704  0.00  0.00    +0.000 C 
ATOM     29  C   UNL     1       2.381  17.040  20.575  0.00  0.00    +0.000 C 
ATOM     30  C   UNL     1       0.243  16.108  19.608  0.00  0.00    +0.000 C 
ENDBRANCH  26  28
ENDBRANCH   1  26
TORSDOF 3
ENDMDL
MODEL 9
REMARK VINA RESULT:      -6.8      2.991      4.612
REMARK  Name = 
REMARK  6 active torsions:
REMARK  status: ('A' for Active; 'I' for Inactive)
REMARK    1  A    between atoms: C_1  and  C_2
REMARK    2  A    between atoms: C_2  and  C_3
REMARK    3  A    between atoms: C_2  and  C_4
REMARK    4  A    between atoms: C_2  and  O_5
REMARK    5  A    between atoms: O_5  and  C_6
REMARK    6  A    between atoms: N_18  and  C_19
REMARK                            x       y       z     vdW  Elec       q    Type
REMARK                         _______ _______ _______ _____ _____    ______ ____
ROOT
ATOM      1  C   UNL     1      -2.945  12.488  20.791  0.00  0.00    +0.000 C 
ATOM      2  O   UNL     1      -3.791  12.827  19.948  0.00  0.00    +0.000 OA
ATOM      3  N   UNL     1      -1.612  12.440  20.450  0.00  0.00    +0.000 N 
ATOM      4  C   UNL     1      -0.517  12.040  21.317  0.00  0.00    +0.000 C 
ATOM      5  C   UNL     1       0.509  13.180  21.419  0.00  0.00    +0.000 C 
ATOM      6  C   UNL     1       0.718  14.037  20.165  0.00  0.00    +0.000 C 
ATOM      7  C   UNL     1      -0.268  13.869  19.007  0.00  0.00    +0.000 C 
ATOM      8  C   UNL     1      -1.192  12.656  19.072  0.00  0.00    +0.000 C 
ATOM      9  C   UNL     1      -0.572  11.377  18.485  0.00  0.00    +0.000 C 
ATOM     10  N   UNL     1       0.351  10.633  19.354  0.00  0.00    +0.000 N 
ATOM     11  C   UNL     1       0.945   9.537  18.721  0.00  0.00    +0.000 C 
ATOM     12  O   UNL     1       0.719   9.328  17.521  0.00  0.00    +0.000 OA
ATOM     13  N   UNL     1       1.760   8.736  19.489  0.00  0.00    +0.000 N 
ATOM     14  C   UNL     1       0.119  10.715  20.807  0.00  0.00    +0.000 C 
ATOM     15  H   UNL     1       1.635   8.776  20.486  0.00  0.00    +0.000 HD
ENDROOT
BRANCH  13  16
ATOM     16  C   UNL     1       2.453   7.585  19.014  0.00  0.00    +0.000 A 
ATOM     17  C   UNL     1       3.305   7.626  17.897  0.00  0.00    +0.000 A 
ATOM     18  C   UNL     1       3.927   6.485  17.395  0.00  0.00    +0.000 A 
ATOM     19  C   UNL     1       3.735   5.245  18.001  0.00  0.00    +0.000 A 
ATOM     20  C   UNL     1       2.905   5.199  19.126  0.00  0.00    +0.000 A 
ATOM     21  N   UNL     1       2.543   4.116  19.896  0.00  0.00    +0.000 N 
ATOM     22  C   UNL     1       1.696   4.511  20.898  0.00  0.00    +0.000 A 
ATOM     23  C   UNL     1       1.516   5.870  20.776  0.00  0.00    +0.000 A 
ATOM     24  C   UNL     1       2.269   6.330  19.657  0.00  0.00    +0.000 A 
ATOM     25  H   UNL     1       2.847   3.167  19.726  0.00  0.00    +0.000 HD
ENDBRANCH  13  16
BRANCH   1  26
ATOM     26  O   UNL     1      -3.216  12.139  22.083  0.00  0.00    +0.000 OA
BRANCH  26  28
ATOM     27  C   UNL     1      -5.348  13.253  22.463  0.00  0.00    +0.000 C 
ATOM     28  C   UNL     1      -3.898  13.112  22.930  0.00  0.00    +0.000 C 
ATOM     29  C   UNL     1      -3.184  14.464  22.837  0.00  0.00    +0.000 C 
ATOM     30  C   UNL     1      -3.960  12.648  24.409  0.00  0.00    +0.000 C 
ENDBRANCH  26  28
ENDBRANCH   1  26
TORSDOF 3
ENDMDL
