MODEL 1
REMARK VINA RESULT:      -7.6      0.000      0.000
REMARK  Name = 
REMARK  11 active torsions:
REMARK  status: ('A' for Active; 'I' for Inactive)
REMARK    1  A    between atoms: C_1  and  C_2
REMARK    2  A    between atoms: C_2  and  O_3
REMARK    3  A    between atoms: O_3  and  C_4
REMARK    4  A    between atoms: C_9  and  C_10
REMARK    5  A    between atoms: C_10  and  N_11
REMARK    6  A    between atoms: C_12  and  C_14
REMARK    7  A    between atoms: C_14  and  N_15
REMARK    8  A    between atoms: C_16  and  C_17
REMARK    9  A    between atoms: C_24  and  C_25
REMARK   10  A    between atoms: C_25  and  C_26
REMARK   11  A    between atoms: C_28  and  C_29
REMARK                            x       y       z     vdW  Elec       q    Type
REMARK                         _______ _______ _______ _____ _____    ______ ____
ROOT
ATOM      1  C   UNL     1       2.421   6.415  17.657  0.00  0.00    +0.000 C 
ENDROOT
BRANCH   1   2
ATOM      2  N   UNL     1       3.683   5.720  17.917  0.00  0.00    +0.000 N 
ATOM      3  C   UNL     1       3.900   4.687  18.823  0.00  0.00    +0.000 A 
ATOM      4  C   UNL     1       5.281   4.558  18.916  0.00  0.00    +0.000 A 
ATOM      5  C   UNL     1       5.916   5.432  17.996  0.00  0.00    +0.000 A 
ATOM      6  C   UNL     1       4.883   6.056  17.300  0.00  0.00    +0.000 A 
ATOM      7  C   UNL     1       4.933   6.969  16.116  0.00  0.00    +0.000 C 
BRANCH   3   8
ATOM      8  C   UNL     1       2.873   3.955  19.597  0.00  0.00    +0.000 A 
ATOM      9  C   UNL     1       1.891   3.163  18.990  0.00  0.00    +0.000 A 
ATOM     10  C   UNL     1       0.887   2.544  19.740  0.00  0.00    +0.000 A 
ATOM     11  C   UNL     1       0.889   2.642  21.126  0.00  0.00    +0.000 A 
ATOM     12  C   UNL     1       1.902   3.352  21.761  0.00  0.00    +0.000 A 
ATOM     13  C   UNL     1       2.880   4.007  21.003  0.00  0.00    +0.000 A 
ENDBRANCH   3   8
BRANCH   5  14
ATOM     14  C   UNL     1       7.358   5.638  17.786  0.00  0.00    +0.000 C 
ATOM     15  C   UNL     1       8.020   6.888  18.312  0.00  0.00    +0.000 C 
ATOM     16  O   UNL     1       8.044   4.839  17.144  0.00  0.00    +0.000 OA
ENDBRANCH   5  14
ENDBRANCH   1   2
BRANCH   1  18
ATOM     17  N   UNL     1       1.687   8.717  17.958  0.00  0.00    +0.000 N 
ATOM     18  C   UNL     1       2.173   7.590  18.580  0.00  0.00    +0.000 C 
ATOM     19  O   UNL     1       2.336   7.505  19.795  0.00  0.00    +0.000 OA
ATOM     20  H   UNL     1       1.485   8.710  16.965  0.00  0.00    +0.000 HD
BRANCH  17  21
ATOM     21  C   UNL     1       1.443   9.957  18.655  0.00  0.00    +0.000 C 
BRANCH  21  27
ATOM     22  C   UNL     1      -0.575  11.302  19.527  0.00  0.00    +0.000 A 
ATOM     23  C   UNL     1      -1.910  11.702  19.371  0.00  0.00    +0.000 A 
ATOM     24  C   UNL     1      -2.700  11.167  18.354  0.00  0.00    +0.000 A 
ATOM     25  C   UNL     1      -2.153  10.253  17.464  0.00  0.00    +0.000 A 
ATOM     26  C   UNL     1      -0.806   9.906  17.567  0.00  0.00    +0.000 A 
ATOM     27  C   UNL     1       0.012  10.440  18.583  0.00  0.00    +0.000 A 
BRANCH  22  28
ATOM     28  O   UNL     1       0.207  11.713  20.579  0.00  0.00    +0.000 OA
BRANCH  28  30
ATOM     29  C   UNL     1      -0.101  10.119  22.335  0.00  0.00    +0.000 C 
ATOM     30  C   UNL     1      -0.378  11.537  21.874  0.00  0.00    +0.000 C 
ENDBRANCH  28  30
ENDBRANCH  22  28
ENDBRANCH  21  27
ENDBRANCH  17  21
ENDBRANCH   1  18
TORSDOF 8
ENDMDL
MODEL 2
REMARK VINA RESULT:      -7.5      0.289      1.003
REMARK  Name = 
REMARK  11 active torsions:
REMARK  status: ('A' for Active; 'I' for Inactive)
REMARK    1  A    between atoms: C_1  and  C_2
REMARK    2  A    between atoms: C_2  and  O_3
REMARK    3  A    between atoms: O_3  and  C_4
REMARK    4  A    between atoms: C_9  and  C_10
REMARK    5  A    between atoms: C_10  and  N_11
REMARK    6  A    between atoms: C_12  and  C_14
REMARK    7  A    between atoms: C_14  and  N_15
REMARK    8  A    between atoms: C_16  and  C_17
REMARK    9  A    between atoms: C_24  and  C_25
REMARK   10  A    between atoms: C_25  and  C_26
REMARK   11  A    between atoms: C_28  and  C_29
REMARK                            x       y       z     vdW  Elec       q    Type
REMARK                         _______ _______ _______ _____ _____    ______ ____
ROOT
ATOM      1  C   UNL     1       2.481   6.484  17.674  0.00  0.00    +0.000 C 
ENDROOT
BRANCH   1   2
ATOM      2  N   UNL     1       3.717   5.762  17.979  0.00  0.00    +0.000 N 
ATOM      3  C   UNL     1       3.883   4.735  18.905  0.00  0.00    +0.000 A 
ATOM      4  C   UNL     1       5.257   4.574  19.039  0.00  0.00    +0.000 A 
ATOM      5  C   UNL     1       5.939   5.419  18.126  0.00  0.00    +0.000 A 
ATOM      6  C   UNL     1       4.943   6.059  17.392  0.00  0.00    +0.000 A 
ATOM      7  C   UNL     1       5.049   6.954  16.199  0.00  0.00    +0.000 C 
BRANCH   3   8
ATOM      8  C   UNL     1       2.816   4.040  19.659  0.00  0.00    +0.000 A 
ATOM      9  C   UNL     1       2.753   4.046  21.057  0.00  0.00    +0.000 A 
ATOM     10  C   UNL     1       1.778   3.317  21.746  0.00  0.00    +0.000 A 
ATOM     11  C   UNL     1       0.798   2.626  21.046  0.00  0.00    +0.000 A 
ATOM     12  C   UNL     1       0.787   2.672  19.655  0.00  0.00    +0.000 A 
ATOM     13  C   UNL     1       1.791   3.367  18.970  0.00  0.00    +0.000 A 
ENDBRANCH   3   8
BRANCH   5  14
ATOM     14  C   UNL     1       7.391   5.586  17.955  0.00  0.00    +0.000 C 
ATOM     15  C   UNL     1       8.073   6.817  18.503  0.00  0.00    +0.000 C 
ATOM     16  O   UNL     1       8.073   4.771  17.329  0.00  0.00    +0.000 OA
ENDBRANCH   5  14
ENDBRANCH   1   2
BRANCH   1  18
ATOM     17  N   UNL     1       1.618   8.729  18.054  0.00  0.00    +0.000 N 
ATOM     18  C   UNL     1       2.187   7.618  18.633  0.00  0.00    +0.000 C 
ATOM     19  O   UNL     1       2.387   7.513  19.842  0.00  0.00    +0.000 OA
ATOM     20  H   UNL     1       1.391   8.734  17.067  0.00  0.00    +0.000 HD
BRANCH  17  21
ATOM     21  C   UNL     1       1.318   9.934  18.790  0.00  0.00    +0.000 C 
BRANCH  21  27
ATOM     22  C   UNL     1      -0.747  11.270  19.557  0.00  0.00    +0.000 A 
ATOM     23  C   UNL     1      -2.073  11.668  19.331  0.00  0.00    +0.000 A 
ATOM     24  C   UNL     1      -2.805  11.136  18.270  0.00  0.00    +0.000 A 
ATOM     25  C   UNL     1      -2.208  10.228  17.407  0.00  0.00    +0.000 A 
ATOM     26  C   UNL     1      -0.868   9.883  17.581  0.00  0.00    +0.000 A 
ATOM     27  C   UNL     1      -0.108  10.414  18.642  0.00  0.00    +0.000 A 
BRANCH  22  28
ATOM     28  O   UNL     1      -0.024  11.678  20.652  0.00  0.00    +0.000 OA
BRANCH  28  30
ATOM     29  C   UNL     1      -1.017  12.217  22.760  0.00  0.00    +0.000 C 
ATOM     30  C   UNL     1      -0.441  11.110  21.899  0.00  0.00    +0.000 C 
ENDBRANCH  28  30
ENDBRANCH  22  28
ENDBRANCH  21  27
ENDBRANCH  17  21
ENDBRANCH   1  18
TORSDOF 8
ENDMDL
MODEL 3
REMARK VINA RESULT:      -7.5      2.018      2.427
REMARK  Name = 
REMARK  11 active torsions:
REMARK  status: ('A' for Active; 'I' for Inactive)
REMARK    1  A    between atoms: C_1  and  C_2
REMARK    2  A    between atoms: C_2  and  O_3
REMARK    3  A    between atoms: O_3  and  C_4
REMARK    4  A    between atoms: C_9  and  C_10
REMARK    5  A    between atoms: C_10  and  N_11
REMARK    6  A    between atoms: C_12  and  C_14
REMARK    7  A    between atoms: C_14  and  N_15
REMARK    8  A    between atoms: C_16  and  C_17
REMARK    9  A    between atoms: C_24  and  C_25
REMARK   10  A    between atoms: C_25  and  C_26
REMARK   11  A    between atoms: C_28  and  C_29
REMARK                            x       y       z     vdW  Elec       q    Type
REMARK                         _______ _______ _______ _____ _____    ______ ____
ROOT
ATOM      1  C   UNL     1       4.112   6.623  18.855  0.00  0.00    +0.000 C 
ENDROOT
BRANCH   1   2
ATOM      2  N   UNL     1       4.162   5.612  17.798  0.00  0.00    +0.000 N 
ATOM      3  C   UNL     1       3.667   4.312  17.857  0.00  0.00    +0.000 A 
ATOM      4  C   UNL     1       4.194   3.663  16.746  0.00  0.00    +0.000 A 
ATOM      5  C   UNL     1       4.924   4.580  15.946  0.00  0.00    +0.000 A 
ATOM      6  C   UNL     1       4.780   5.817  16.569  0.00  0.00    +0.000 A 
ATOM      7  C   UNL     1       5.204   7.179  16.118  0.00  0.00    +0.000 C 
BRANCH   3   8
ATOM      8  C   UNL     1       2.839   3.725  18.934  0.00  0.00    +0.000 A 
ATOM      9  C   UNL     1       1.450   3.589  18.830  0.00  0.00    +0.000 A 
ATOM     10  C   UNL     1       0.683   3.102  19.893  0.00  0.00    +0.000 A 
ATOM     11  C   UNL     1       1.301   2.668  21.059  0.00  0.00    +0.000 A 
ATOM     12  C   UNL     1       2.689   2.713  21.157  0.00  0.00    +0.000 A 
ATOM     13  C   UNL     1       3.448   3.243  20.107  0.00  0.00    +0.000 A 
ENDBRANCH   3   8
BRANCH   5  14
ATOM     14  C   UNL     1       5.666   4.310  14.704  0.00  0.00    +0.000 C 
ATOM     15  C   UNL     1       7.147   4.594  14.639  0.00  0.00    +0.000 C 
ATOM     16  O   UNL     1       5.104   3.902  13.684  0.00  0.00    +0.000 OA
ENDBRANCH   5  14
ENDBRANCH   1   2
BRANCH   1  18
ATOM     17  N   UNL     1       2.522   8.290  18.066  0.00  0.00    +0.000 N 
ATOM     18  C   UNL     1       2.764   7.298  18.988  0.00  0.00    +0.000 C 
ATOM     19  O   UNL     1       1.935   6.932  19.819  0.00  0.00    +0.000 OA
ATOM     20  H   UNL     1       3.203   8.496  17.343  0.00  0.00    +0.000 HD
BRANCH  17  21
ATOM     21  C   UNL     1       1.321   9.090  18.065  0.00  0.00    +0.000 C 
BRANCH  21  27
ATOM     22  C   UNL     1       0.880  10.787  19.952  0.00  0.00    +0.000 A 
ATOM     23  C   UNL     1       1.085  12.066  20.491  0.00  0.00    +0.000 A 
ATOM     24  C   UNL     1       1.776  13.039  19.770  0.00  0.00    +0.000 A 
ATOM     25  C   UNL     1       2.297  12.733  18.520  0.00  0.00    +0.000 A 
ATOM     26  C   UNL     1       2.162  11.442  18.010  0.00  0.00    +0.000 A 
ATOM     27  C   UNL     1       1.473  10.441  18.724  0.00  0.00    +0.000 A 
BRANCH  22  28
ATOM     28  O   UNL     1       0.110   9.834  20.573  0.00  0.00    +0.000 OA
BRANCH  28  30
ATOM     29  C   UNL     1      -0.385   9.676  22.907  0.00  0.00    +0.000 C 
ATOM     30  C   UNL     1       0.624   9.357  21.821  0.00  0.00    +0.000 C 
ENDBRANCH  28  30
ENDBRANCH  22  28
ENDBRANCH  21  27
ENDBRANCH  17  21
ENDBRANCH   1  18
TORSDOF 8
ENDMDL
MODEL 4
REMARK VINA RESULT:      -7.5      1.742      2.717
REMARK  Name = 
REMARK  11 active torsions:
REMARK  status: ('A' for Active; 'I' for Inactive)
REMARK    1  A    between atoms: C_1  and  C_2
REMARK    2  A    between atoms: C_2  and  O_3
REMARK    3  A    between atoms: O_3  and  C_4
REMARK    4  A    between atoms: C_9  and  C_10
REMARK    5  A    between atoms: C_10  and  N_11
REMARK    6  A    between atoms: C_12  and  C_14
REMARK    7  A    between atoms: C_14  and  N_15
REMARK    8  A    between atoms: C_16  and  C_17
REMARK    9  A    between atoms: C_24  and  C_25
REMARK   10  A    between atoms: C_25  and  C_26
REMARK   11  A    between atoms: C_28  and  C_29
REMARK                            x       y       z     vdW  Elec       q    Type
REMARK                         _______ _______ _______ _____ _____    ______ ____
ROOT
ATOM      1  C   UNL     1       3.707   6.875  18.817  0.00  0.00    +0.000 C 
ENDROOT
BRANCH   1   2
ATOM      2  N   UNL     1       4.068   5.766  17.932  0.00  0.00    +0.000 N 
ATOM      3  C   UNL     1       3.779   4.417  18.117  0.00  0.00    +0.000 A 
ATOM      4  C   UNL     1       4.558   3.739  17.186  0.00  0.00    +0.000 A 
ATOM      5  C   UNL     1       5.245   4.664  16.358  0.00  0.00    +0.000 A 
ATOM      6  C   UNL     1       4.819   5.925  16.773  0.00  0.00    +0.000 A 
ATOM      7  C   UNL     1       5.087   7.274  16.185  0.00  0.00    +0.000 C 
BRANCH   3   8
ATOM      8  C   UNL     1       2.904   3.831  19.157  0.00  0.00    +0.000 A 
ATOM      9  C   UNL     1       3.396   3.365  20.382  0.00  0.00    +0.000 A 
ATOM     10  C   UNL     1       2.558   2.746  21.316  0.00  0.00    +0.000 A 
ATOM     11  C   UNL     1       1.194   2.649  21.073  0.00  0.00    +0.000 A 
ATOM     12  C   UNL     1       0.666   3.180  19.901  0.00  0.00    +0.000 A 
ATOM     13  C   UNL     1       1.515   3.758  18.950  0.00  0.00    +0.000 A 
ENDBRANCH   3   8
BRANCH   5  14
ATOM     14  C   UNL     1       6.193   4.379  15.270  0.00  0.00    +0.000 C 
ATOM     15  C   UNL     1       5.682   3.858  13.948  0.00  0.00    +0.000 C 
ATOM     16  O   UNL     1       7.411   4.503  15.417  0.00  0.00    +0.000 OA
ENDBRANCH   5  14
ENDBRANCH   1   2
BRANCH   1  18
ATOM     17  N   UNL     1       2.015   8.558  19.299  0.00  0.00    +0.000 N 
ATOM     18  C   UNL     1       2.378   7.516  18.477  0.00  0.00    +0.000 C 
ATOM     19  O   UNL     1       1.719   7.164  17.501  0.00  0.00    +0.000 OA
ATOM     20  H   UNL     1       2.635   8.870  20.038  0.00  0.00    +0.000 HD
BRANCH  17  21
ATOM     21  C   UNL     1       0.759   9.259  19.175  0.00  0.00    +0.000 C 
BRANCH  21  27
ATOM     22  C   UNL     1      -0.038  11.119  20.769  0.00  0.00    +0.000 A 
ATOM     23  C   UNL     1      -0.572  11.489  22.012  0.00  0.00    +0.000 A 
ATOM     24  C   UNL     1      -0.769  10.539  23.014  0.00  0.00    +0.000 A 
ATOM     25  C   UNL     1      -0.466   9.207  22.771  0.00  0.00    +0.000 A 
ATOM     26  C   UNL     1      -0.005   8.819  21.513  0.00  0.00    +0.000 A 
ATOM     27  C   UNL     1       0.195   9.761  20.484  0.00  0.00    +0.000 A 
BRANCH  22  28
ATOM     28  O   UNL     1       0.280  12.033  19.794  0.00  0.00    +0.000 OA
BRANCH  28  30
ATOM     29  C   UNL     1       2.272  12.708  18.657  0.00  0.00    +0.000 C 
ATOM     30  C   UNL     1       1.530  12.706  19.979  0.00  0.00    +0.000 C 
ENDBRANCH  28  30
ENDBRANCH  22  28
ENDBRANCH  21  27
ENDBRANCH  17  21
ENDBRANCH   1  18
TORSDOF 8
ENDMDL
MODEL 5
REMARK VINA RESULT:      -7.5      1.639      2.593
REMARK  Name = 
REMARK  11 active torsions:
REMARK  status: ('A' for Active; 'I' for Inactive)
REMARK    1  A    between atoms: C_1  and  C_2
REMARK    2  A    between atoms: C_2  and  O_3
REMARK    3  A    between atoms: O_3  and  C_4
REMARK    4  A    between atoms: C_9  and  C_10
REMARK    5  A    between atoms: C_10  and  N_11
REMARK    6  A    between atoms: C_12  and  C_14
REMARK    7  A    between atoms: C_14  and  N_15
REMARK    8  A    between atoms: C_16  and  C_17
REMARK    9  A    between atoms: C_24  and  C_25
REMARK   10  A    between atoms: C_25  and  C_26
REMARK   11  A    between atoms: C_28  and  C_29
REMARK                            x       y       z     vdW  Elec       q    Type
REMARK                         _______ _______ _______ _____ _____    ______ ____
ROOT
ATOM      1  C   UNL     1       3.713   6.780  18.786  0.00  0.00    +0.000 C 
ENDROOT
BRANCH   1   2
ATOM      2  N   UNL     1       4.067   5.691  17.875  0.00  0.00    +0.000 N 
ATOM      3  C   UNL     1       3.767   4.340  18.027  0.00  0.00    +0.000 A 
ATOM      4  C   UNL     1       4.543   3.679  17.081  0.00  0.00    +0.000 A 
ATOM      5  C   UNL     1       5.239   4.618  16.278  0.00  0.00    +0.000 A 
ATOM      6  C   UNL     1       4.823   5.871  16.722  0.00  0.00    +0.000 A 
ATOM      7  C   UNL     1       5.103   7.232  16.168  0.00  0.00    +0.000 C 
BRANCH   3   8
ATOM      8  C   UNL     1       2.885   3.736  19.050  0.00  0.00    +0.000 A 
ATOM      9  C   UNL     1       1.510   3.561  18.853  0.00  0.00    +0.000 A 
ATOM     10  C   UNL     1       0.687   3.058  19.866  0.00  0.00    +0.000 A 
ATOM     11  C   UNL     1       1.237   2.647  21.074  0.00  0.00    +0.000 A 
ATOM     12  C   UNL     1       2.613   2.730  21.264  0.00  0.00    +0.000 A 
ATOM     13  C   UNL     1       3.426   3.276  20.264  0.00  0.00    +0.000 A 
ENDBRANCH   3   8
BRANCH   5  14
ATOM     14  C   UNL     1       6.188   4.352  15.185  0.00  0.00    +0.000 C 
ATOM     15  C   UNL     1       5.685   3.792  13.876  0.00  0.00    +0.000 C 
ATOM     16  O   UNL     1       7.401   4.524  15.318  0.00  0.00    +0.000 OA
ENDBRANCH   5  14
ENDBRANCH   1   2
BRANCH   1  18
ATOM     17  N   UNL     1       2.149   8.615  19.129  0.00  0.00    +0.000 N 
ATOM     18  C   UNL     1       2.384   7.432  18.466  0.00  0.00    +0.000 C 
ATOM     19  O   UNL     1       1.616   6.963  17.629  0.00  0.00    +0.000 OA
ATOM     20  H   UNL     1       2.852   9.008  19.744  0.00  0.00    +0.000 HD
BRANCH  17  21
ATOM     21  C   UNL     1       0.917   9.357  19.004  0.00  0.00    +0.000 C 
BRANCH  21  27
ATOM     22  C   UNL     1       0.077  11.150  20.653  0.00  0.00    +0.000 A 
ATOM     23  C   UNL     1      -0.483  11.469  21.898  0.00  0.00    +0.000 A 
ATOM     24  C   UNL     1      -0.693  10.480  22.859  0.00  0.00    +0.000 A 
ATOM     25  C   UNL     1      -0.376   9.160  22.571  0.00  0.00    +0.000 A 
ATOM     26  C   UNL     1       0.112   8.823  21.309  0.00  0.00    +0.000 A 
ATOM     27  C   UNL     1       0.325   9.805  20.321  0.00  0.00    +0.000 A 
BRANCH  22  28
ATOM     28  O   UNL     1       0.407  12.102  19.720  0.00  0.00    +0.000 OA
BRANCH  28  30
ATOM     29  C   UNL     1      -0.457  14.291  19.297  0.00  0.00    +0.000 C 
ATOM     30  C   UNL     1      -0.703  12.803  19.149  0.00  0.00    +0.000 C 
ENDBRANCH  28  30
ENDBRANCH  22  28
ENDBRANCH  21  27
ENDBRANCH  17  21
ENDBRANCH   1  18
TORSDOF 8
ENDMDL
MODEL 6
REMARK VINA RESULT:      -7.5      1.508      2.562
REMARK  Name = 
REMARK  11 active torsions:
REMARK  status: ('A' for Active; 'I' for Inactive)
REMARK    1  A    between atoms: C_1  and  C_2
REMARK    2  A    between atoms: C_2  and  O_3
REMARK    3  A    between atoms: O_3  and  C_4
REMARK    4  A    between atoms: C_9  and  C_10
REMARK    5  A    between atoms: C_10  and  N_11
REMARK    6  A    between atoms: C_12  and  C_14
REMARK    7  A    between atoms: C_14  and  N_15
REMARK    8  A    between atoms: C_16  and  C_17
REMARK    9  A    between atoms: C_24  and  C_25
REMARK   10  A    between atoms: C_25  and  C_26
REMARK   11  A    between atoms: C_28  and  C_29
REMARK                            x       y       z     vdW  Elec       q    Type
REMARK                         _______ _______ _______ _____ _____    ______ ____
ROOT
ATOM      1  C   UNL     1       3.542   6.831  18.752  0.00  0.00    +0.000 C 
ENDROOT
BRANCH   1   2
ATOM      2  N   UNL     1       4.053   5.701  17.974  0.00  0.00    +0.000 N 
ATOM      3  C   UNL     1       3.853   4.347  18.232  0.00  0.00    +0.000 A 
ATOM      4  C   UNL     1       4.750   3.677  17.408  0.00  0.00    +0.000 A 
ATOM      5  C   UNL     1       5.427   4.599  16.569  0.00  0.00    +0.000 A 
ATOM      6  C   UNL     1       4.877   5.845  16.864  0.00  0.00    +0.000 A 
ATOM      7  C   UNL     1       5.086   7.171  16.204  0.00  0.00    +0.000 C 
BRANCH   3   8
ATOM      8  C   UNL     1       2.948   3.760  19.244  0.00  0.00    +0.000 A 
ATOM      9  C   UNL     1       1.559   3.704  19.074  0.00  0.00    +0.000 A 
ATOM     10  C   UNL     1       0.721   3.213  20.080  0.00  0.00    +0.000 A 
ATOM     11  C   UNL     1       1.262   2.697  21.250  0.00  0.00    +0.000 A 
ATOM     12  C   UNL     1       2.644   2.664  21.410  0.00  0.00    +0.000 A 
ATOM     13  C   UNL     1       3.476   3.197  20.420  0.00  0.00    +0.000 A 
ENDBRANCH   3   8
BRANCH   5  14
ATOM     14  C   UNL     1       6.475   4.322  15.574  0.00  0.00    +0.000 C 
ATOM     15  C   UNL     1       6.089   3.872  14.186  0.00  0.00    +0.000 C 
ATOM     16  O   UNL     1       7.674   4.397  15.852  0.00  0.00    +0.000 OA
ENDBRANCH   5  14
ENDBRANCH   1   2
BRANCH   1  18
ATOM     17  N   UNL     1       2.099   8.771  18.459  0.00  0.00    +0.000 N 
ATOM     18  C   UNL     1       2.272   7.432  18.188  0.00  0.00    +0.000 C 
ATOM     19  O   UNL     1       1.498   6.778  17.492  0.00  0.00    +0.000 OA
ATOM     20  H   UNL     1       2.810   9.288  18.963  0.00  0.00    +0.000 HD
BRANCH  17  21
ATOM     21  C   UNL     1       0.926   9.510  18.059  0.00  0.00    +0.000 C 
BRANCH  21  27
ATOM     22  C   UNL     1      -0.923  11.018  19.031  0.00  0.00    +0.000 A 
ATOM     23  C   UNL     1      -1.527  11.611  20.150  0.00  0.00    +0.000 A 
ATOM     24  C   UNL     1      -0.953  11.491  21.415  0.00  0.00    +0.000 A 
ATOM     25  C   UNL     1       0.210  10.750  21.579  0.00  0.00    +0.000 A 
ATOM     26  C   UNL     1       0.775  10.097  20.484  0.00  0.00    +0.000 A 
ATOM     27  C   UNL     1       0.208  10.199  19.198  0.00  0.00    +0.000 A 
BRANCH  22  28
ATOM     28  O   UNL     1      -1.387  11.203  17.751  0.00  0.00    +0.000 OA
BRANCH  28  30
ATOM     29  C   UNL     1      -2.608   9.984  16.096  0.00  0.00    +0.000 C 
ATOM     30  C   UNL     1      -2.661  10.610  17.476  0.00  0.00    +0.000 C 
ENDBRANCH  28  30
ENDBRANCH  22  28
ENDBRANCH  21  27
ENDBRANCH  17  21
ENDBRANCH   1  18
TORSDOF 8
ENDMDL
MODEL 7
REMARK VINA RESULT:      -7.4      1.809      2.499
REMARK  Name = 
REMARK  11 active torsions:
REMARK  status: ('A' for Active; 'I' for Inactive)
REMARK    1  A    between atoms: C_1  and  C_2
REMARK    2  A    between atoms: C_2  and  O_3
REMARK    3  A    between atoms: O_3  and  C_4
REMARK    4  A    between atoms: C_9  and  C_10
REMARK    5  A    between atoms: C_10  and  N_11
REMARK    6  A    between atoms: C_12  and  C_14
REMARK    7  A    between atoms: C_14  and  N_15
REMARK    8  A    between atoms: C_16  and  C_17
REMARK    9  A    between atoms: C_24  and  C_25
REMARK   10  A    between atoms: C_25  and  C_26
REMARK   11  A    between atoms: C_28  and  C_29
REMARK                            x       y       z     vdW  Elec       q    Type
REMARK                         _______ _______ _______ _____ _____    ______ ____
ROOT
ATOM      1  C   UNL     1       4.203   6.480  19.117  0.00  0.00    +0.000 C 
ENDROOT
BRANCH   1   2
ATOM      2  N   UNL     1       4.434   5.570  17.994  0.00  0.00    +0.000 N 
ATOM      3  C   UNL     1       3.902   4.295  17.824  0.00  0.00    +0.000 A 
ATOM      4  C   UNL     1       4.623   3.729  16.778  0.00  0.00    +0.000 A 
ATOM      5  C   UNL     1       5.523   4.681  16.234  0.00  0.00    +0.000 A 
ATOM      6  C   UNL     1       5.292   5.860  16.938  0.00  0.00    +0.000 A 
ATOM      7  C   UNL     1       5.835   7.236  16.718  0.00  0.00    +0.000 C 
BRANCH   3   8
ATOM      8  C   UNL     1       2.860   3.651  18.652  0.00  0.00    +0.000 A 
ATOM      9  C   UNL     1       3.061   3.323  19.999  0.00  0.00    +0.000 A 
ATOM     10  C   UNL     1       2.086   2.645  20.738  0.00  0.00    +0.000 A 
ATOM     11  C   UNL     1       0.857   2.347  20.164  0.00  0.00    +0.000 A 
ATOM     12  C   UNL     1       0.599   2.737  18.854  0.00  0.00    +0.000 A 
ATOM     13  C   UNL     1       1.594   3.375  18.104  0.00  0.00    +0.000 A 
ENDBRANCH   3   8
BRANCH   5  14
ATOM     14  C   UNL     1       6.490   4.493  15.140  0.00  0.00    +0.000 C 
ATOM     15  C   UNL     1       6.034   3.900  13.830  0.00  0.00    +0.000 C 
ATOM     16  O   UNL     1       7.687   4.761  15.275  0.00  0.00    +0.000 OA
ENDBRANCH   5  14
ENDBRANCH   1   2
BRANCH   1  18
ATOM     17  N   UNL     1       2.706   8.117  18.113  0.00  0.00    +0.000 N 
ATOM     18  C   UNL     1       2.847   7.153  19.085  0.00  0.00    +0.000 C 
ATOM     19  O   UNL     1       1.934   6.808  19.832  0.00  0.00    +0.000 OA
ATOM     20  H   UNL     1       3.460   8.304  17.462  0.00  0.00    +0.000 HD
BRANCH  17  21
ATOM     21  C   UNL     1       1.510   8.911  17.959  0.00  0.00    +0.000 C 
BRANCH  21  27
ATOM     22  C   UNL     1       0.955  10.648  19.779  0.00  0.00    +0.000 A 
ATOM     23  C   UNL     1       1.098  11.950  20.282  0.00  0.00    +0.000 A 
ATOM     24  C   UNL     1       1.774  12.926  19.550  0.00  0.00    +0.000 A 
ATOM     25  C   UNL     1       2.340  12.601  18.325  0.00  0.00    +0.000 A 
ATOM     26  C   UNL     1       2.267  11.291  17.853  0.00  0.00    +0.000 A 
ATOM     27  C   UNL     1       1.595  10.287  18.579  0.00  0.00    +0.000 A 
BRANCH  22  28
ATOM     28  O   UNL     1       0.203   9.687  20.409  0.00  0.00    +0.000 OA
BRANCH  28  30
ATOM     29  C   UNL     1       0.136   9.310  22.769  0.00  0.00    +0.000 C 
ATOM     30  C   UNL     1      -0.437  10.112  21.617  0.00  0.00    +0.000 C 
ENDBRANCH  28  30
ENDBRANCH  22  28
ENDBRANCH  21  27
ENDBRANCH  17  21
ENDBRANCH   1  18
TORSDOF 8
ENDMDL
MODEL 8
REMARK VINA RESULT:      -7.3      1.007      1.603
REMARK  Name = 
REMARK  11 active torsions:
REMARK  status: ('A' for Active; 'I' for Inactive)
REMARK    1  A    between atoms: C_1  and  C_2
REMARK    2  A    between atoms: C_2  and  O_3
REMARK    3  A    between atoms: O_3  and  C_4
REMARK    4  A    between atoms: C_9  and  C_10
REMARK    5  A    between atoms: C_10  and  N_11
REMARK    6  A    between atoms: C_12  and  C_14
REMARK    7  A    between atoms: C_14  and  N_15
REMARK    8  A    between atoms: C_16  and  C_17
REMARK    9  A    between atoms: C_24  and  C_25
REMARK   10  A    between atoms: C_25  and  C_26
REMARK   11  A    between atoms: C_28  and  C_29
REMARK                            x       y       z     vdW  Elec       q    Type
REMARK                         _______ _______ _______ _____ _____    ______ ____
ROOT
ATOM      1  C   UNL     1       2.310   6.452  17.718  0.00  0.00    +0.000 C 
ENDROOT
BRANCH   1   2
ATOM      2  N   UNL     1       3.608   5.809  17.926  0.00  0.00    +0.000 N 
ATOM      3  C   UNL     1       3.909   4.803  18.841  0.00  0.00    +0.000 A 
ATOM      4  C   UNL     1       5.297   4.726  18.864  0.00  0.00    +0.000 A 
ATOM      5  C   UNL     1       5.851   5.602  17.895  0.00  0.00    +0.000 A 
ATOM      6  C   UNL     1       4.762   6.173  17.241  0.00  0.00    +0.000 A 
ATOM      7  C   UNL     1       4.717   7.061  16.038  0.00  0.00    +0.000 C 
BRANCH   3   8
ATOM      8  C   UNL     1       2.951   4.052  19.682  0.00  0.00    +0.000 A 
ATOM      9  C   UNL     1       2.802   4.290  21.054  0.00  0.00    +0.000 A 
ATOM     10  C   UNL     1       1.944   3.513  21.839  0.00  0.00    +0.000 A 
ATOM     11  C   UNL     1       1.158   2.530  21.252  0.00  0.00    +0.000 A 
ATOM     12  C   UNL     1       1.223   2.330  19.877  0.00  0.00    +0.000 A 
ATOM     13  C   UNL     1       2.116   3.079  19.102  0.00  0.00    +0.000 A 
ENDBRANCH   3   8
BRANCH   5  14
ATOM     14  C   UNL     1       7.272   5.855  17.607  0.00  0.00    +0.000 C 
ATOM     15  C   UNL     1       7.985   6.993  18.296  0.00  0.00    +0.000 C 
ATOM     16  O   UNL     1       7.896   5.193  16.774  0.00  0.00    +0.000 OA
ENDBRANCH   5  14
ENDBRANCH   1   2
BRANCH   1  18
ATOM     17  N   UNL     1       1.728   8.815  17.814  0.00  0.00    +0.000 N 
ATOM     18  C   UNL     1       2.117   7.710  18.538  0.00  0.00    +0.000 C 
ATOM     19  O   UNL     1       2.239   7.713  19.761  0.00  0.00    +0.000 OA
ATOM     20  H   UNL     1       1.554   8.741  16.818  0.00  0.00    +0.000 HD
BRANCH  17  21
ATOM     21  C   UNL     1       1.550  10.120  18.404  0.00  0.00    +0.000 C 
BRANCH  21  27
ATOM     22  C   UNL     1      -0.280  11.860  18.913  0.00  0.00    +0.000 A 
ATOM     23  C   UNL     1      -1.621  12.259  18.812  0.00  0.00    +0.000 A 
ATOM     24  C   UNL     1      -2.579  11.405  18.266  0.00  0.00    +0.000 A 
ATOM     25  C   UNL     1      -2.198  10.159  17.785  0.00  0.00    +0.000 A 
ATOM     26  C   UNL     1      -0.855   9.785  17.814  0.00  0.00    +0.000 A 
ATOM     27  C   UNL     1       0.130  10.635  18.356  0.00  0.00    +0.000 A 
BRANCH  22  28
ATOM     28  O   UNL     1       0.675  12.618  19.546  0.00  0.00    +0.000 OA
BRANCH  28  30
ATOM     29  C   UNL     1       1.155  14.873  18.910  0.00  0.00    +0.000 C 
ATOM     30  C   UNL     1       0.304  13.979  19.792  0.00  0.00    +0.000 C 
ENDBRANCH  28  30
ENDBRANCH  22  28
ENDBRANCH  21  27
ENDBRANCH  17  21
ENDBRANCH   1  18
TORSDOF 8
ENDMDL
MODEL 9
REMARK VINA RESULT:      -7.2      1.649      2.626
REMARK  Name = 
REMARK  11 active torsions:
REMARK  status: ('A' for Active; 'I' for Inactive)
REMARK    1  A    between atoms: C_1  and  C_2
REMARK    2  A    between atoms: C_2  and  O_3
REMARK    3  A    between atoms: O_3  and  C_4
REMARK    4  A    between atoms: C_9  and  C_10
REMARK    5  A    between atoms: C_10  and  N_11
REMARK    6  A    between atoms: C_12  and  C_14
REMARK    7  A    between atoms: C_14  and  N_15
REMARK    8  A    between atoms: C_16  and  C_17
REMARK    9  A    between atoms: C_24  and  C_25
REMARK   10  A    between atoms: C_25  and  C_26
REMARK   11  A    between atoms: C_28  and  C_29
REMARK                            x       y       z     vdW  Elec       q    Type
REMARK                         _______ _______ _______ _____ _____    ______ ____
ROOT
ATOM      1  C   UNL     1       4.091   6.630  19.010  0.00  0.00    +0.000 C 
ENDROOT
BRANCH   1   2
ATOM      2  N   UNL     1       4.344   5.643  17.959  0.00  0.00    +0.000 N 
ATOM      3  C   UNL     1       3.897   4.325  17.920  0.00  0.00    +0.000 A 
ATOM      4  C   UNL     1       4.615   3.720  16.896  0.00  0.00    +0.000 A 
ATOM      5  C   UNL     1       5.425   4.678  16.234  0.00  0.00    +0.000 A 
ATOM      6  C   UNL     1       5.138   5.896  16.845  0.00  0.00    +0.000 A 
ATOM      7  C   UNL     1       5.574   7.282  16.486  0.00  0.00    +0.000 C 
BRANCH   3   8
ATOM      8  C   UNL     1       2.935   3.687  18.846  0.00  0.00    +0.000 A 
ATOM      9  C   UNL     1       1.604   3.431  18.493  0.00  0.00    +0.000 A 
ATOM     10  C   UNL     1       0.696   2.897  19.413  0.00  0.00    +0.000 A 
ATOM     11  C   UNL     1       1.122   2.536  20.685  0.00  0.00    +0.000 A 
ATOM     12  C   UNL     1       2.459   2.701  21.034  0.00  0.00    +0.000 A 
ATOM     13  C   UNL     1       3.353   3.277  20.125  0.00  0.00    +0.000 A 
ENDBRANCH   3   8
BRANCH   5  14
ATOM     14  C   UNL     1       6.361   4.461  15.119  0.00  0.00    +0.000 C 
ATOM     15  C   UNL     1       5.862   3.858  13.828  0.00  0.00    +0.000 C 
ATOM     16  O   UNL     1       7.564   4.712  15.219  0.00  0.00    +0.000 OA
ENDBRANCH   5  14
ENDBRANCH   1   2
BRANCH   1  18
ATOM     17  N   UNL     1       2.328   7.933  17.950  0.00  0.00    +0.000 N 
ATOM     18  C   UNL     1       2.669   7.148  19.028  0.00  0.00    +0.000 C 
ATOM     19  O   UNL     1       1.874   6.830  19.910  0.00  0.00    +0.000 OA
ATOM     20  H   UNL     1       2.993   8.095  17.202  0.00  0.00    +0.000 HD
BRANCH  17  21
ATOM     21  C   UNL     1       1.040   8.569  17.814  0.00  0.00    +0.000 C 
BRANCH  21  27
ATOM     22  C   UNL     1      -0.132  10.747  18.536  0.00  0.00    +0.000 A 
ATOM     23  C   UNL     1      -0.043  12.106  18.869  0.00  0.00    +0.000 A 
ATOM     24  C   UNL     1       1.165  12.792  18.743  0.00  0.00    +0.000 A 
ATOM     25  C   UNL     1       2.300  12.118  18.315  0.00  0.00    +0.000 A 
ATOM     26  C   UNL     1       2.236  10.750  18.054  0.00  0.00    +0.000 A 
ATOM     27  C   UNL     1       1.028  10.035  18.181  0.00  0.00    +0.000 A 
BRANCH  22  28
ATOM     28  O   UNL     1      -1.321  10.058  18.535  0.00  0.00    +0.000 OA
BRANCH  28  30
ATOM     29  C   UNL     1      -3.539  10.341  17.687  0.00  0.00    +0.000 C 
ATOM     30  C   UNL     1      -2.079  10.159  17.324  0.00  0.00    +0.000 C 
ENDBRANCH  28  30
ENDBRANCH  22  28
ENDBRANCH  21  27
ENDBRANCH  17  21
ENDBRANCH   1  18
TORSDOF 8
ENDMDL
