MODEL 1
REMARK VINA RESULT:      -8.0      0.000      0.000
REMARK  Name = 
REMARK  7 active torsions:
REMARK  status: ('A' for Active; 'I' for Inactive)
REMARK    1  A    between atoms: C_1  and  O_2
REMARK    2  A    between atoms: O_2  and  C_3
REMARK    3  A    between atoms: C_6  and  C_7
REMARK    4  A    between atoms: C_7  and  N_8
REMARK    5  A    between atoms: N_8  and  C_9
REMARK    6  A    between atoms: C_23  and  O_24
REMARK    7  A    between atoms: O_24  and  C_25
REMARK                            x       y       z     vdW  Elec       q    Type
REMARK                         _______ _______ _______ _____ _____    ______ ____
ROOT
ATOM      1  C   UNL     1       1.767   7.943  20.262  0.00  0.00    +0.000 C 
ATOM      2  C   UNL     1       1.088   8.230  21.393  0.00  0.00    +0.000 C 
ATOM      3  C   UNL     1       0.219   9.410  21.579  0.00  0.00    +0.000 C 
ATOM      4  N   UNL     1      -0.381   9.715  22.670  0.00  0.00    +0.000 NA
ATOM      5  C   UNL     1      -1.073  11.027  22.787  0.00  0.00    +0.000 C 
ATOM      6  C   UNL     1      -1.437  11.815  21.496  0.00  0.00    +0.000 C 
ATOM      7  C   UNL     1      -0.652  11.381  20.321  0.00  0.00    +0.000 A 
ATOM      8  C   UNL     1      -0.493  11.843  19.031  0.00  0.00    +0.000 A 
ATOM      9  N   UNL     1       0.353  10.970  18.366  0.00  0.00    +0.000 N 
ATOM     10  C   UNL     1       0.735   9.976  19.230  0.00  0.00    +0.000 A 
ATOM     11  C   UNL     1       0.114  10.228  20.422  0.00  0.00    +0.000 A 
ATOM     12  C   UNL     1       1.589   8.841  19.023  0.00  0.00    +0.000 C 
ATOM     13  O   UNL     1       2.136   8.564  17.957  0.00  0.00    +0.000 OA
ATOM     14  H   UNL     1       0.645  11.040  17.398  0.00  0.00    +0.000 HD
ENDROOT
BRANCH   1  15
ATOM     15  N   UNL     1       2.641   6.862  20.144  0.00  0.00    +0.000 N 
ATOM     16  H   UNL     1       3.610   7.167  20.015  0.00  0.00    +0.000 HD
BRANCH  15  17
ATOM     17  C   UNL     1       2.280   5.660  19.426  0.00  0.00    +0.000 C 
BRANCH  17  21
ATOM     18  C   UNL     1       5.741   4.392  17.239  0.00  0.00    +0.000 A 
ATOM     19  C   UNL     1       4.456   4.134  16.731  0.00  0.00    +0.000 A 
ATOM     20  C   UNL     1       3.318   4.489  17.448  0.00  0.00    +0.000 A 
ATOM     21  C   UNL     1       3.451   5.066  18.711  0.00  0.00    +0.000 A 
ATOM     22  C   UNL     1       4.723   5.200  19.268  0.00  0.00    +0.000 A 
ATOM     23  C   UNL     1       5.875   4.870  18.550  0.00  0.00    +0.000 A 
BRANCH  18  25
ATOM     24  C   UNL     1       6.800   4.759  15.164  0.00  0.00    +0.000 C 
ATOM     25  O   UNL     1       6.857   4.183  16.472  0.00  0.00    +0.000 OA
ENDBRANCH  18  25
BRANCH  23  26
ATOM     26  O   UNL     1       6.998   5.127  19.285  0.00  0.00    +0.000 OA
ATOM     27  C   UNL     1       7.836   6.203  18.913  0.00  0.00    +0.000 C 
ENDBRANCH  23  26
ENDBRANCH  17  21
ENDBRANCH  15  17
ENDBRANCH   1  15
TORSDOF 5
ENDMDL
MODEL 2
REMARK VINA RESULT:      -8.0      1.445      1.851
REMARK  Name = 
REMARK  7 active torsions:
REMARK  status: ('A' for Active; 'I' for Inactive)
REMARK    1  A    between atoms: C_1  and  O_2
REMARK    2  A    between atoms: O_2  and  C_3
REMARK    3  A    between atoms: C_6  and  C_7
REMARK    4  A    between atoms: C_7  and  N_8
REMARK    5  A    between atoms: N_8  and  C_9
REMARK    6  A    between atoms: C_23  and  O_24
REMARK    7  A    between atoms: O_24  and  C_25
REMARK                            x       y       z     vdW  Elec       q    Type
REMARK                         _______ _______ _______ _____ _____    ______ ____
ROOT
ATOM      1  C   UNL     1       2.382   6.730  19.495  0.00  0.00    +0.000 C 
ATOM      2  C   UNL     1       1.719   7.032  20.633  0.00  0.00    +0.000 C 
ATOM      3  C   UNL     1       1.088   8.336  20.920  0.00  0.00    +0.000 C 
ATOM      4  N   UNL     1       0.509   8.645  22.021  0.00  0.00    +0.000 NA
ATOM      5  C   UNL     1       0.080  10.049  22.258  0.00  0.00    +0.000 C 
ATOM      6  C   UNL     1      -0.066  11.017  21.049  0.00  0.00    +0.000 C 
ATOM      7  C   UNL     1       0.673  10.554  19.855  0.00  0.00    +0.000 A 
ATOM      8  C   UNL     1       0.978  11.100  18.626  0.00  0.00    +0.000 A 
ATOM      9  N   UNL     1       1.668  10.148  17.894  0.00  0.00    +0.000 N 
ATOM     10  C   UNL     1       1.811   9.018  18.658  0.00  0.00    +0.000 A 
ATOM     11  C   UNL     1       1.197   9.269  19.853  0.00  0.00    +0.000 A 
ATOM     12  C   UNL     1       2.437   7.763  18.354  0.00  0.00    +0.000 C 
ATOM     13  O   UNL     1       2.968   7.489  17.279  0.00  0.00    +0.000 OA
ATOM     14  H   UNL     1       2.011  10.254  16.946  0.00  0.00    +0.000 HD
ENDROOT
BRANCH   1  15
ATOM     15  N   UNL     1       3.034   5.515  19.286  0.00  0.00    +0.000 N 
ATOM     16  H   UNL     1       2.449   4.717  19.551  0.00  0.00    +0.000 HD
BRANCH  15  17
ATOM     17  C   UNL     1       4.446   5.348  19.549  0.00  0.00    +0.000 C 
BRANCH  17  21
ATOM     18  C   UNL     1       6.437   5.146  15.759  0.00  0.00    +0.000 A 
ATOM     19  C   UNL     1       5.500   4.160  16.114  0.00  0.00    +0.000 A 
ATOM     20  C   UNL     1       4.880   4.175  17.359  0.00  0.00    +0.000 A 
ATOM     21  C   UNL     1       5.228   5.154  18.290  0.00  0.00    +0.000 A 
ATOM     22  C   UNL     1       6.251   6.052  17.984  0.00  0.00    +0.000 A 
ATOM     23  C   UNL     1       6.865   6.063  16.730  0.00  0.00    +0.000 A 
BRANCH  18  25
ATOM     24  C   UNL     1       6.501   4.175  13.611  0.00  0.00    +0.000 C 
ATOM     25  O   UNL     1       6.933   5.222  14.484  0.00  0.00    +0.000 OA
ENDBRANCH  18  25
BRANCH  23  26
ATOM     26  O   UNL     1       7.803   7.054  16.654  0.00  0.00    +0.000 OA
ATOM     27  C   UNL     1       7.746   8.131  17.568  0.00  0.00    +0.000 C 
ENDBRANCH  23  26
ENDBRANCH  17  21
ENDBRANCH  15  17
ENDBRANCH   1  15
TORSDOF 5
ENDMDL
MODEL 3
REMARK VINA RESULT:      -7.9      1.105      1.125
REMARK  Name = 
REMARK  7 active torsions:
REMARK  status: ('A' for Active; 'I' for Inactive)
REMARK    1  A    between atoms: C_1  and  O_2
REMARK    2  A    between atoms: O_2  and  C_3
REMARK    3  A    between atoms: C_6  and  C_7
REMARK    4  A    between atoms: C_7  and  N_8
REMARK    5  A    between atoms: N_8  and  C_9
REMARK    6  A    between atoms: C_23  and  O_24
REMARK    7  A    between atoms: O_24  and  C_25
REMARK                            x       y       z     vdW  Elec       q    Type
REMARK                         _______ _______ _______ _____ _____    ______ ____
ROOT
ATOM      1  C   UNL     1       1.874   7.988  19.904  0.00  0.00    +0.000 C 
ATOM      2  C   UNL     1       1.238   8.121  21.088  0.00  0.00    +0.000 C 
ATOM      3  C   UNL     1       0.361   9.254  21.451  0.00  0.00    +0.000 C 
ATOM      4  N   UNL     1      -0.198   9.413  22.593  0.00  0.00    +0.000 NA
ATOM      5  C   UNL     1      -0.902  10.688  22.896  0.00  0.00    +0.000 C 
ATOM      6  C   UNL     1      -1.330  11.620  21.727  0.00  0.00    +0.000 C 
ATOM      7  C   UNL     1      -0.587  11.347  20.478  0.00  0.00    +0.000 A 
ATOM      8  C   UNL     1      -0.487  11.965  19.249  0.00  0.00    +0.000 A 
ATOM      9  N   UNL     1       0.343  11.196  18.449  0.00  0.00    +0.000 N 
ATOM     10  C   UNL     1       0.773  10.112  19.170  0.00  0.00    +0.000 A 
ATOM     11  C   UNL     1       0.198  10.205  20.407  0.00  0.00    +0.000 A 
ATOM     12  C   UNL     1       1.633   9.026  18.792  0.00  0.00    +0.000 C 
ATOM     13  O   UNL     1       2.140   8.891  17.680  0.00  0.00    +0.000 OA
ATOM     14  H   UNL     1       0.593  11.388  17.487  0.00  0.00    +0.000 HD
ENDROOT
BRANCH   1  15
ATOM     15  N   UNL     1       2.757   6.945  19.621  0.00  0.00    +0.000 N 
ATOM     16  H   UNL     1       3.730   7.265  19.596  0.00  0.00    +0.000 HD
BRANCH  15  17
ATOM     17  C   UNL     1       2.434   5.904  18.671  0.00  0.00    +0.000 C 
BRANCH  17  21
ATOM     18  C   UNL     1       5.730   4.672  16.225  0.00  0.00    +0.000 A 
ATOM     19  C   UNL     1       4.794   3.723  16.670  0.00  0.00    +0.000 A 
ATOM     20  C   UNL     1       3.746   4.091  17.507  0.00  0.00    +0.000 A 
ATOM     21  C   UNL     1       3.649   5.409  17.953  0.00  0.00    +0.000 A 
ATOM     22  C   UNL     1       4.652   6.318  17.615  0.00  0.00    +0.000 A 
ATOM     23  C   UNL     1       5.697   5.969  16.757  0.00  0.00    +0.000 A 
BRANCH  18  25
ATOM     24  C   UNL     1       6.140   4.043  13.989  0.00  0.00    +0.000 C 
ATOM     25  O   UNL     1       6.670   4.346  15.282  0.00  0.00    +0.000 OA
ENDBRANCH  18  25
BRANCH  23  26
ATOM     26  O   UNL     1       6.528   7.032  16.542  0.00  0.00    +0.000 OA
ATOM     27  C   UNL     1       7.480   7.377  17.529  0.00  0.00    +0.000 C 
ENDBRANCH  23  26
ENDBRANCH  17  21
ENDBRANCH  15  17
ENDBRANCH   1  15
TORSDOF 5
ENDMDL
MODEL 4
REMARK VINA RESULT:      -7.9      0.977      1.112
REMARK  Name = 
REMARK  7 active torsions:
REMARK  status: ('A' for Active; 'I' for Inactive)
REMARK    1  A    between atoms: C_1  and  O_2
REMARK    2  A    between atoms: O_2  and  C_3
REMARK    3  A    between atoms: C_6  and  C_7
REMARK    4  A    between atoms: C_7  and  N_8
REMARK    5  A    between atoms: N_8  and  C_9
REMARK    6  A    between atoms: C_23  and  O_24
REMARK    7  A    between atoms: O_24  and  C_25
REMARK                            x       y       z     vdW  Elec       q    Type
REMARK                         _______ _______ _______ _____ _____    ______ ____
ROOT
ATOM      1  C   UNL     1       1.411   8.366  20.686  0.00  0.00    +0.000 C 
ATOM      2  C   UNL     1       0.795   8.816  21.801  0.00  0.00    +0.000 C 
ATOM      3  C   UNL     1      -0.015  10.049  21.878  0.00  0.00    +0.000 C 
ATOM      4  N   UNL     1      -0.552  10.509  22.946  0.00  0.00    +0.000 NA
ATOM      5  C   UNL     1      -1.183  11.857  22.931  0.00  0.00    +0.000 C 
ATOM      6  C   UNL     1      -1.572  12.502  21.570  0.00  0.00    +0.000 C 
ATOM      7  C   UNL     1      -0.859  11.895  20.426  0.00  0.00    +0.000 A 
ATOM      8  C   UNL     1      -0.739  12.193  19.085  0.00  0.00    +0.000 A 
ATOM      9  N   UNL     1       0.040  11.209  18.496  0.00  0.00    +0.000 N 
ATOM     10  C   UNL     1       0.419  10.308  19.458  0.00  0.00    +0.000 A 
ATOM     11  C   UNL     1      -0.137  10.728  20.635  0.00  0.00    +0.000 A 
ATOM     12  C   UNL     1       1.214   9.118  19.356  0.00  0.00    +0.000 C 
ATOM     13  O   UNL     1       1.702   8.691  18.311  0.00  0.00    +0.000 OA
ATOM     14  H   UNL     1       0.290  11.149  17.517  0.00  0.00    +0.000 HD
ENDROOT
BRANCH   1  15
ATOM     15  N   UNL     1       2.233   7.240  20.666  0.00  0.00    +0.000 N 
ATOM     16  H   UNL     1       3.105   7.412  20.156  0.00  0.00    +0.000 HD
BRANCH  15  17
ATOM     17  C   UNL     1       1.699   5.904  20.523  0.00  0.00    +0.000 C 
BRANCH  17  21
ATOM     18  C   UNL     1       4.127   3.971  17.567  0.00  0.00    +0.000 A 
ATOM     19  C   UNL     1       2.731   4.015  17.409  0.00  0.00    +0.000 A 
ATOM     20  C   UNL     1       1.919   4.591  18.380  0.00  0.00    +0.000 A 
ATOM     21  C   UNL     1       2.491   5.088  19.551  0.00  0.00    +0.000 A 
ATOM     22  C   UNL     1       3.860   4.925  19.763  0.00  0.00    +0.000 A 
ATOM     23  C   UNL     1       4.691   4.371  18.787  0.00  0.00    +0.000 A 
BRANCH  18  25
ATOM     24  C   UNL     1       5.378   4.578  15.662  0.00  0.00    +0.000 C 
ATOM     25  O   UNL     1       4.939   3.545  16.548  0.00  0.00    +0.000 OA
ENDBRANCH  18  25
BRANCH  23  26
ATOM     26  O   UNL     1       5.992   4.355  19.205  0.00  0.00    +0.000 OA
ATOM     27  C   UNL     1       6.783   5.516  19.047  0.00  0.00    +0.000 C 
ENDBRANCH  23  26
ENDBRANCH  17  21
ENDBRANCH  15  17
ENDBRANCH   1  15
TORSDOF 5
ENDMDL
MODEL 5
REMARK VINA RESULT:      -7.7      2.109      3.477
REMARK  Name = 
REMARK  7 active torsions:
REMARK  status: ('A' for Active; 'I' for Inactive)
REMARK    1  A    between atoms: C_1  and  O_2
REMARK    2  A    between atoms: O_2  and  C_3
REMARK    3  A    between atoms: C_6  and  C_7
REMARK    4  A    between atoms: C_7  and  N_8
REMARK    5  A    between atoms: N_8  and  C_9
REMARK    6  A    between atoms: C_23  and  O_24
REMARK    7  A    between atoms: O_24  and  C_25
REMARK                            x       y       z     vdW  Elec       q    Type
REMARK                         _______ _______ _______ _____ _____    ______ ____
ROOT
ATOM      1  C   UNL     1       2.813   5.759  18.704  0.00  0.00    +0.000 C 
ATOM      2  C   UNL     1       2.809   6.846  17.902  0.00  0.00    +0.000 C 
ATOM      3  C   UNL     1       2.235   8.158  18.264  0.00  0.00    +0.000 C 
ATOM      4  N   UNL     1       2.177   9.174  17.484  0.00  0.00    +0.000 NA
ATOM      5  C   UNL     1       1.407  10.377  17.900  0.00  0.00    +0.000 C 
ATOM      6  C   UNL     1       1.052  10.575  19.402  0.00  0.00    +0.000 C 
ATOM      7  C   UNL     1       1.133   9.320  20.178  0.00  0.00    +0.000 A 
ATOM      8  C   UNL     1       0.786   8.942  21.458  0.00  0.00    +0.000 A 
ATOM      9  N   UNL     1       1.157   7.618  21.629  0.00  0.00    +0.000 N 
ATOM     10  C   UNL     1       1.720   7.161  20.465  0.00  0.00    +0.000 A 
ATOM     11  C   UNL     1       1.708   8.205  19.583  0.00  0.00    +0.000 A 
ATOM     12  C   UNL     1       2.265   5.874  20.139  0.00  0.00    +0.000 C 
ATOM     13  O   UNL     1       2.324   4.923  20.915  0.00  0.00    +0.000 OA
ATOM     14  H   UNL     1       1.043   7.068  22.472  0.00  0.00    +0.000 HD
ENDROOT
BRANCH   1  15
ATOM     15  N   UNL     1       3.294   4.512  18.303  0.00  0.00    +0.000 N 
ATOM     16  H   UNL     1       2.582   3.782  18.395  0.00  0.00    +0.000 HD
BRANCH  15  17
ATOM     17  C   UNL     1       4.645   4.084  18.588  0.00  0.00    +0.000 C 
BRANCH  17  21
ATOM     18  C   UNL     1       6.954   5.029  15.103  0.00  0.00    +0.000 A 
ATOM     19  C   UNL     1       6.196   3.846  15.143  0.00  0.00    +0.000 A 
ATOM     20  C   UNL     1       5.481   3.493  16.282  0.00  0.00    +0.000 A 
ATOM     21  C   UNL     1       5.554   4.297  17.420  0.00  0.00    +0.000 A 
ATOM     22  C   UNL     1       6.410   5.399  17.421  0.00  0.00    +0.000 A 
ATOM     23  C   UNL     1       7.116   5.779  16.277  0.00  0.00    +0.000 A 
BRANCH  18  25
ATOM     24  C   UNL     1       7.289   4.617  12.806  0.00  0.00    +0.000 C 
ATOM     25  O   UNL     1       7.534   5.456  13.937  0.00  0.00    +0.000 OA
ENDBRANCH  18  25
BRANCH  23  26
ATOM     26  O   UNL     1       7.850   6.908  16.509  0.00  0.00    +0.000 OA
ATOM     27  C   UNL     1       7.552   7.707  17.636  0.00  0.00    +0.000 C 
ENDBRANCH  23  26
ENDBRANCH  17  21
ENDBRANCH  15  17
ENDBRANCH   1  15
TORSDOF 5
ENDMDL
MODEL 6
REMARK VINA RESULT:      -7.6      2.952      8.680
REMARK  Name = 
REMARK  7 active torsions:
REMARK  status: ('A' for Active; 'I' for Inactive)
REMARK    1  A    between atoms: C_1  and  O_2
REMARK    2  A    between atoms: O_2  and  C_3
REMARK    3  A    between atoms: C_6  and  C_7
REMARK    4  A    between atoms: C_7  and  N_8
REMARK    5  A    between atoms: N_8  and  C_9
REMARK    6  A    between atoms: C_23  and  O_24
REMARK    7  A    between atoms: O_24  and  C_25
REMARK                            x       y       z     vdW  Elec       q    Type
REMARK                         _______ _______ _______ _____ _____    ______ ____
ROOT
ATOM      1  C   UNL     1       2.309   7.797  18.890  0.00  0.00    +0.000 C 
ATOM      2  C   UNL     1       3.078   7.818  17.779  0.00  0.00    +0.000 C 
ATOM      3  C   UNL     1       4.009   6.743  17.378  0.00  0.00    +0.000 C 
ATOM      4  N   UNL     1       4.781   6.784  16.356  0.00  0.00    +0.000 NA
ATOM      5  C   UNL     1       5.807   5.723  16.166  0.00  0.00    +0.000 C 
ATOM      6  C   UNL     1       5.660   4.375  16.929  0.00  0.00    +0.000 C 
ATOM      7  C   UNL     1       4.763   4.476  18.099  0.00  0.00    +0.000 A 
ATOM      8  C   UNL     1       4.432   3.643  19.148  0.00  0.00    +0.000 A 
ATOM      9  N   UNL     1       3.477   4.285  19.919  0.00  0.00    +0.000 N 
ATOM     10  C   UNL     1       3.217   5.515  19.372  0.00  0.00    +0.000 A 
ATOM     11  C   UNL     1       4.001   5.626  18.257  0.00  0.00    +0.000 A 
ATOM     12  C   UNL     1       2.309   6.546  19.788  0.00  0.00    +0.000 C 
ATOM     13  O   UNL     1       1.565   6.469  20.764  0.00  0.00    +0.000 OA
ATOM     14  H   UNL     1       3.030   3.915  20.750  0.00  0.00    +0.000 HD
ENDROOT
BRANCH   1  15
ATOM     15  N   UNL     1       1.498   8.862  19.281  0.00  0.00    +0.000 N 
ATOM     16  H   UNL     1       0.724   8.554  19.877  0.00  0.00    +0.000 HD
BRANCH  15  17
ATOM     17  C   UNL     1       1.180   9.953  18.387  0.00  0.00    +0.000 C 
BRANCH  17  21
ATOM     18  C   UNL     1      -2.896  11.259  18.163  0.00  0.00    +0.000 A 
ATOM     19  C   UNL     1      -2.088  11.660  19.242  0.00  0.00    +0.000 A 
ATOM     20  C   UNL     1      -0.779  11.207  19.362  0.00  0.00    +0.000 A 
ATOM     21  C   UNL     1      -0.273  10.302  18.429  0.00  0.00    +0.000 A 
ATOM     22  C   UNL     1      -1.117   9.805  17.436  0.00  0.00    +0.000 A 
ATOM     23  C   UNL     1      -2.426  10.269  17.288  0.00  0.00    +0.000 A 
BRANCH  18  25
ATOM     24  C   UNL     1      -4.830  12.175  19.153  0.00  0.00    +0.000 C 
ATOM     25  O   UNL     1      -4.129  11.821  17.958  0.00  0.00    +0.000 OA
ENDBRANCH  18  25
BRANCH  23  26
ATOM     26  O   UNL     1      -3.040   9.669  16.224  0.00  0.00    +0.000 OA
ATOM     27  C   UNL     1      -2.980  10.285  14.953  0.00  0.00    +0.000 C 
ENDBRANCH  23  26
ENDBRANCH  17  21
ENDBRANCH  15  17
ENDBRANCH   1  15
TORSDOF 5
ENDMDL
MODEL 7
REMARK VINA RESULT:      -7.6      1.320      1.732
REMARK  Name = 
REMARK  7 active torsions:
REMARK  status: ('A' for Active; 'I' for Inactive)
REMARK    1  A    between atoms: C_1  and  O_2
REMARK    2  A    between atoms: O_2  and  C_3
REMARK    3  A    between atoms: C_6  and  C_7
REMARK    4  A    between atoms: C_7  and  N_8
REMARK    5  A    between atoms: N_8  and  C_9
REMARK    6  A    between atoms: C_23  and  O_24
REMARK    7  A    between atoms: O_24  and  C_25
REMARK                            x       y       z     vdW  Elec       q    Type
REMARK                         _______ _______ _______ _____ _____    ______ ____
ROOT
ATOM      1  C   UNL     1       1.240   8.637  20.724  0.00  0.00    +0.000 C 
ATOM      2  C   UNL     1       0.554   8.903  21.857  0.00  0.00    +0.000 C 
ATOM      3  C   UNL     1      -0.378  10.035  22.033  0.00  0.00    +0.000 C 
ATOM      4  N   UNL     1      -0.985  10.323  23.124  0.00  0.00    +0.000 NA
ATOM      5  C   UNL     1      -1.749  11.596  23.227  0.00  0.00    +0.000 C 
ATOM      6  C   UNL     1      -2.169  12.341  21.928  0.00  0.00    +0.000 C 
ATOM      7  C   UNL     1      -1.370  11.933  20.752  0.00  0.00    +0.000 A 
ATOM      8  C   UNL     1      -1.248  12.382  19.454  0.00  0.00    +0.000 A 
ATOM      9  N   UNL     1      -0.360  11.548  18.794  0.00  0.00    +0.000 N 
ATOM     10  C   UNL     1       0.085  10.592  19.670  0.00  0.00    +0.000 A 
ATOM     11  C   UNL     1      -0.539  10.827  20.864  0.00  0.00    +0.000 A 
ATOM     12  C   UNL     1       0.999   9.503  19.473  0.00  0.00    +0.000 C 
ATOM     13  O   UNL     1       1.552   9.240  18.407  0.00  0.00    +0.000 OA
ATOM     14  H   UNL     1      -0.082  11.618  17.823  0.00  0.00    +0.000 HD
ENDROOT
BRANCH   1  15
ATOM     15  N   UNL     1       2.172   7.605  20.615  0.00  0.00    +0.000 N 
ATOM     16  H   UNL     1       3.058   7.932  20.219  0.00  0.00    +0.000 HD
BRANCH  15  17
ATOM     17  C   UNL     1       1.790   6.265  20.229  0.00  0.00    +0.000 C 
BRANCH  17  21
ATOM     18  C   UNL     1       4.975   4.709  17.820  0.00  0.00    +0.000 A 
ATOM     19  C   UNL     1       4.161   5.744  17.325  0.00  0.00    +0.000 A 
ATOM     20  C   UNL     1       3.090   6.229  18.068  0.00  0.00    +0.000 A 
ATOM     21  C   UNL     1       2.786   5.649  19.299  0.00  0.00    +0.000 A 
ATOM     22  C   UNL     1       3.513   4.537  19.727  0.00  0.00    +0.000 A 
ATOM     23  C   UNL     1       4.605   4.055  19.003  0.00  0.00    +0.000 A 
BRANCH  18  25
ATOM     24  C   UNL     1       7.321   4.906  17.683  0.00  0.00    +0.000 C 
ATOM     25  O   UNL     1       6.118   4.335  17.162  0.00  0.00    +0.000 OA
ENDBRANCH  18  25
BRANCH  23  26
ATOM     26  O   UNL     1       5.181   2.991  19.640  0.00  0.00    +0.000 OA
ATOM     27  C   UNL     1       4.364   2.096  20.368  0.00  0.00    +0.000 C 
ENDBRANCH  23  26
ENDBRANCH  17  21
ENDBRANCH  15  17
ENDBRANCH   1  15
TORSDOF 5
ENDMDL
MODEL 8
REMARK VINA RESULT:      -7.4      1.338      1.980
REMARK  Name = 
REMARK  7 active torsions:
REMARK  status: ('A' for Active; 'I' for Inactive)
REMARK    1  A    between atoms: C_1  and  O_2
REMARK    2  A    between atoms: O_2  and  C_3
REMARK    3  A    between atoms: C_6  and  C_7
REMARK    4  A    between atoms: C_7  and  N_8
REMARK    5  A    between atoms: N_8  and  C_9
REMARK    6  A    between atoms: C_23  and  O_24
REMARK    7  A    between atoms: O_24  and  C_25
REMARK                            x       y       z     vdW  Elec       q    Type
REMARK                         _______ _______ _______ _____ _____    ______ ____
ROOT
ATOM      1  C   UNL     1       1.387   8.621  20.321  0.00  0.00    +0.000 C 
ATOM      2  C   UNL     1       0.754   8.871  21.487  0.00  0.00    +0.000 C 
ATOM      3  C   UNL     1      -0.199   9.977  21.710  0.00  0.00    +0.000 C 
ATOM      4  N   UNL     1      -0.757  10.251  22.831  0.00  0.00    +0.000 NA
ATOM      5  C   UNL     1      -1.550  11.502  22.971  0.00  0.00    +0.000 C 
ATOM      6  C   UNL     1      -2.057  12.232  21.694  0.00  0.00    +0.000 C 
ATOM      7  C   UNL     1      -1.310  11.843  20.479  0.00  0.00    +0.000 A 
ATOM      8  C   UNL     1      -1.268  12.291  19.176  0.00  0.00    +0.000 A 
ATOM      9  N   UNL     1      -0.392  11.481  18.472  0.00  0.00    +0.000 N 
ATOM     10  C   UNL     1       0.125  10.540  19.325  0.00  0.00    +0.000 A 
ATOM     11  C   UNL     1      -0.443  10.761  20.549  0.00  0.00    +0.000 A 
ATOM     12  C   UNL     1       1.058   9.477  19.082  0.00  0.00    +0.000 C 
ATOM     13  O   UNL     1       1.563   9.226  17.989  0.00  0.00    +0.000 OA
ATOM     14  H   UNL     1      -0.166  11.556  17.488  0.00  0.00    +0.000 HD
ENDROOT
BRANCH   1  15
ATOM     15  N   UNL     1       2.341   7.616  20.165  0.00  0.00    +0.000 N 
ATOM     16  H   UNL     1       3.214   7.976  19.767  0.00  0.00    +0.000 HD
BRANCH  15  17
ATOM     17  C   UNL     1       1.985   6.280  19.741  0.00  0.00    +0.000 C 
BRANCH  17  21
ATOM     18  C   UNL     1       4.797   4.807  16.862  0.00  0.00    +0.000 A 
ATOM     19  C   UNL     1       4.556   6.189  16.966  0.00  0.00    +0.000 A 
ATOM     20  C   UNL     1       3.611   6.685  17.857  0.00  0.00    +0.000 A 
ATOM     21  C   UNL     1       2.853   5.800  18.623  0.00  0.00    +0.000 A 
ATOM     22  C   UNL     1       3.001   4.427  18.422  0.00  0.00    +0.000 A 
ATOM     23  C   UNL     1       3.963   3.914  17.550  0.00  0.00    +0.000 A 
BRANCH  18  25
ATOM     24  C   UNL     1       7.128   4.505  16.673  0.00  0.00    +0.000 C 
ATOM     25  O   UNL     1       5.830   4.327  16.100  0.00  0.00    +0.000 OA
ENDBRANCH  18  25
BRANCH  23  26
ATOM     26  O   UNL     1       3.947   2.548  17.554  0.00  0.00    +0.000 OA
ATOM     27  C   UNL     1       2.828   1.871  18.091  0.00  0.00    +0.000 C 
ENDBRANCH  23  26
ENDBRANCH  17  21
ENDBRANCH  15  17
ENDBRANCH   1  15
TORSDOF 5
ENDMDL
MODEL 9
REMARK VINA RESULT:      -7.4      2.666      8.731
REMARK  Name = 
REMARK  7 active torsions:
REMARK  status: ('A' for Active; 'I' for Inactive)
REMARK    1  A    between atoms: C_1  and  O_2
REMARK    2  A    between atoms: O_2  and  C_3
REMARK    3  A    between atoms: C_6  and  C_7
REMARK    4  A    between atoms: C_7  and  N_8
REMARK    5  A    between atoms: N_8  and  C_9
REMARK    6  A    between atoms: C_23  and  O_24
REMARK    7  A    between atoms: O_24  and  C_25
REMARK                            x       y       z     vdW  Elec       q    Type
REMARK                         _______ _______ _______ _____ _____    ______ ____
ROOT
ATOM      1  C   UNL     1       2.496   6.832  19.404  0.00  0.00    +0.000 C 
ATOM      2  C   UNL     1       3.281   7.133  18.346  0.00  0.00    +0.000 C 
ATOM      3  C   UNL     1       3.993   6.140  17.516  0.00  0.00    +0.000 C 
ATOM      4  N   UNL     1       4.784   6.425  16.548  0.00  0.00    +0.000 NA
ATOM      5  C   UNL     1       5.586   5.346  15.912  0.00  0.00    +0.000 C 
ATOM      6  C   UNL     1       5.161   3.862  16.108  0.00  0.00    +0.000 C 
ATOM      7  C   UNL     1       4.272   3.672  17.274  0.00  0.00    +0.000 A 
ATOM      8  C   UNL     1       3.759   2.579  17.940  0.00  0.00    +0.000 A 
ATOM      9  N   UNL     1       2.929   3.043  18.948  0.00  0.00    +0.000 N 
ATOM     10  C   UNL     1       2.928   4.414  18.927  0.00  0.00    +0.000 A 
ATOM     11  C   UNL     1       3.746   4.794  17.900  0.00  0.00    +0.000 A 
ATOM     12  C   UNL     1       2.229   5.356  19.754  0.00  0.00    +0.000 C 
ATOM     13  O   UNL     1       1.460   5.052  20.664  0.00  0.00    +0.000 OA
ATOM     14  H   UNL     1       2.398   2.473  19.596  0.00  0.00    +0.000 HD
ENDROOT
BRANCH   1  15
ATOM     15  N   UNL     1       1.900   7.797  20.215  0.00  0.00    +0.000 N 
ATOM     16  H   UNL     1       1.373   7.375  20.986  0.00  0.00    +0.000 HD
BRANCH  15  17
ATOM     17  C   UNL     1       1.319   9.005  19.671  0.00  0.00    +0.000 C 
BRANCH  17  21
ATOM     18  C   UNL     1      -0.918  11.241  22.564  0.00  0.00    +0.000 A 
ATOM     19  C   UNL     1      -0.412   9.972  22.895  0.00  0.00    +0.000 A 
ATOM     20  C   UNL     1       0.272   9.206  21.957  0.00  0.00    +0.000 A 
ATOM     21  C   UNL     1       0.416   9.680  20.653  0.00  0.00    +0.000 A 
ATOM     22  C   UNL     1      -0.200  10.879  20.292  0.00  0.00    +0.000 A 
ATOM     23  C   UNL     1      -0.869  11.669  21.229  0.00  0.00    +0.000 A 
BRANCH  18  25
ATOM     24  C   UNL     1      -2.884  12.082  23.557  0.00  0.00    +0.000 C 
ATOM     25  O   UNL     1      -1.455  12.059  23.523  0.00  0.00    +0.000 OA
ENDBRANCH  18  25
BRANCH  23  26
ATOM     26  O   UNL     1      -1.349  12.810  20.651  0.00  0.00    +0.000 OA
ATOM     27  C   UNL     1      -0.916  13.163  19.353  0.00  0.00    +0.000 C 
ENDBRANCH  23  26
ENDBRANCH  17  21
ENDBRANCH  15  17
ENDBRANCH   1  15
TORSDOF 5
ENDMDL
