MODEL 1
REMARK VINA RESULT:      -7.4      0.000      0.000
REMARK  Name = 
REMARK  5 active torsions:
REMARK  status: ('A' for Active; 'I' for Inactive)
REMARK    1  A    between atoms: C_1  and  C_2
REMARK    2  A    between atoms: C_2  and  C_3
REMARK    3  A    between atoms: N_14  and  C_15
REMARK    4  A    between atoms: C_15  and  C_16
REMARK    5  A    between atoms: C_22  and  C_24
REMARK                            x       y       z     vdW  Elec       q    Type
REMARK                         _______ _______ _______ _____ _____    ______ ____
ROOT
ATOM      1  C   UNL     1      -0.050  14.248  18.889  0.00  0.00    +0.000 C 
ATOM      2  C   UNL     1      -0.533  12.941  19.519  0.00  0.00    +0.000 C 
ATOM      3  N   UNL     1      -1.292  12.173  18.563  0.00  0.00    +0.000 N 
ATOM      4  C   UNL     1      -0.901  10.855  18.514  0.00  0.00    +0.000 C 
ATOM      5  O   UNL     1      -1.577   9.976  18.012  0.00  0.00    +0.000 OA
ATOM      6  N   UNL     1       0.289  10.732  19.154  0.00  0.00    +0.000 N 
ATOM      7  C   UNL     1       0.642  11.931  19.706  0.00  0.00    +0.000 C 
ATOM      8  O   UNL     1       1.683  12.151  20.318  0.00  0.00    +0.000 OA
ATOM      9  H   UNL     1      -2.247  12.387  18.302  0.00  0.00    +0.000 HD
ENDROOT
BRANCH   2  10
ATOM     10  C   UNL     1      -1.251  13.194  20.860  0.00  0.00    +0.000 A 
ATOM     11  C   UNL     1      -2.518  12.587  21.042  0.00  0.00    +0.000 A 
ATOM     12  C   UNL     1      -3.264  12.754  22.214  0.00  0.00    +0.000 A 
ATOM     13  C   UNL     1      -2.764  13.543  23.238  0.00  0.00    +0.000 A 
ATOM     14 CL   UNL     1      -3.677  13.765  24.677  0.00  0.00    +0.000 Cl
ATOM     15  C   UNL     1      -1.520  14.146  23.106  0.00  0.00    +0.000 A 
ATOM     16  C   UNL     1      -0.760  13.962  21.941  0.00  0.00    +0.000 A 
ATOM     17 CL   UNL     1       0.802  14.704  21.983  0.00  0.00    +0.000 Cl
ENDBRANCH   2  10
BRANCH   6  18
ATOM     18  C   UNL     1       0.987   9.474  19.320  0.00  0.00    +0.000 C 
BRANCH  18  19
ATOM     19  C   UNL     1       1.971   9.239  18.173  0.00  0.00    +0.000 C 
ATOM     20  O   UNL     1       2.285  10.183  17.442  0.00  0.00    +0.000 OA
ATOM     21  N   UNL     1       2.571   8.000  18.027  0.00  0.00    +0.000 N 
ATOM     22  C   UNL     1       3.585   7.819  16.973  0.00  0.00    +0.000 C 
ATOM     23  C   UNL     1       4.799   7.024  17.483  0.00  0.00    +0.000 C 
ATOM     24  N   UNL     1       4.377   5.791  18.155  0.00  0.00    +0.000 N 
ATOM     25  C   UNL     1       5.054   4.599  17.888  0.00  0.00    +0.000 C 
ATOM     26  O   UNL     1       6.064   4.601  17.183  0.00  0.00    +0.000 OA
ATOM     27  C   UNL     1       3.398   6.008  19.230  0.00  0.00    +0.000 C 
ATOM     28  C   UNL     1       2.170   6.751  18.693  0.00  0.00    +0.000 C 
BRANCH  25  29
ATOM     29  C   UNL     1       4.555   3.361  18.463  0.00  0.00    +0.000 A 
ATOM     30  C   UNL     1       3.602   2.476  17.990  0.00  0.00    +0.000 A 
ATOM     31  C   UNL     1       3.504   1.432  18.939  0.00  0.00    +0.000 A 
ATOM     32  C   UNL     1       4.356   1.763  19.961  0.00  0.00    +0.000 A 
ATOM     33  O   UNL     1       4.972   2.943  19.702  0.00  0.00    +0.000 OA
ENDBRANCH  25  29
ENDBRANCH  18  19
ENDBRANCH   6  18
TORSDOF 4
ENDMDL
MODEL 2
REMARK VINA RESULT:      -7.4      4.268     10.485
REMARK  Name = 
REMARK  5 active torsions:
REMARK  status: ('A' for Active; 'I' for Inactive)
REMARK    1  A    between atoms: C_1  and  C_2
REMARK    2  A    between atoms: C_2  and  C_3
REMARK    3  A    between atoms: N_14  and  C_15
REMARK    4  A    between atoms: C_15  and  C_16
REMARK    5  A    between atoms: C_22  and  C_24
REMARK                            x       y       z     vdW  Elec       q    Type
REMARK                         _______ _______ _______ _____ _____    ______ ____
ROOT
ATOM      1  C   UNL     1       4.841   2.881  18.870  0.00  0.00    +0.000 C 
ATOM      2  C   UNL     1       4.395   4.101  18.063  0.00  0.00    +0.000 C 
ATOM      3  N   UNL     1       2.993   4.004  17.740  0.00  0.00    +0.000 N 
ATOM      4  C   UNL     1       2.307   5.166  18.010  0.00  0.00    +0.000 C 
ATOM      5  O   UNL     1       1.205   5.413  17.556  0.00  0.00    +0.000 OA
ATOM      6  N   UNL     1       3.086   5.958  18.789  0.00  0.00    +0.000 N 
ATOM      7  C   UNL     1       4.311   5.377  18.957  0.00  0.00    +0.000 C 
ATOM      8  O   UNL     1       5.224   5.831  19.641  0.00  0.00    +0.000 OA
ATOM      9  H   UNL     1       2.624   3.403  17.012  0.00  0.00    +0.000 HD
ENDROOT
BRANCH   2  10
ATOM     10  C   UNL     1       5.322   4.345  16.853  0.00  0.00    +0.000 A 
ATOM     11  C   UNL     1       4.724   4.346  15.569  0.00  0.00    +0.000 A 
ATOM     12  C   UNL     1       5.467   4.549  14.401  0.00  0.00    +0.000 A 
ATOM     13  C   UNL     1       6.836   4.747  14.485  0.00  0.00    +0.000 A 
ATOM     14 CL   UNL     1       7.761   4.985  13.056  0.00  0.00    +0.000 Cl
ATOM     15  C   UNL     1       7.460   4.766  15.725  0.00  0.00    +0.000 A 
ATOM     16  C   UNL     1       6.713   4.586  16.900  0.00  0.00    +0.000 A 
ATOM     17 CL   UNL     1       7.632   4.734  18.359  0.00  0.00    +0.000 Cl
ENDBRANCH   2  10
BRANCH   6  18
ATOM     18  C   UNL     1       2.693   7.274  19.247  0.00  0.00    +0.000 C 
BRANCH  18  19
ATOM     19  C   UNL     1       1.646   7.176  20.358  0.00  0.00    +0.000 C 
ATOM     20  O   UNL     1       1.514   6.115  20.974  0.00  0.00    +0.000 OA
ATOM     21  N   UNL     1       0.927   8.302  20.723  0.00  0.00    +0.000 N 
ATOM     22  C   UNL     1      -0.011   8.211  21.857  0.00  0.00    +0.000 C 
ATOM     23  C   UNL     1       0.096   9.435  22.782  0.00  0.00    +0.000 C 
ATOM     24  N   UNL     1       0.023  10.683  22.015  0.00  0.00    +0.000 N 
ATOM     25  C   UNL     1      -0.771  11.731  22.486  0.00  0.00    +0.000 C 
ATOM     26  O   UNL     1      -1.317  11.653  23.589  0.00  0.00    +0.000 OA
ATOM     27  C   UNL     1       1.000  10.763  20.919  0.00  0.00    +0.000 C 
ATOM     28  C   UNL     1       0.842   9.566  19.975  0.00  0.00    +0.000 C 
BRANCH  25  29
ATOM     29  C   UNL     1      -0.934  12.917  21.663  0.00  0.00    +0.000 A 
ATOM     30  C   UNL     1      -1.982  13.299  20.843  0.00  0.00    +0.000 A 
ATOM     31  C   UNL     1      -1.629  14.547  20.278  0.00  0.00    +0.000 A 
ATOM     32  C   UNL     1      -0.367  14.830  20.736  0.00  0.00    +0.000 A 
ATOM     33  O   UNL     1       0.078  13.837  21.546  0.00  0.00    +0.000 OA
ENDBRANCH  25  29
ENDBRANCH  18  19
ENDBRANCH   6  18
TORSDOF 4
ENDMDL
MODEL 3
REMARK VINA RESULT:      -7.4      3.925     10.202
REMARK  Name = 
REMARK  5 active torsions:
REMARK  status: ('A' for Active; 'I' for Inactive)
REMARK    1  A    between atoms: C_1  and  C_2
REMARK    2  A    between atoms: C_2  and  C_3
REMARK    3  A    between atoms: N_14  and  C_15
REMARK    4  A    between atoms: C_15  and  C_16
REMARK    5  A    between atoms: C_22  and  C_24
REMARK                            x       y       z     vdW  Elec       q    Type
REMARK                         _______ _______ _______ _____ _____    ______ ____
ROOT
ATOM      1  C   UNL     1       4.915   2.274  18.918  0.00  0.00    +0.000 C 
ATOM      2  C   UNL     1       4.315   3.498  18.224  0.00  0.00    +0.000 C 
ATOM      3  N   UNL     1       2.959   3.230  17.816  0.00  0.00    +0.000 N 
ATOM      4  C   UNL     1       2.091   4.236  18.172  0.00  0.00    +0.000 C 
ATOM      5  O   UNL     1       0.982   4.365  17.688  0.00  0.00    +0.000 OA
ATOM      6  N   UNL     1       2.707   5.041  19.074  0.00  0.00    +0.000 N 
ATOM      7  C   UNL     1       4.001   4.635  19.245  0.00  0.00    +0.000 C 
ATOM      8  O   UNL     1       4.805   5.140  20.023  0.00  0.00    +0.000 OA
ATOM      9  H   UNL     1       2.715   2.667  17.009  0.00  0.00    +0.000 HD
ENDROOT
BRANCH   2  10
ATOM     10  C   UNL     1       5.238   4.016  17.101  0.00  0.00    +0.000 A 
ATOM     11  C   UNL     1       4.737   3.964  15.776  0.00  0.00    +0.000 A 
ATOM     12  C   UNL     1       5.488   4.399  14.678  0.00  0.00    +0.000 A 
ATOM     13  C   UNL     1       6.769   4.890  14.874  0.00  0.00    +0.000 A 
ATOM     14 CL   UNL     1       7.704   5.415  13.532  0.00  0.00    +0.000 Cl
ATOM     15  C   UNL     1       7.292   4.970  16.157  0.00  0.00    +0.000 A 
ATOM     16  C   UNL     1       6.533   4.556  17.264  0.00  0.00    +0.000 A 
ATOM     17 CL   UNL     1       7.301   4.813  18.792  0.00  0.00    +0.000 Cl
ENDBRANCH   2  10
BRANCH   6  18
ATOM     18  C   UNL     1       2.097   6.222  19.649  0.00  0.00    +0.000 C 
BRANCH  18  19
ATOM     19  C   UNL     1       2.291   7.436  18.738  0.00  0.00    +0.000 C 
ATOM     20  O   UNL     1       2.890   7.299  17.667  0.00  0.00    +0.000 OA
ATOM     21  N   UNL     1       1.713   8.647  19.078  0.00  0.00    +0.000 N 
ATOM     22  C   UNL     1       1.833   9.780  18.143  0.00  0.00    +0.000 C 
ATOM     23  C   UNL     1       0.503  10.539  17.997  0.00  0.00    +0.000 C 
ATOM     24  N   UNL     1      -0.060  10.874  19.309  0.00  0.00    +0.000 N 
ATOM     25  C   UNL     1      -0.583  12.151  19.524  0.00  0.00    +0.000 C 
ATOM     26  O   UNL     1      -0.674  12.952  18.592  0.00  0.00    +0.000 OA
ATOM     27  C   UNL     1      -0.208   9.716  20.203  0.00  0.00    +0.000 C 
ATOM     28  C   UNL     1       1.137   9.005  20.383  0.00  0.00    +0.000 C 
BRANCH  25  29
ATOM     29  C   UNL     1      -1.028  12.515  20.859  0.00  0.00    +0.000 A 
ATOM     30  C   UNL     1      -0.307  12.979  21.946  0.00  0.00    +0.000 A 
ATOM     31  C   UNL     1      -1.232  13.183  22.995  0.00  0.00    +0.000 A 
ATOM     32  C   UNL     1      -2.452  12.782  22.514  0.00  0.00    +0.000 A 
ATOM     33  O   UNL     1      -2.336  12.343  21.235  0.00  0.00    +0.000 OA
ENDBRANCH  25  29
ENDBRANCH  18  19
ENDBRANCH   6  18
TORSDOF 4
ENDMDL
MODEL 4
REMARK VINA RESULT:      -7.2      2.314      3.291
REMARK  Name = 
REMARK  5 active torsions:
REMARK  status: ('A' for Active; 'I' for Inactive)
REMARK    1  A    between atoms: C_1  and  C_2
REMARK    2  A    between atoms: C_2  and  C_3
REMARK    3  A    between atoms: N_14  and  C_15
REMARK    4  A    between atoms: C_15  and  C_16
REMARK    5  A    between atoms: C_22  and  C_24
REMARK                            x       y       z     vdW  Elec       q    Type
REMARK                         _______ _______ _______ _____ _____    ______ ____
ROOT
ATOM      1  C   UNL     1      -3.704  12.560  20.955  0.00  0.00    +0.000 C 
ATOM      2  C   UNL     1      -2.404  12.756  21.737  0.00  0.00    +0.000 C 
ATOM      3  N   UNL     1      -2.105  11.580  22.516  0.00  0.00    +0.000 N 
ATOM      4  C   UNL     1      -0.800  11.171  22.373  0.00  0.00    +0.000 C 
ATOM      5  O   UNL     1      -0.254  10.399  23.141  0.00  0.00    +0.000 OA
ATOM      6  N   UNL     1      -0.260  11.807  21.304  0.00  0.00    +0.000 N 
ATOM      7  C   UNL     1      -1.160  12.702  20.798  0.00  0.00    +0.000 C 
ATOM      8  O   UNL     1      -0.981  13.404  19.808  0.00  0.00    +0.000 OA
ATOM      9  H   UNL     1      -2.577  11.344  23.381  0.00  0.00    +0.000 HD
ENDROOT
BRANCH   2  10
ATOM     10  C   UNL     1      -2.424  14.074  22.539  0.00  0.00    +0.000 A 
ATOM     11  C   UNL     1      -1.609  15.132  22.065  0.00  0.00    +0.000 A 
ATOM     12  C   UNL     1      -1.542  16.370  22.716  0.00  0.00    +0.000 A 
ATOM     13  C   UNL     1      -2.283  16.580  23.867  0.00  0.00    +0.000 A 
ATOM     14 CL   UNL     1      -2.199  18.092  24.681  0.00  0.00    +0.000 Cl
ATOM     15  C   UNL     1      -3.105  15.575  24.357  0.00  0.00    +0.000 A 
ATOM     16  C   UNL     1      -3.193  14.340  23.694  0.00  0.00    +0.000 A 
ATOM     17 CL   UNL     1      -4.333  13.238  24.386  0.00  0.00    +0.000 Cl
ENDBRANCH   2  10
BRANCH   6  18
ATOM     18  C   UNL     1       1.112  11.636  20.874  0.00  0.00    +0.000 C 
BRANCH  18  19
ATOM     19  C   UNL     1       1.173  11.027  19.471  0.00  0.00    +0.000 C 
ATOM     20  O   UNL     1       1.203  11.774  18.488  0.00  0.00    +0.000 OA
ATOM     21  N   UNL     1       1.289   9.656  19.324  0.00  0.00    +0.000 N 
ATOM     22  C   UNL     1       1.439   9.095  17.969  0.00  0.00    +0.000 C 
ATOM     23  C   UNL     1       2.515   7.997  17.925  0.00  0.00    +0.000 C 
ATOM     24  N   UNL     1       2.301   7.007  18.986  0.00  0.00    +0.000 N 
ATOM     25  C   UNL     1       2.419   5.647  18.687  0.00  0.00    +0.000 C 
ATOM     26  O   UNL     1       2.808   5.284  17.575  0.00  0.00    +0.000 OA
ATOM     27  C   UNL     1       2.199   7.592  20.330  0.00  0.00    +0.000 C 
ATOM     28  C   UNL     1       1.086   8.644  20.372  0.00  0.00    +0.000 C 
BRANCH  25  29
ATOM     29  C   UNL     1       2.089   4.670  19.711  0.00  0.00    +0.000 A 
ATOM     30  C   UNL     1       0.868   4.113  20.054  0.00  0.00    +0.000 A 
ATOM     31  C   UNL     1       1.112   3.211  21.116  0.00  0.00    +0.000 A 
ATOM     32  C   UNL     1       2.451   3.308  21.400  0.00  0.00    +0.000 A 
ATOM     33  O   UNL     1       3.046   4.211  20.581  0.00  0.00    +0.000 OA
ENDBRANCH  25  29
ENDBRANCH  18  19
ENDBRANCH   6  18
TORSDOF 4
ENDMDL
MODEL 5
REMARK VINA RESULT:      -7.1      1.156      1.223
REMARK  Name = 
REMARK  5 active torsions:
REMARK  status: ('A' for Active; 'I' for Inactive)
REMARK    1  A    between atoms: C_1  and  C_2
REMARK    2  A    between atoms: C_2  and  C_3
REMARK    3  A    between atoms: N_14  and  C_15
REMARK    4  A    between atoms: C_15  and  C_16
REMARK    5  A    between atoms: C_22  and  C_24
REMARK                            x       y       z     vdW  Elec       q    Type
REMARK                         _______ _______ _______ _____ _____    ______ ____
ROOT
ATOM      1  C   UNL     1       1.080  13.870  21.138  0.00  0.00    +0.000 C 
ATOM      2  C   UNL     1       0.078  12.766  20.797  0.00  0.00    +0.000 C 
ATOM      3  N   UNL     1      -0.287  12.832  19.404  0.00  0.00    +0.000 N 
ATOM      4  C   UNL     1      -0.227  11.606  18.783  0.00  0.00    +0.000 C 
ATOM      5  O   UNL     1      -0.760  11.371  17.714  0.00  0.00    +0.000 OA
ATOM      6  N   UNL     1       0.456  10.749  19.582  0.00  0.00    +0.000 N 
ATOM      7  C   UNL     1       0.763  11.365  20.763  0.00  0.00    +0.000 C 
ATOM      8  O   UNL     1       1.409  10.862  21.677  0.00  0.00    +0.000 OA
ATOM      9  H   UNL     1      -0.930  13.517  19.023  0.00  0.00    +0.000 HD
ENDROOT
BRANCH   2  10
ATOM     10  C   UNL     1      -1.113  12.765  21.778  0.00  0.00    +0.000 A 
ATOM     11  C   UNL     1      -1.277  11.620  22.597  0.00  0.00    +0.000 A 
ATOM     12  C   UNL     1      -2.325  11.506  23.517  0.00  0.00    +0.000 A 
ATOM     13  C   UNL     1      -3.248  12.534  23.637  0.00  0.00    +0.000 A 
ATOM     14 CL   UNL     1      -4.546  12.398  24.755  0.00  0.00    +0.000 Cl
ATOM     15  C   UNL     1      -3.116  13.678  22.863  0.00  0.00    +0.000 A 
ATOM     16  C   UNL     1      -2.052  13.806  21.955  0.00  0.00    +0.000 A 
ATOM     17 CL   UNL     1      -1.986  15.332  21.144  0.00  0.00    +0.000 Cl
ENDBRANCH   2  10
BRANCH   6  18
ATOM     18  C   UNL     1       0.690   9.357  19.256  0.00  0.00    +0.000 C 
BRANCH  18  19
ATOM     19  C   UNL     1       1.805   9.219  18.218  0.00  0.00    +0.000 C 
ATOM     20  O   UNL     1       2.157  10.211  17.572  0.00  0.00    +0.000 OA
ATOM     21  N   UNL     1       2.470   8.013  18.083  0.00  0.00    +0.000 N 
ATOM     22  C   UNL     1       3.603   7.925  17.143  0.00  0.00    +0.000 C 
ATOM     23  C   UNL     1       4.785   7.151  17.750  0.00  0.00    +0.000 C 
ATOM     24  N   UNL     1       4.345   5.870  18.311  0.00  0.00    +0.000 N 
ATOM     25  C   UNL     1       5.098   4.719  18.067  0.00  0.00    +0.000 C 
ATOM     26  O   UNL     1       6.180   4.796  17.481  0.00  0.00    +0.000 OA
ATOM     27  C   UNL     1       3.244   5.994  19.277  0.00  0.00    +0.000 C 
ATOM     28  C   UNL     1       2.052   6.717  18.640  0.00  0.00    +0.000 C 
BRANCH  25  29
ATOM     29  C   UNL     1       4.593   3.436  18.523  0.00  0.00    +0.000 A 
ATOM     30  C   UNL     1       3.691   2.568  17.930  0.00  0.00    +0.000 A 
ATOM     31  C   UNL     1       3.558   1.459  18.797  0.00  0.00    +0.000 A 
ATOM     32  C   UNL     1       4.336   1.734  19.893  0.00  0.00    +0.000 A 
ATOM     33  O   UNL     1       4.940   2.940  19.755  0.00  0.00    +0.000 OA
ENDBRANCH  25  29
ENDBRANCH  18  19
ENDBRANCH   6  18
TORSDOF 4
ENDMDL
MODEL 6
REMARK VINA RESULT:      -7.0      2.567      4.081
REMARK  Name = 
REMARK  5 active torsions:
REMARK  status: ('A' for Active; 'I' for Inactive)
REMARK    1  A    between atoms: C_1  and  C_2
REMARK    2  A    between atoms: C_2  and  C_3
REMARK    3  A    between atoms: N_14  and  C_15
REMARK    4  A    between atoms: C_15  and  C_16
REMARK    5  A    between atoms: C_22  and  C_24
REMARK                            x       y       z     vdW  Elec       q    Type
REMARK                         _______ _______ _______ _____ _____    ______ ____
ROOT
ATOM      1  C   UNL     1      -1.320  11.296  18.222  0.00  0.00    +0.000 C 
ATOM      2  C   UNL     1      -0.201  11.493  19.246  0.00  0.00    +0.000 C 
ATOM      3  N   UNL     1      -0.715  11.350  20.585  0.00  0.00    +0.000 N 
ATOM      4  C   UNL     1       0.063  10.524  21.364  0.00  0.00    +0.000 C 
ATOM      5  O   UNL     1      -0.007  10.491  22.579  0.00  0.00    +0.000 OA
ATOM      6  N   UNL     1       0.911   9.840  20.557  0.00  0.00    +0.000 N 
ATOM      7  C   UNL     1       0.771  10.273  19.268  0.00  0.00    +0.000 C 
ATOM      8  O   UNL     1       1.375   9.821  18.299  0.00  0.00    +0.000 OA
ATOM      9  H   UNL     1      -1.257  12.064  21.058  0.00  0.00    +0.000 HD
ENDROOT
BRANCH   2  10
ATOM     10  C   UNL     1       0.575  12.801  18.986  0.00  0.00    +0.000 A 
ATOM     11  C   UNL     1       1.845  12.690  18.369  0.00  0.00    +0.000 A 
ATOM     12  C   UNL     1       2.640  13.808  18.092  0.00  0.00    +0.000 A 
ATOM     13  C   UNL     1       2.188  15.072  18.435  0.00  0.00    +0.000 A 
ATOM     14 CL   UNL     1       3.161  16.451  18.112  0.00  0.00    +0.000 Cl
ATOM     15  C   UNL     1       0.943  15.227  19.030  0.00  0.00    +0.000 A 
ATOM     16  C   UNL     1       0.134  14.109  19.288  0.00  0.00    +0.000 A 
ATOM     17 CL   UNL     1      -1.421  14.491  19.944  0.00  0.00    +0.000 Cl
ENDBRANCH   2  10
BRANCH   6  18
ATOM     18  C   UNL     1       1.897   8.896  21.040  0.00  0.00    +0.000 C 
BRANCH  18  19
ATOM     19  C   UNL     1       1.397   7.458  20.887  0.00  0.00    +0.000 C 
ATOM     20  O   UNL     1       0.350   7.118  21.447  0.00  0.00    +0.000 OA
ATOM     21  N   UNL     1       2.069   6.584  20.049  0.00  0.00    +0.000 N 
ATOM     22  C   UNL     1       1.520   5.232  19.843  0.00  0.00    +0.000 C 
ATOM     23  C   UNL     1       1.574   4.817  18.363  0.00  0.00    +0.000 C 
ATOM     24  N   UNL     1       2.911   5.036  17.802  0.00  0.00    +0.000 N 
ATOM     25  C   UNL     1       3.485   4.051  16.996  0.00  0.00    +0.000 C 
ATOM     26  O   UNL     1       2.834   3.057  16.666  0.00  0.00    +0.000 OA
ATOM     27  C   UNL     1       3.413   6.405  17.985  0.00  0.00    +0.000 C 
ATOM     28  C   UNL     1       3.407   6.783  19.470  0.00  0.00    +0.000 C 
BRANCH  25  29
ATOM     29  C   UNL     1       4.856   4.221  16.543  0.00  0.00    +0.000 A 
ATOM     30  C   UNL     1       5.369   4.310  15.261  0.00  0.00    +0.000 A 
ATOM     31  C   UNL     1       6.768   4.478  15.389  0.00  0.00    +0.000 A 
ATOM     32  C   UNL     1       7.038   4.426  16.733  0.00  0.00    +0.000 A 
ATOM     33  O   UNL     1       5.895   4.237  17.439  0.00  0.00    +0.000 OA
ENDBRANCH  25  29
ENDBRANCH  18  19
ENDBRANCH   6  18
TORSDOF 4
ENDMDL
MODEL 7
REMARK VINA RESULT:      -7.0      1.645      2.321
REMARK  Name = 
REMARK  5 active torsions:
REMARK  status: ('A' for Active; 'I' for Inactive)
REMARK    1  A    between atoms: C_1  and  C_2
REMARK    2  A    between atoms: C_2  and  C_3
REMARK    3  A    between atoms: N_14  and  C_15
REMARK    4  A    between atoms: C_15  and  C_16
REMARK    5  A    between atoms: C_22  and  C_24
REMARK                            x       y       z     vdW  Elec       q    Type
REMARK                         _______ _______ _______ _____ _____    ______ ____
ROOT
ATOM      1  C   UNL     1      -0.683  14.977  19.326  0.00  0.00    +0.000 C 
ATOM      2  C   UNL     1      -1.099  13.523  19.559  0.00  0.00    +0.000 C 
ATOM      3  N   UNL     1      -1.893  13.045  18.455  0.00  0.00    +0.000 N 
ATOM      4  C   UNL     1      -1.475  11.817  17.997  0.00  0.00    +0.000 C 
ATOM      5  O   UNL     1      -2.158  11.101  17.287  0.00  0.00    +0.000 OA
ATOM      6  N   UNL     1      -0.249  11.556  18.513  0.00  0.00    +0.000 N 
ATOM      7  C   UNL     1       0.107  12.550  19.381  0.00  0.00    +0.000 C 
ATOM      8  O   UNL     1       1.176  12.619  19.980  0.00  0.00    +0.000 OA
ATOM      9  H   UNL     1      -2.867  13.289  18.315  0.00  0.00    +0.000 HD
ENDROOT
BRANCH   2  10
ATOM     10  C   UNL     1      -1.746  13.339  20.948  0.00  0.00    +0.000 A 
ATOM     11  C   UNL     1      -2.990  12.663  20.999  0.00  0.00    +0.000 A 
ATOM     12  C   UNL     1      -3.671  12.445  22.202  0.00  0.00    +0.000 A 
ATOM     13  C   UNL     1      -3.130  12.909  23.390  0.00  0.00    +0.000 A 
ATOM     14 CL   UNL     1      -3.964  12.658  24.871  0.00  0.00    +0.000 Cl
ATOM     15  C   UNL     1      -1.906  13.565  23.386  0.00  0.00    +0.000 A 
ATOM     16  C   UNL     1      -1.209  13.764  22.184  0.00  0.00    +0.000 A 
ATOM     17 CL   UNL     1       0.339  14.512  22.373  0.00  0.00    +0.000 Cl
ENDBRANCH   2  10
BRANCH   6  18
ATOM     18  C   UNL     1       0.487  10.334  18.264  0.00  0.00    +0.000 C 
BRANCH  18  19
ATOM     19  C   UNL     1       0.573   9.479  19.530  0.00  0.00    +0.000 C 
ATOM     20  O   UNL     1      -0.238   9.665  20.442  0.00  0.00    +0.000 OA
ATOM     21  N   UNL     1       1.493   8.447  19.599  0.00  0.00    +0.000 N 
ATOM     22  C   UNL     1       1.499   7.577  20.788  0.00  0.00    +0.000 C 
ATOM     23  C   UNL     1       1.645   6.094  20.406  0.00  0.00    +0.000 C 
ATOM     24  N   UNL     1       2.770   5.895  19.487  0.00  0.00    +0.000 N 
ATOM     25  C   UNL     1       3.644   4.826  19.695  0.00  0.00    +0.000 C 
ATOM     26  O   UNL     1       3.412   3.993  20.574  0.00  0.00    +0.000 OA
ATOM     27  C   UNL     1       2.713   6.746  18.289  0.00  0.00    +0.000 C 
ATOM     28  C   UNL     1       2.625   8.223  18.687  0.00  0.00    +0.000 C 
BRANCH  25  29
ATOM     29  C   UNL     1       4.823   4.706  18.854  0.00  0.00    +0.000 A 
ATOM     30  C   UNL     1       6.103   5.202  19.033  0.00  0.00    +0.000 A 
ATOM     31  C   UNL     1       6.865   4.786  17.917  0.00  0.00    +0.000 A 
ATOM     32  C   UNL     1       6.000   4.110  17.094  0.00  0.00    +0.000 A 
ATOM     33  O   UNL     1       4.756   4.084  17.633  0.00  0.00    +0.000 OA
ENDBRANCH  25  29
ENDBRANCH  18  19
ENDBRANCH   6  18
TORSDOF 4
ENDMDL
MODEL 8
REMARK VINA RESULT:      -6.9      0.933      1.048
REMARK  Name = 
REMARK  5 active torsions:
REMARK  status: ('A' for Active; 'I' for Inactive)
REMARK    1  A    between atoms: C_1  and  C_2
REMARK    2  A    between atoms: C_2  and  C_3
REMARK    3  A    between atoms: N_14  and  C_15
REMARK    4  A    between atoms: C_15  and  C_16
REMARK    5  A    between atoms: C_22  and  C_24
REMARK                            x       y       z     vdW  Elec       q    Type
REMARK                         _______ _______ _______ _____ _____    ______ ____
ROOT
ATOM      1  C   UNL     1      -0.111  14.317  19.007  0.00  0.00    +0.000 C 
ATOM      2  C   UNL     1      -0.545  13.011  19.675  0.00  0.00    +0.000 C 
ATOM      3  N   UNL     1      -1.337  12.222  18.765  0.00  0.00    +0.000 N 
ATOM      4  C   UNL     1      -0.931  10.908  18.714  0.00  0.00    +0.000 C 
ATOM      5  O   UNL     1      -1.617  10.013  18.255  0.00  0.00    +0.000 OA
ATOM      6  N   UNL     1       0.290  10.809  19.298  0.00  0.00    +0.000 N 
ATOM      7  C   UNL     1       0.651  12.020  19.818  0.00  0.00    +0.000 C 
ATOM      8  O   UNL     1       1.717  12.262  20.377  0.00  0.00    +0.000 OA
ATOM      9  H   UNL     1      -2.307  12.419  18.547  0.00  0.00    +0.000 HD
ENDROOT
BRANCH   2  10
ATOM     10  C   UNL     1      -1.202  13.272  21.046  0.00  0.00    +0.000 A 
ATOM     11  C   UNL     1      -1.777  14.550  21.256  0.00  0.00    +0.000 A 
ATOM     12  C   UNL     1      -2.393  14.901  22.462  0.00  0.00    +0.000 A 
ATOM     13  C   UNL     1      -2.444  13.983  23.499  0.00  0.00    +0.000 A 
ATOM     14 CL   UNL     1      -3.187  14.408  24.989  0.00  0.00    +0.000 Cl
ATOM     15  C   UNL     1      -1.905  12.715  23.330  0.00  0.00    +0.000 A 
ATOM     16  C   UNL     1      -1.306  12.352  22.113  0.00  0.00    +0.000 A 
ATOM     17 CL   UNL     1      -0.773  10.708  22.043  0.00  0.00    +0.000 Cl
ENDBRANCH   2  10
BRANCH   6  18
ATOM     18  C   UNL     1       1.013   9.563  19.447  0.00  0.00    +0.000 C 
BRANCH  18  19
ATOM     19  C   UNL     1       1.946   9.328  18.257  0.00  0.00    +0.000 C 
ATOM     20  O   UNL     1       2.229  10.272  17.513  0.00  0.00    +0.000 OA
ATOM     21  N   UNL     1       2.536   8.087  18.084  0.00  0.00    +0.000 N 
ATOM     22  C   UNL     1       3.502   7.906  16.986  0.00  0.00    +0.000 C 
ATOM     23  C   UNL     1       4.736   7.108  17.443  0.00  0.00    +0.000 C 
ATOM     24  N   UNL     1       4.341   5.875  18.131  0.00  0.00    +0.000 N 
ATOM     25  C   UNL     1       5.003   4.682  17.834  0.00  0.00    +0.000 C 
ATOM     26  O   UNL     1       5.982   4.682  17.085  0.00  0.00    +0.000 OA
ATOM     27  C   UNL     1       3.411   6.093  19.248  0.00  0.00    +0.000 C 
ATOM     28  C   UNL     1       2.162   6.838  18.766  0.00  0.00    +0.000 C 
BRANCH  25  29
ATOM     29  C   UNL     1       4.528   3.444  18.429  0.00  0.00    +0.000 A 
ATOM     30  C   UNL     1       3.587   2.537  17.974  0.00  0.00    +0.000 A 
ATOM     31  C   UNL     1       3.510   1.505  18.938  0.00  0.00    +0.000 A 
ATOM     32  C   UNL     1       4.362   1.864  19.951  0.00  0.00    +0.000 A 
ATOM     33  O   UNL     1       4.958   3.051  19.672  0.00  0.00    +0.000 OA
ENDBRANCH  25  29
ENDBRANCH  18  19
ENDBRANCH   6  18
TORSDOF 4
ENDMDL
MODEL 9
REMARK VINA RESULT:      -6.9      4.155     10.193
REMARK  Name = 
REMARK  5 active torsions:
REMARK  status: ('A' for Active; 'I' for Inactive)
REMARK    1  A    between atoms: C_1  and  C_2
REMARK    2  A    between atoms: C_2  and  C_3
REMARK    3  A    between atoms: N_14  and  C_15
REMARK    4  A    between atoms: C_15  and  C_16
REMARK    5  A    between atoms: C_22  and  C_24
REMARK                            x       y       z     vdW  Elec       q    Type
REMARK                         _______ _______ _______ _____ _____    ______ ____
ROOT
ATOM      1  C   UNL     1       6.964   5.355  19.146  0.00  0.00    +0.000 C 
ATOM      2  C   UNL     1       5.800   4.783  18.337  0.00  0.00    +0.000 C 
ATOM      3  N   UNL     1       5.356   3.536  18.908  0.00  0.00    +0.000 N 
ATOM      4  C   UNL     1       3.989   3.479  19.055  0.00  0.00    +0.000 C 
ATOM      5  O   UNL     1       3.379   2.441  19.235  0.00  0.00    +0.000 OA
ATOM      6  N   UNL     1       3.485   4.730  18.910  0.00  0.00    +0.000 N 
ATOM      7  C   UNL     1       4.488   5.595  18.573  0.00  0.00    +0.000 C 
ATOM      8  O   UNL     1       4.357   6.804  18.408  0.00  0.00    +0.000 OA
ATOM      9  H   UNL     1       5.850   2.658  18.795  0.00  0.00    +0.000 HD
ENDROOT
BRANCH   2  10
ATOM     10  C   UNL     1       6.137   4.721  16.832  0.00  0.00    +0.000 A 
ATOM     11  C   UNL     1       5.596   3.642  16.091  0.00  0.00    +0.000 A 
ATOM     12  C   UNL     1       5.842   3.480  14.723  0.00  0.00    +0.000 A 
ATOM     13  C   UNL     1       6.646   4.392  14.058  0.00  0.00    +0.000 A 
ATOM     14 CL   UNL     1       6.964   4.197  12.381  0.00  0.00    +0.000 Cl
ATOM     15  C   UNL     1       7.185   5.472  14.744  0.00  0.00    +0.000 A 
ATOM     16  C   UNL     1       6.922   5.650  16.112  0.00  0.00    +0.000 A 
ATOM     17 CL   UNL     1       7.592   7.095  16.786  0.00  0.00    +0.000 Cl
ENDBRANCH   2  10
BRANCH   6  18
ATOM     18  C   UNL     1       2.073   5.042  18.977  0.00  0.00    +0.000 C 
BRANCH  18  19
ATOM     19  C   UNL     1       1.715   5.667  20.327  0.00  0.00    +0.000 C 
ATOM     20  O   UNL     1       1.912   5.024  21.362  0.00  0.00    +0.000 OA
ATOM     21  N   UNL     1       1.266   6.975  20.379  0.00  0.00    +0.000 N 
ATOM     22  C   UNL     1       1.014   7.589  21.695  0.00  0.00    +0.000 C 
ATOM     23  C   UNL     1       1.560   9.026  21.765  0.00  0.00    +0.000 C 
ATOM     24  N   UNL     1       1.110   9.817  20.616  0.00  0.00    +0.000 N 
ATOM     25  C   UNL     1       0.649  11.120  20.819  0.00  0.00    +0.000 C 
ATOM     26  O   UNL     1       0.722  11.640  21.934  0.00  0.00    +0.000 OA
ATOM     27  C   UNL     1       1.415   9.200  19.317  0.00  0.00    +0.000 C 
ATOM     28  C   UNL     1       0.815   7.791  19.241  0.00  0.00    +0.000 C 
BRANCH  25  29
ATOM     29  C   UNL     1       0.093  11.854  19.695  0.00  0.00    +0.000 A 
ATOM     30  C   UNL     1       0.550  12.995  19.059  0.00  0.00    +0.000 A 
ATOM     31  C   UNL     1      -0.365  13.282  18.020  0.00  0.00    +0.000 A 
ATOM     32  C   UNL     1      -1.357  12.338  18.113  0.00  0.00    +0.000 A 
ATOM     33  O   UNL     1      -1.109  11.490  19.142  0.00  0.00    +0.000 OA
ENDBRANCH  25  29
ENDBRANCH  18  19
ENDBRANCH   6  18
TORSDOF 4
ENDMDL
