MODEL 1
REMARK VINA RESULT:      -6.5      0.000      0.000
REMARK  Name = 
REMARK  6 active torsions:
REMARK  status: ('A' for Active; 'I' for Inactive)
REMARK    1  A    between atoms: C_1  and  C_2
REMARK    2  A    between atoms: C_5  and  C_6
REMARK    3  A    between atoms: C_6  and  C_7
REMARK    4  A    between atoms: C_6  and  N_8
REMARK    5  A    between atoms: N_15  and  C_16
REMARK    6  A    between atoms: C_16  and  C_17
REMARK                            x       y       z     vdW  Elec       q    Type
REMARK                         _______ _______ _______ _____ _____    ______ ____
ROOT
ATOM      1  N   UNL     1       1.348   9.063  19.337  0.00  0.00    +0.000 N 
ATOM      2  C   UNL     1       2.101   8.335  18.458  0.00  0.00    +0.000 C 
ATOM      3  O   UNL     1       2.437   8.794  17.371  0.00  0.00    +0.000 OA
ATOM      4  N   UNL     1       2.462   7.065  18.892  0.00  0.00    +0.000 N 
ATOM      5  C   UNL     1       2.025   6.437  20.141  0.00  0.00    +0.000 C 
ATOM      6  C   UNL     1       1.138   5.204  19.999  0.00  0.00    +0.000 C 
ATOM      7  C   UNL     1       1.513   4.097  19.012  0.00  0.00    +0.000 C 
ATOM      8  N   UNL     1       2.895   3.950  18.561  0.00  0.00    +0.000 NA
ATOM      9  C   UNL     1       3.257   5.018  17.616  0.00  0.00    +0.000 C 
ATOM     10  C   UNL     1       3.567   6.410  18.183  0.00  0.00    +0.000 C 
ATOM     11  H   UNL     1       1.495   8.878  20.312  0.00  0.00    +0.000 HD
ENDROOT
BRANCH   1  12
ATOM     12  C   UNL     1       0.997  10.447  19.083  0.00  0.00    +0.000 C 
ATOM     13  C   UNL     1       1.145  11.290  20.351  0.00  0.00    +0.000 C 
BRANCH  12  18
ATOM     14  C   UNL     1      -4.195  11.478  18.204  0.00  0.00    +0.000 C 
ATOM     15  C   UNL     1      -2.814  10.924  18.135  0.00  0.00    +0.000 A 
ATOM     16  C   UNL     1      -2.322   9.938  17.307  0.00  0.00    +0.000 A 
ATOM     17  C   UNL     1      -0.943   9.669  17.546  0.00  0.00    +0.000 A 
ATOM     18  C   UNL     1      -0.414  10.463  18.547  0.00  0.00    +0.000 A 
ATOM     19  S   UNL     1      -1.610  11.518  19.190  0.00  0.00    +0.000 S 
ENDBRANCH  12  18
ENDBRANCH   1  12
BRANCH   8  20
ATOM     20  C   UNL     1       3.859   3.685  19.645  0.00  0.00    +0.000 C 
BRANCH  20  21
ATOM     21  C   UNL     1       3.668   2.415  20.491  0.00  0.00    +0.000 C 
ATOM     22  F   UNL     1       4.866   1.911  20.889  0.00  0.00    +0.000 F 
ATOM     23  F   UNL     1       3.013   2.750  21.636  0.00  0.00    +0.000 F 
ENDBRANCH  20  21
ENDBRANCH   8  20
TORSDOF 4
ENDMDL
MODEL 2
REMARK VINA RESULT:      -6.3      2.880      3.419
REMARK  Name = 
REMARK  6 active torsions:
REMARK  status: ('A' for Active; 'I' for Inactive)
REMARK    1  A    between atoms: C_1  and  C_2
REMARK    2  A    between atoms: C_5  and  C_6
REMARK    3  A    between atoms: C_6  and  C_7
REMARK    4  A    between atoms: C_6  and  N_8
REMARK    5  A    between atoms: N_15  and  C_16
REMARK    6  A    between atoms: C_16  and  C_17
REMARK                            x       y       z     vdW  Elec       q    Type
REMARK                         _______ _______ _______ _____ _____    ______ ____
ROOT
ATOM      1  N   UNL     1       1.734   8.480  19.024  0.00  0.00    +0.000 N 
ATOM      2  C   UNL     1       2.561   8.166  17.982  0.00  0.00    +0.000 C 
ATOM      3  O   UNL     1       2.535   8.799  16.931  0.00  0.00    +0.000 OA
ATOM      4  N   UNL     1       3.428   7.103  18.209  0.00  0.00    +0.000 N 
ATOM      5  C   UNL     1       3.448   6.263  19.408  0.00  0.00    +0.000 C 
ATOM      6  C   UNL     1       3.070   4.799  19.211  0.00  0.00    +0.000 C 
ATOM      7  C   UNL     1       3.674   3.998  18.055  0.00  0.00    +0.000 C 
ATOM      8  N   UNL     1       4.927   4.428  17.439  0.00  0.00    +0.000 NA
ATOM      9  C   UNL     1       4.721   5.620  16.603  0.00  0.00    +0.000 C 
ATOM     10  C   UNL     1       4.576   6.978  17.304  0.00  0.00    +0.000 C 
ATOM     11  H   UNL     1       2.085   8.293  19.946  0.00  0.00    +0.000 HD
ENDROOT
BRANCH   1  12
ATOM     12  C   UNL     1       0.863   9.639  18.989  0.00  0.00    +0.000 C 
ATOM     13  C   UNL     1       1.629  10.887  18.547  0.00  0.00    +0.000 C 
BRANCH  12  18
ATOM     14  C   UNL     1      -1.692  11.441  23.350  0.00  0.00    +0.000 C 
ATOM     15  C   UNL     1      -0.906  10.617  22.390  0.00  0.00    +0.000 A 
ATOM     16  C   UNL     1      -0.307   9.392  22.595  0.00  0.00    +0.000 A 
ATOM     17  C   UNL     1       0.370   8.921  21.433  0.00  0.00    +0.000 A 
ATOM     18  C   UNL     1       0.263   9.794  20.366  0.00  0.00    +0.000 A 
ATOM     19  S   UNL     1      -0.652  11.184  20.799  0.00  0.00    +0.000 S 
ENDBRANCH  12  18
ENDBRANCH   1  12
BRANCH   8  20
ATOM     20  C   UNL     1       6.073   4.472  18.366  0.00  0.00    +0.000 C 
BRANCH  20  21
ATOM     21  C   UNL     1       7.482   4.629  17.771  0.00  0.00    +0.000 C 
ATOM     22  F   UNL     1       7.506   4.241  16.468  0.00  0.00    +0.000 F 
ATOM     23  F   UNL     1       7.807   5.950  17.765  0.00  0.00    +0.000 F 
ENDBRANCH  20  21
ENDBRANCH   8  20
TORSDOF 4
ENDMDL
MODEL 3
REMARK VINA RESULT:      -6.1      2.323      3.642
REMARK  Name = 
REMARK  6 active torsions:
REMARK  status: ('A' for Active; 'I' for Inactive)
REMARK    1  A    between atoms: C_1  and  C_2
REMARK    2  A    between atoms: C_5  and  C_6
REMARK    3  A    between atoms: C_6  and  C_7
REMARK    4  A    between atoms: C_6  and  N_8
REMARK    5  A    between atoms: N_15  and  C_16
REMARK    6  A    between atoms: C_16  and  C_17
REMARK                            x       y       z     vdW  Elec       q    Type
REMARK                         _______ _______ _______ _____ _____    ______ ____
ROOT
ATOM      1  N   UNL     1       1.362   9.158  19.242  0.00  0.00    +0.000 N 
ATOM      2  C   UNL     1       1.702   8.048  19.964  0.00  0.00    +0.000 C 
ATOM      3  O   UNL     1       1.503   7.985  21.173  0.00  0.00    +0.000 OA
ATOM      4  N   UNL     1       2.265   7.010  19.231  0.00  0.00    +0.000 N 
ATOM      5  C   UNL     1       2.599   7.058  17.806  0.00  0.00    +0.000 C 
ATOM      6  C   UNL     1       4.082   6.968  17.458  0.00  0.00    +0.000 C 
ATOM      7  C   UNL     1       4.963   5.907  18.121  0.00  0.00    +0.000 C 
ATOM      8  N   UNL     1       4.362   4.705  18.693  0.00  0.00    +0.000 NA
ATOM      9  C   UNL     1       3.662   5.013  19.949  0.00  0.00    +0.000 C 
ATOM     10  C   UNL     1       2.284   5.685  19.861  0.00  0.00    +0.000 C 
ATOM     11  H   UNL     1       1.101   9.006  18.285  0.00  0.00    +0.000 HD
ENDROOT
BRANCH   1  12
ATOM     12  C   UNL     1       0.653  10.273  19.839  0.00  0.00    +0.000 C 
ATOM     13  C   UNL     1      -0.815  10.284  19.405  0.00  0.00    +0.000 C 
BRANCH  12  18
ATOM     14  C   UNL     1       2.643  15.251  19.611  0.00  0.00    +0.000 C 
ATOM     15  C   UNL     1       2.296  13.833  19.314  0.00  0.00    +0.000 A 
ATOM     16  C   UNL     1       2.643  13.073  18.217  0.00  0.00    +0.000 A 
ATOM     17  C   UNL     1       2.110  11.753  18.285  0.00  0.00    +0.000 A 
ATOM     18  C   UNL     1       1.377  11.535  19.436  0.00  0.00    +0.000 A 
ATOM     19  S   UNL     1       1.337  12.948  20.415  0.00  0.00    +0.000 S 
ENDBRANCH  12  18
ENDBRANCH   1  12
BRANCH   8  20
ATOM     20  C   UNL     1       3.624   3.876  17.721  0.00  0.00    +0.000 C 
BRANCH  20  21
ATOM     21  C   UNL     1       3.076   2.519  18.194  0.00  0.00    +0.000 C 
ATOM     22  F   UNL     1       1.806   2.326  17.751  0.00  0.00    +0.000 F 
ATOM     23  F   UNL     1       3.817   1.529  17.624  0.00  0.00    +0.000 F 
ENDBRANCH  20  21
ENDBRANCH   8  20
TORSDOF 4
ENDMDL
MODEL 4
REMARK VINA RESULT:      -6.1      1.807      2.436
REMARK  Name = 
REMARK  6 active torsions:
REMARK  status: ('A' for Active; 'I' for Inactive)
REMARK    1  A    between atoms: C_1  and  C_2
REMARK    2  A    between atoms: C_5  and  C_6
REMARK    3  A    between atoms: C_6  and  C_7
REMARK    4  A    between atoms: C_6  and  N_8
REMARK    5  A    between atoms: N_15  and  C_16
REMARK    6  A    between atoms: C_16  and  C_17
REMARK                            x       y       z     vdW  Elec       q    Type
REMARK                         _______ _______ _______ _____ _____    ______ ____
ROOT
ATOM      1  N   UNL     1       1.297   8.741  19.324  0.00  0.00    +0.000 N 
ATOM      2  C   UNL     1       2.120   8.167  18.395  0.00  0.00    +0.000 C 
ATOM      3  O   UNL     1       2.375   8.726  17.333  0.00  0.00    +0.000 OA
ATOM      4  N   UNL     1       2.647   6.931  18.750  0.00  0.00    +0.000 N 
ATOM      5  C   UNL     1       2.317   6.181  19.963  0.00  0.00    +0.000 C 
ATOM      6  C   UNL     1       1.591   4.855  19.759  0.00  0.00    +0.000 C 
ATOM      7  C   UNL     1       2.084   3.863  18.704  0.00  0.00    +0.000 C 
ATOM      8  N   UNL     1       3.465   3.920  18.229  0.00  0.00    +0.000 NA
ATOM      9  C   UNL     1       3.671   5.078  17.345  0.00  0.00    +0.000 C 
ATOM     10  C   UNL     1       3.813   6.464  17.991  0.00  0.00    +0.000 C 
ATOM     11  H   UNL     1       1.485   8.521  20.285  0.00  0.00    +0.000 HD
ENDROOT
BRANCH   1  12
ATOM     12  C   UNL     1       0.770  10.081  19.156  0.00  0.00    +0.000 C 
ATOM     13  C   UNL     1       1.865  11.048  18.701  0.00  0.00    +0.000 C 
BRANCH  12  18
ATOM     14  C   UNL     1      -1.585  12.777  23.154  0.00  0.00    +0.000 C 
ATOM     15  C   UNL     1      -0.923  11.727  22.331  0.00  0.00    +0.000 A 
ATOM     16  C   UNL     1      -0.558  10.449  22.697  0.00  0.00    +0.000 A 
ATOM     17  C   UNL     1       0.068   9.739  21.630  0.00  0.00    +0.000 A 
ATOM     18  C   UNL     1       0.156  10.492  20.474  0.00  0.00    +0.000 A 
ATOM     19  S   UNL     1      -0.514  12.058  20.706  0.00  0.00    +0.000 S 
ENDBRANCH  12  18
ENDBRANCH   1  12
BRANCH   8  20
ATOM     20  C   UNL     1       4.476   3.719  19.285  0.00  0.00    +0.000 C 
BRANCH  20  21
ATOM     21  C   UNL     1       4.487   2.373  20.031  0.00  0.00    +0.000 C 
ATOM     22  F   UNL     1       3.596   2.379  21.057  0.00  0.00    +0.000 F 
ATOM     23  F   UNL     1       4.059   1.401  19.179  0.00  0.00    +0.000 F 
ENDBRANCH  20  21
ENDBRANCH   8  20
TORSDOF 4
ENDMDL
MODEL 5
REMARK VINA RESULT:      -6.1      3.929      5.336
REMARK  Name = 
REMARK  6 active torsions:
REMARK  status: ('A' for Active; 'I' for Inactive)
REMARK    1  A    between atoms: C_1  and  C_2
REMARK    2  A    between atoms: C_5  and  C_6
REMARK    3  A    between atoms: C_6  and  C_7
REMARK    4  A    between atoms: C_6  and  N_8
REMARK    5  A    between atoms: N_15  and  C_16
REMARK    6  A    between atoms: C_16  and  C_17
REMARK                            x       y       z     vdW  Elec       q    Type
REMARK                         _______ _______ _______ _____ _____    ______ ____
ROOT
ATOM      1  N   UNL     1       3.243   6.088  18.993  0.00  0.00    +0.000 N 
ATOM      2  C   UNL     1       4.450   5.446  19.014  0.00  0.00    +0.000 C 
ATOM      3  O   UNL     1       5.027   5.202  20.069  0.00  0.00    +0.000 OA
ATOM      4  N   UNL     1       4.953   5.082  17.771  0.00  0.00    +0.000 N 
ATOM      5  C   UNL     1       4.350   5.415  16.478  0.00  0.00    +0.000 C 
ATOM      6  C   UNL     1       5.156   6.348  15.580  0.00  0.00    +0.000 C 
ATOM      7  C   UNL     1       6.650   6.104  15.362  0.00  0.00    +0.000 C 
ATOM      8  N   UNL     1       7.219   4.777  15.586  0.00  0.00    +0.000 NA
ATOM      9  C   UNL     1       7.304   4.476  17.023  0.00  0.00    +0.000 C 
ATOM     10  C   UNL     1       6.015   4.071  17.754  0.00  0.00    +0.000 C 
ATOM     11  H   UNL     1       2.624   5.853  18.239  0.00  0.00    +0.000 HD
ENDROOT
BRANCH   1  12
ATOM     12  C   UNL     1       2.530   6.420  20.211  0.00  0.00    +0.000 C 
ATOM     13  C   UNL     1       1.519   5.328  20.568  0.00  0.00    +0.000 C 
BRANCH  12  18
ATOM     14  C   UNL     1      -0.231  10.984  20.794  0.00  0.00    +0.000 C 
ATOM     15  C   UNL     1       0.593   9.869  20.249  0.00  0.00    +0.000 A 
ATOM     16  C   UNL     1       1.109   9.721  18.980  0.00  0.00    +0.000 A 
ATOM     17  C   UNL     1       1.841   8.507  18.832  0.00  0.00    +0.000 A 
ATOM     18  C   UNL     1       1.871   7.762  19.997  0.00  0.00    +0.000 A 
ATOM     19  S   UNL     1       0.997   8.547  21.252  0.00  0.00    +0.000 S 
ENDBRANCH  12  18
ENDBRANCH   1  12
BRANCH   8  20
ATOM     20  C   UNL     1       6.643   3.721  14.732  0.00  0.00    +0.000 C 
BRANCH  20  21
ATOM     21  C   UNL     1       6.275   4.080  13.282  0.00  0.00    +0.000 C 
ATOM     22  F   UNL     1       6.849   3.215  12.406  0.00  0.00    +0.000 F 
ATOM     23  F   UNL     1       4.932   3.924  13.124  0.00  0.00    +0.000 F 
ENDBRANCH  20  21
ENDBRANCH   8  20
TORSDOF 4
ENDMDL
MODEL 6
REMARK VINA RESULT:      -6.1      4.463      7.815
REMARK  Name = 
REMARK  6 active torsions:
REMARK  status: ('A' for Active; 'I' for Inactive)
REMARK    1  A    between atoms: C_1  and  C_2
REMARK    2  A    between atoms: C_5  and  C_6
REMARK    3  A    between atoms: C_6  and  C_7
REMARK    4  A    between atoms: C_6  and  N_8
REMARK    5  A    between atoms: N_15  and  C_16
REMARK    6  A    between atoms: C_16  and  C_17
REMARK                            x       y       z     vdW  Elec       q    Type
REMARK                         _______ _______ _______ _____ _____    ______ ____
ROOT
ATOM      1  N   UNL     1       3.104   6.525  18.731  0.00  0.00    +0.000 N 
ATOM      2  C   UNL     1       2.257   6.740  19.782  0.00  0.00    +0.000 C 
ATOM      3  O   UNL     1       1.955   5.838  20.556  0.00  0.00    +0.000 OA
ATOM      4  N   UNL     1       1.788   8.042  19.911  0.00  0.00    +0.000 N 
ATOM      5  C   UNL     1       2.050   9.138  18.975  0.00  0.00    +0.000 C 
ATOM      6  C   UNL     1       0.840   9.686  18.224  0.00  0.00    +0.000 C 
ATOM      7  C   UNL     1      -0.455   9.998  18.977  0.00  0.00    +0.000 C 
ATOM      8  N   UNL     1      -0.428  10.241  20.417  0.00  0.00    +0.000 NA
ATOM      9  C   UNL     1      -0.212   8.990  21.159  0.00  0.00    +0.000 C 
ATOM     10  C   UNL     1       1.211   8.415  21.208  0.00  0.00    +0.000 C 
ATOM     11  H   UNL     1       3.669   7.303  18.444  0.00  0.00    +0.000 HD
ENDROOT
BRANCH   1  12
ATOM     12  C   UNL     1       3.775   5.254  18.535  0.00  0.00    +0.000 C 
ATOM     13  C   UNL     1       4.773   4.982  19.663  0.00  0.00    +0.000 C 
BRANCH  12  18
ATOM     14  C   UNL     1       6.166   4.003  13.897  0.00  0.00    +0.000 C 
ATOM     15  C   UNL     1       5.553   4.737  15.040  0.00  0.00    +0.000 A 
ATOM     16  C   UNL     1       5.423   6.098  15.218  0.00  0.00    +0.000 A 
ATOM     17  C   UNL     1       4.787   6.422  16.452  0.00  0.00    +0.000 A 
ATOM     18  C   UNL     1       4.441   5.300  17.181  0.00  0.00    +0.000 A 
ATOM     19  S   UNL     1       4.906   3.864  16.357  0.00  0.00    +0.000 S 
ENDBRANCH  12  18
ENDBRANCH   1  12
BRANCH   8  20
ATOM     20  C   UNL     1       0.405  11.390  20.821  0.00  0.00    +0.000 C 
BRANCH  20  21
ATOM     21  C   UNL     1      -0.247  12.497  21.666  0.00  0.00    +0.000 C 
ATOM     22  F   UNL     1      -1.412  12.916  21.104  0.00  0.00    +0.000 F 
ATOM     23  F   UNL     1      -0.591  11.975  22.875  0.00  0.00    +0.000 F 
ENDBRANCH  20  21
ENDBRANCH   8  20
TORSDOF 4
ENDMDL
MODEL 7
REMARK VINA RESULT:      -6.1      3.824      5.328
REMARK  Name = 
REMARK  6 active torsions:
REMARK  status: ('A' for Active; 'I' for Inactive)
REMARK    1  A    between atoms: C_1  and  C_2
REMARK    2  A    between atoms: C_5  and  C_6
REMARK    3  A    between atoms: C_6  and  C_7
REMARK    4  A    between atoms: C_6  and  N_8
REMARK    5  A    between atoms: N_15  and  C_16
REMARK    6  A    between atoms: C_16  and  C_17
REMARK                            x       y       z     vdW  Elec       q    Type
REMARK                         _______ _______ _______ _____ _____    ______ ____
ROOT
ATOM      1  N   UNL     1       3.034   6.379  19.380  0.00  0.00    +0.000 N 
ATOM      2  C   UNL     1       3.580   5.215  18.917  0.00  0.00    +0.000 C 
ATOM      3  O   UNL     1       3.399   4.148  19.497  0.00  0.00    +0.000 OA
ATOM      4  N   UNL     1       4.328   5.330  17.751  0.00  0.00    +0.000 N 
ATOM      5  C   UNL     1       4.643   6.583  17.062  0.00  0.00    +0.000 C 
ATOM      6  C   UNL     1       6.115   6.983  17.031  0.00  0.00    +0.000 C 
ATOM      7  C   UNL     1       7.183   5.951  16.660  0.00  0.00    +0.000 C 
ATOM      8  N   UNL     1       6.822   4.762  15.891  0.00  0.00    +0.000 NA
ATOM      9  C   UNL     1       6.079   3.803  16.723  0.00  0.00    +0.000 C 
ATOM     10  C   UNL     1       4.599   4.092  17.011  0.00  0.00    +0.000 C 
ATOM     11  H   UNL     1       2.804   7.071  18.690  0.00  0.00    +0.000 HD
ENDROOT
BRANCH   1  12
ATOM     12  C   UNL     1       2.128   6.404  20.512  0.00  0.00    +0.000 C 
ATOM     13  C   UNL     1       1.070   5.305  20.391  0.00  0.00    +0.000 C 
BRANCH  12  18
ATOM     14  C   UNL     1       0.482  11.388  19.394  0.00  0.00    +0.000 C 
ATOM     15  C   UNL     1       0.756  10.088  20.069  0.00  0.00    +0.000 A 
ATOM     16  C   UNL     1       0.436   9.700  21.352  0.00  0.00    +0.000 A 
ATOM     17  C   UNL     1       0.876   8.376  21.642  0.00  0.00    +0.000 A 
ATOM     18  C   UNL     1       1.515   7.783  20.569  0.00  0.00    +0.000 A 
ATOM     19  S   UNL     1       1.580   8.854  19.225  0.00  0.00    +0.000 S 
ENDBRANCH  12  18
ENDBRANCH   1  12
BRANCH   8  20
ATOM     20  C   UNL     1       6.252   5.052  14.562  0.00  0.00    +0.000 C 
BRANCH  20  21
ATOM     21  C   UNL     1       6.190   3.909  13.535  0.00  0.00    +0.000 C 
ATOM     22  F   UNL     1       4.944   3.798  13.004  0.00  0.00    +0.000 F 
ATOM     23  F   UNL     1       7.006   4.220  12.490  0.00  0.00    +0.000 F 
ENDBRANCH  20  21
ENDBRANCH   8  20
TORSDOF 4
ENDMDL
MODEL 8
REMARK VINA RESULT:      -6.0      4.010      5.502
REMARK  Name = 
REMARK  6 active torsions:
REMARK  status: ('A' for Active; 'I' for Inactive)
REMARK    1  A    between atoms: C_1  and  C_2
REMARK    2  A    between atoms: C_5  and  C_6
REMARK    3  A    between atoms: C_6  and  C_7
REMARK    4  A    between atoms: C_6  and  N_8
REMARK    5  A    between atoms: N_15  and  C_16
REMARK    6  A    between atoms: C_16  and  C_17
REMARK                            x       y       z     vdW  Elec       q    Type
REMARK                         _______ _______ _______ _____ _____    ______ ____
ROOT
ATOM      1  N   UNL     1       3.088   6.059  19.274  0.00  0.00    +0.000 N 
ATOM      2  C   UNL     1       4.218   5.289  19.285  0.00  0.00    +0.000 C 
ATOM      3  O   UNL     1       4.617   4.753  20.314  0.00  0.00    +0.000 OA
ATOM      4  N   UNL     1       4.855   5.150  18.058  0.00  0.00    +0.000 N 
ATOM      5  C   UNL     1       4.471   5.828  16.818  0.00  0.00    +0.000 C 
ATOM      6  C   UNL     1       5.474   6.833  16.261  0.00  0.00    +0.000 C 
ATOM      7  C   UNL     1       6.957   6.468  16.167  0.00  0.00    +0.000 C 
ATOM      8  N   UNL     1       7.368   5.066  16.140  0.00  0.00    +0.000 NA
ATOM      9  C   UNL     1       7.224   4.449  17.467  0.00  0.00    +0.000 C 
ATOM     10  C   UNL     1       5.816   4.049  17.929  0.00  0.00    +0.000 C 
ATOM     11  H   UNL     1       2.562   6.070  18.420  0.00  0.00    +0.000 HD
ENDROOT
BRANCH   1  12
ATOM     12  C   UNL     1       2.244   6.196  20.445  0.00  0.00    +0.000 C 
ATOM     13  C   UNL     1       1.201   5.078  20.504  0.00  0.00    +0.000 C 
BRANCH  12  18
ATOM     14  C   UNL     1       0.611  11.084  18.949  0.00  0.00    +0.000 C 
ATOM     15  C   UNL     1       0.856   9.828  19.710  0.00  0.00    +0.000 A 
ATOM     16  C   UNL     1       0.453   9.503  20.988  0.00  0.00    +0.000 A 
ATOM     17  C   UNL     1       0.891   8.204  21.379  0.00  0.00    +0.000 A 
ATOM     18  C   UNL     1       1.610   7.566  20.385  0.00  0.00    +0.000 A 
ATOM     19  S   UNL     1       1.753   8.564  18.992  0.00  0.00    +0.000 S 
ENDBRANCH  12  18
ENDBRANCH   1  12
BRANCH   8  20
ATOM     20  C   UNL     1       6.827   4.299  15.002  0.00  0.00    +0.000 C 
BRANCH  20  21
ATOM     21  C   UNL     1       6.976   4.891  13.591  0.00  0.00    +0.000 C 
ATOM     22  F   UNL     1       8.227   5.389  13.403  0.00  0.00    +0.000 F 
ATOM     23  F   UNL     1       6.842   3.887  12.681  0.00  0.00    +0.000 F 
ENDBRANCH  20  21
ENDBRANCH   8  20
TORSDOF 4
ENDMDL
MODEL 9
REMARK VINA RESULT:      -6.0      3.883      5.330
REMARK  Name = 
REMARK  6 active torsions:
REMARK  status: ('A' for Active; 'I' for Inactive)
REMARK    1  A    between atoms: C_1  and  C_2
REMARK    2  A    between atoms: C_5  and  C_6
REMARK    3  A    between atoms: C_6  and  C_7
REMARK    4  A    between atoms: C_6  and  N_8
REMARK    5  A    between atoms: N_15  and  C_16
REMARK    6  A    between atoms: C_16  and  C_17
REMARK                            x       y       z     vdW  Elec       q    Type
REMARK                         _______ _______ _______ _____ _____    ______ ____
ROOT
ATOM      1  N   UNL     1       3.085   6.458  19.224  0.00  0.00    +0.000 N 
ATOM      2  C   UNL     1       3.505   5.241  18.764  0.00  0.00    +0.000 C 
ATOM      3  O   UNL     1       3.254   4.205  19.372  0.00  0.00    +0.000 OA
ATOM      4  N   UNL     1       4.209   5.268  17.566  0.00  0.00    +0.000 N 
ATOM      5  C   UNL     1       4.606   6.475  16.839  0.00  0.00    +0.000 C 
ATOM      6  C   UNL     1       6.105   6.740  16.738  0.00  0.00    +0.000 C 
ATOM      7  C   UNL     1       7.060   5.610  16.347  0.00  0.00    +0.000 C 
ATOM      8  N   UNL     1       6.561   4.445  15.619  0.00  0.00    +0.000 NA
ATOM      9  C   UNL     1       5.771   3.572  16.500  0.00  0.00    +0.000 C 
ATOM     10  C   UNL     1       4.336   3.998  16.842  0.00  0.00    +0.000 C 
ATOM     11  H   UNL     1       2.889   7.156  18.530  0.00  0.00    +0.000 HD
ENDROOT
BRANCH   1  12
ATOM     12  C   UNL     1       2.234   6.584  20.391  0.00  0.00    +0.000 C 
ATOM     13  C   UNL     1       1.167   5.487  20.412  0.00  0.00    +0.000 C 
BRANCH  12  18
ATOM     14  C   UNL     1      -0.134  11.228  21.663  0.00  0.00    +0.000 C 
ATOM     15  C   UNL     1       0.531  10.114  20.932  0.00  0.00    +0.000 A 
ATOM     16  C   UNL     1       0.841  10.027  19.592  0.00  0.00    +0.000 A 
ATOM     17  C   UNL     1       1.469   8.791  19.262  0.00  0.00    +0.000 A 
ATOM     18  C   UNL     1       1.630   7.968  20.361  0.00  0.00    +0.000 A 
ATOM     19  S   UNL     1       1.003   8.709  21.780  0.00  0.00    +0.000 S 
ENDBRANCH  12  18
ENDBRANCH   1  12
BRANCH   8  20
ATOM     20  C   UNL     1       5.963   4.762  14.308  0.00  0.00    +0.000 C 
BRANCH  20  21
ATOM     21  C   UNL     1       6.103   3.728  13.178  0.00  0.00    +0.000 C 
ATOM     22  F   UNL     1       4.941   3.605  12.485  0.00  0.00    +0.000 F 
ATOM     23  F   UNL     1       7.018   4.187  12.280  0.00  0.00    +0.000 F 
ENDBRANCH  20  21
ENDBRANCH   8  20
TORSDOF 4
ENDMDL
