MODEL 1
REMARK VINA RESULT:      -8.1      0.000      0.000
REMARK  Name = 
REMARK  6 active torsions:
REMARK  status: ('A' for Active; 'I' for Inactive)
REMARK    1  A    between atoms: C_1  and  C_2
REMARK    2  A    between atoms: C_2  and  C_3
REMARK    3  A    between atoms: C_12  and  C_13
REMARK    4  A    between atoms: N_22  and  C_23
REMARK    5  A    between atoms: C_24  and  C_25
REMARK    6  A    between atoms: C_25  and  O_26
REMARK                            x       y       z     vdW  Elec       q    Type
REMARK                         _______ _______ _______ _____ _____    ______ ____
ROOT
ATOM      1  C   UNL     1       7.407   8.190  17.761  0.00  0.00    +0.000 C 
ATOM      2  O   UNL     1       6.703   8.976  17.119  0.00  0.00    +0.000 OA
ATOM      3  N   UNL     1       7.176   6.829  17.749  0.00  0.00    +0.000 N 
ATOM      4  C   UNL     1       7.945   5.819  18.468  0.00  0.00    +0.000 C 
ATOM      5  C   UNL     1       7.511   4.482  17.876  0.00  0.00    +0.000 C 
ATOM      6  C   UNL     1       6.953   4.865  16.495  0.00  0.00    +0.000 C 
ATOM      7  C   UNL     1       6.268   6.208  16.763  0.00  0.00    +0.000 C 
ATOM      8  C   UNL     1       4.839   6.048  17.250  0.00  0.00    +0.000 A 
ATOM      9  C   UNL     1       4.139   7.183  17.689  0.00  0.00    +0.000 A 
ATOM     10  C   UNL     1       2.830   7.128  18.172  0.00  0.00    +0.000 A 
ATOM     11  C   UNL     1       2.202   5.883  18.152  0.00  0.00    +0.000 A 
ATOM     12  C   UNL     1       2.861   4.752  17.676  0.00  0.00    +0.000 A 
ATOM     13  C   UNL     1       4.185   4.796  17.225  0.00  0.00    +0.000 A 
ATOM     14  N   UNL     1       4.820   3.663  16.742  0.00  0.00    +0.000 N 
ATOM     15  C   UNL     1       4.454   2.310  17.151  0.00  0.00    +0.000 C 
ATOM     16  C   UNL     1       6.009   3.833  15.891  0.00  0.00    +0.000 C 
ENDROOT
BRANCH  10  17
ATOM     17  C   UNL     1       2.148   8.334  18.670  0.00  0.00    +0.000 A 
ATOM     18  C   UNL     1       1.611   8.386  19.963  0.00  0.00    +0.000 A 
ATOM     19  C   UNL     1       0.940   9.510  20.430  0.00  0.00    +0.000 A 
ATOM     20  C   UNL     1       0.797  10.622  19.600  0.00  0.00    +0.000 A 
ATOM     21  C   UNL     1       1.338  10.610  18.323  0.00  0.00    +0.000 A 
ATOM     22  C   UNL     1       2.013   9.479  17.855  0.00  0.00    +0.000 A 
ENDBRANCH  10  17
BRANCH   1  24
ATOM     23  C   UNL     1       8.866  10.174  18.290  0.00  0.00    +0.000 C 
ATOM     24  C   UNL     1       8.616   8.689  18.537  0.00  0.00    +0.000 C 
ENDBRANCH   1  24
BRANCH  16  25
ATOM     25  C   UNL     1       5.558   4.201  14.456  0.00  0.00    +0.000 C 
BRANCH  25  26
ATOM     26  O   UNL     1       6.297   3.432  13.503  0.00  0.00    +0.000 OA
ATOM     27  H   UNL     1       5.941   2.528  13.599  0.00  0.00    +0.000 HD
ENDBRANCH  25  26
ENDBRANCH  16  25
TORSDOF 4
ENDMDL
MODEL 2
REMARK VINA RESULT:      -8.1      2.723      4.808
REMARK  Name = 
REMARK  6 active torsions:
REMARK  status: ('A' for Active; 'I' for Inactive)
REMARK    1  A    between atoms: C_1  and  C_2
REMARK    2  A    between atoms: C_2  and  C_3
REMARK    3  A    between atoms: C_12  and  C_13
REMARK    4  A    between atoms: N_22  and  C_23
REMARK    5  A    between atoms: C_24  and  C_25
REMARK    6  A    between atoms: C_25  and  O_26
REMARK                            x       y       z     vdW  Elec       q    Type
REMARK                         _______ _______ _______ _____ _____    ______ ____
ROOT
ATOM      1  C   UNL     1       2.086   3.729  20.645  0.00  0.00    +0.000 C 
ATOM      2  O   UNL     1       2.323   4.572  21.516  0.00  0.00    +0.000 OA
ATOM      3  N   UNL     1       2.709   3.761  19.413  0.00  0.00    +0.000 N 
ATOM      4  C   UNL     1       2.505   2.818  18.319  0.00  0.00    +0.000 C 
ATOM      5  C   UNL     1       3.639   3.084  17.336  0.00  0.00    +0.000 C 
ATOM      6  C   UNL     1       4.713   3.764  18.202  0.00  0.00    +0.000 C 
ATOM      7  C   UNL     1       3.886   4.620  19.164  0.00  0.00    +0.000 C 
ATOM      8  C   UNL     1       3.547   5.984  18.588  0.00  0.00    +0.000 A 
ATOM      9  C   UNL     1       2.659   6.816  19.289  0.00  0.00    +0.000 A 
ATOM     10  C   UNL     1       2.276   8.077  18.826  0.00  0.00    +0.000 A 
ATOM     11  C   UNL     1       2.862   8.519  17.640  0.00  0.00    +0.000 A 
ATOM     12  C   UNL     1       3.781   7.729  16.953  0.00  0.00    +0.000 A 
ATOM     13  C   UNL     1       4.141   6.451  17.395  0.00  0.00    +0.000 A 
ATOM     14  N   UNL     1       5.068   5.685  16.706  0.00  0.00    +0.000 N 
ATOM     15  C   UNL     1       5.313   5.829  15.274  0.00  0.00    +0.000 C 
ATOM     16  C   UNL     1       5.731   4.579  17.415  0.00  0.00    +0.000 C 
ENDROOT
BRANCH  10  17
ATOM     17  C   UNL     1       1.304   8.899  19.566  0.00  0.00    +0.000 A 
ATOM     18  C   UNL     1       0.587   9.923  18.934  0.00  0.00    +0.000 A 
ATOM     19  C   UNL     1      -0.311  10.723  19.631  0.00  0.00    +0.000 A 
ATOM     20  C   UNL     1      -0.514  10.506  20.994  0.00  0.00    +0.000 A 
ATOM     21  C   UNL     1       0.164   9.484  21.642  0.00  0.00    +0.000 A 
ATOM     22  C   UNL     1       1.066   8.680  20.939  0.00  0.00    +0.000 A 
ENDBRANCH  10  17
BRANCH   1  24
ATOM     23  C   UNL     1       1.182   2.160  22.395  0.00  0.00    +0.000 C 
ATOM     24  C   UNL     1       1.147   2.566  20.925  0.00  0.00    +0.000 C 
ENDBRANCH   1  24
BRANCH  16  25
ATOM     25  C   UNL     1       6.858   5.152  18.309  0.00  0.00    +0.000 C 
BRANCH  25  26
ATOM     26  O   UNL     1       8.008   4.303  18.247  0.00  0.00    +0.000 OA
ATOM     27  H   UNL     1       8.241   4.150  19.182  0.00  0.00    +0.000 HD
ENDBRANCH  25  26
ENDBRANCH  16  25
TORSDOF 4
ENDMDL
MODEL 3
REMARK VINA RESULT:      -7.9      2.422      3.169
REMARK  Name = 
REMARK  6 active torsions:
REMARK  status: ('A' for Active; 'I' for Inactive)
REMARK    1  A    between atoms: C_1  and  C_2
REMARK    2  A    between atoms: C_2  and  C_3
REMARK    3  A    between atoms: C_12  and  C_13
REMARK    4  A    between atoms: N_22  and  C_23
REMARK    5  A    between atoms: C_24  and  C_25
REMARK    6  A    between atoms: C_25  and  O_26
REMARK                            x       y       z     vdW  Elec       q    Type
REMARK                         _______ _______ _______ _____ _____    ______ ____
ROOT
ATOM      1  C   UNL     1       5.685   6.473  17.034  0.00  0.00    +0.000 C 
ATOM      2  O   UNL     1       4.809   6.990  16.334  0.00  0.00    +0.000 OA
ATOM      3  N   UNL     1       5.386   5.518  17.985  0.00  0.00    +0.000 N 
ATOM      4  C   UNL     1       6.340   4.845  18.860  0.00  0.00    +0.000 C 
ATOM      5  C   UNL     1       5.576   3.676  19.472  0.00  0.00    +0.000 C 
ATOM      6  C   UNL     1       4.425   3.441  18.479  0.00  0.00    +0.000 C 
ATOM      7  C   UNL     1       4.064   4.859  18.031  0.00  0.00    +0.000 C 
ATOM      8  C   UNL     1       3.068   5.530  18.961  0.00  0.00    +0.000 A 
ATOM      9  C   UNL     1       2.767   6.888  18.769  0.00  0.00    +0.000 A 
ATOM     10  C   UNL     1       1.880   7.591  19.587  0.00  0.00    +0.000 A 
ATOM     11  C   UNL     1       1.243   6.869  20.596  0.00  0.00    +0.000 A 
ATOM     12  C   UNL     1       1.492   5.509  20.774  0.00  0.00    +0.000 A 
ATOM     13  C   UNL     1       2.407   4.810  19.980  0.00  0.00    +0.000 A 
ATOM     14  N   UNL     1       2.631   3.454  20.163  0.00  0.00    +0.000 N 
ATOM     15  C   UNL     1       2.429   2.780  21.442  0.00  0.00    +0.000 C 
ATOM     16  C   UNL     1       3.237   2.687  19.063  0.00  0.00    +0.000 C 
ENDROOT
BRANCH  10  17
ATOM     17  C   UNL     1       1.627   9.027  19.382  0.00  0.00    +0.000 A 
ATOM     18  C   UNL     1       0.912   9.781  20.322  0.00  0.00    +0.000 A 
ATOM     19  C   UNL     1       0.643  11.130  20.122  0.00  0.00    +0.000 A 
ATOM     20  C   UNL     1       1.098  11.761  18.964  0.00  0.00    +0.000 A 
ATOM     21  C   UNL     1       1.830  11.046  18.027  0.00  0.00    +0.000 A 
ATOM     22  C   UNL     1       2.099   9.690  18.229  0.00  0.00    +0.000 A 
ENDBRANCH  10  17
BRANCH   1  24
ATOM     23  C   UNL     1       7.547   8.080  17.573  0.00  0.00    +0.000 C 
ATOM     24  C   UNL     1       7.152   6.814  16.820  0.00  0.00    +0.000 C 
ENDBRANCH   1  24
BRANCH  16  25
ATOM     25  C   UNL     1       2.150   2.371  18.005  0.00  0.00    +0.000 C 
BRANCH  25  26
ATOM     26  O   UNL     1       1.043   1.714  18.628  0.00  0.00    +0.000 OA
ATOM     27  H   UNL     1       0.785   2.316  19.351  0.00  0.00    +0.000 HD
ENDBRANCH  25  26
ENDBRANCH  16  25
TORSDOF 4
ENDMDL
MODEL 4
REMARK VINA RESULT:      -7.8      2.618      4.711
REMARK  Name = 
REMARK  6 active torsions:
REMARK  status: ('A' for Active; 'I' for Inactive)
REMARK    1  A    between atoms: C_1  and  C_2
REMARK    2  A    between atoms: C_2  and  C_3
REMARK    3  A    between atoms: C_12  and  C_13
REMARK    4  A    between atoms: N_22  and  C_23
REMARK    5  A    between atoms: C_24  and  C_25
REMARK    6  A    between atoms: C_25  and  O_26
REMARK                            x       y       z     vdW  Elec       q    Type
REMARK                         _______ _______ _______ _____ _____    ______ ____
ROOT
ATOM      1  C   UNL     1       2.073   3.778  20.649  0.00  0.00    +0.000 C 
ATOM      2  O   UNL     1       2.290   4.631  21.515  0.00  0.00    +0.000 OA
ATOM      3  N   UNL     1       2.716   3.803  19.427  0.00  0.00    +0.000 N 
ATOM      4  C   UNL     1       2.535   2.848  18.339  0.00  0.00    +0.000 C 
ATOM      5  C   UNL     1       3.684   3.112  17.372  0.00  0.00    +0.000 C 
ATOM      6  C   UNL     1       4.739   3.807  18.249  0.00  0.00    +0.000 C 
ATOM      7  C   UNL     1       3.890   4.667  19.189  0.00  0.00    +0.000 C 
ATOM      8  C   UNL     1       3.553   6.023  18.594  0.00  0.00    +0.000 A 
ATOM      9  C   UNL     1       2.648   6.856  19.272  0.00  0.00    +0.000 A 
ATOM     10  C   UNL     1       2.264   8.109  18.791  0.00  0.00    +0.000 A 
ATOM     11  C   UNL     1       2.866   8.544  17.610  0.00  0.00    +0.000 A 
ATOM     12  C   UNL     1       3.802   7.754  16.946  0.00  0.00    +0.000 A 
ATOM     13  C   UNL     1       4.162   6.482  17.406  0.00  0.00    +0.000 A 
ATOM     14  N   UNL     1       5.106   5.716  16.740  0.00  0.00    +0.000 N 
ATOM     15  C   UNL     1       5.373   5.848  15.311  0.00  0.00    +0.000 C 
ATOM     16  C   UNL     1       5.764   4.621  17.471  0.00  0.00    +0.000 C 
ENDROOT
BRANCH  10  17
ATOM     17  C   UNL     1       1.275   8.933  19.507  0.00  0.00    +0.000 A 
ATOM     18  C   UNL     1       0.999   8.722  20.864  0.00  0.00    +0.000 A 
ATOM     19  C   UNL     1       0.046   9.475  21.540  0.00  0.00    +0.000 A 
ATOM     20  C   UNL     1      -0.655  10.472  20.861  0.00  0.00    +0.000 A 
ATOM     21  C   UNL     1      -0.386  10.720  19.523  0.00  0.00    +0.000 A 
ATOM     22  C   UNL     1       0.573   9.962  18.845  0.00  0.00    +0.000 A 
ENDBRANCH  10  17
BRANCH   1  24
ATOM     23  C   UNL     1       1.215   2.165  22.381  0.00  0.00    +0.000 C 
ATOM     24  C   UNL     1       1.137   2.612  20.925  0.00  0.00    +0.000 C 
ENDBRANCH   1  24
BRANCH  16  25
ATOM     25  C   UNL     1       6.873   5.211  18.377  0.00  0.00    +0.000 C 
BRANCH  25  26
ATOM     26  O   UNL     1       7.810   5.945  17.584  0.00  0.00    +0.000 OA
ATOM     27  H   UNL     1       7.960   5.376  16.805  0.00  0.00    +0.000 HD
ENDBRANCH  25  26
ENDBRANCH  16  25
TORSDOF 4
ENDMDL
MODEL 5
REMARK VINA RESULT:      -6.9      5.743     10.643
REMARK  Name = 
REMARK  6 active torsions:
REMARK  status: ('A' for Active; 'I' for Inactive)
REMARK    1  A    between atoms: C_1  and  C_2
REMARK    2  A    between atoms: C_2  and  C_3
REMARK    3  A    between atoms: C_12  and  C_13
REMARK    4  A    between atoms: N_22  and  C_23
REMARK    5  A    between atoms: C_24  and  C_25
REMARK    6  A    between atoms: C_25  and  O_26
REMARK                            x       y       z     vdW  Elec       q    Type
REMARK                         _______ _______ _______ _____ _____    ______ ____
ROOT
ATOM      1  C   UNL     1      -3.028  11.446  17.224  0.00  0.00    +0.000 C 
ATOM      2  O   UNL     1      -1.859  11.646  16.878  0.00  0.00    +0.000 OA
ATOM      3  N   UNL     1      -3.468  11.737  18.500  0.00  0.00    +0.000 N 
ATOM      4  C   UNL     1      -4.821  11.543  19.010  0.00  0.00    +0.000 C 
ATOM      5  C   UNL     1      -4.873  12.307  20.328  0.00  0.00    +0.000 C 
ATOM      6  C   UNL     1      -3.734  13.332  20.193  0.00  0.00    +0.000 C 
ATOM      7  C   UNL     1      -2.660  12.552  19.430  0.00  0.00    +0.000 C 
ATOM      8  C   UNL     1      -1.764  11.741  20.349  0.00  0.00    +0.000 A 
ATOM      9  C   UNL     1      -0.838  10.851  19.782  0.00  0.00    +0.000 A 
ATOM     10  C   UNL     1       0.012  10.050  20.549  0.00  0.00    +0.000 A 
ATOM     11  C   UNL     1      -0.052  10.207  21.934  0.00  0.00    +0.000 A 
ATOM     12  C   UNL     1      -0.930  11.119  22.515  0.00  0.00    +0.000 A 
ATOM     13  C   UNL     1      -1.808  11.897  21.752  0.00  0.00    +0.000 A 
ATOM     14  N   UNL     1      -2.666  12.809  22.347  0.00  0.00    +0.000 N 
ATOM     15  C   UNL     1      -3.150  12.669  23.717  0.00  0.00    +0.000 C 
ATOM     16  C   UNL     1      -3.229  13.887  21.519  0.00  0.00    +0.000 C 
ENDROOT
BRANCH  10  17
ATOM     17  C   UNL     1       0.936   9.093  19.918  0.00  0.00    +0.000 A 
ATOM     18  C   UNL     1       1.382   9.273  18.602  0.00  0.00    +0.000 A 
ATOM     19  C   UNL     1       2.231   8.360  17.988  0.00  0.00    +0.000 A 
ATOM     20  C   UNL     1       2.661   7.235  18.694  0.00  0.00    +0.000 A 
ATOM     21  C   UNL     1       2.255   7.042  20.006  0.00  0.00    +0.000 A 
ATOM     22  C   UNL     1       1.401   7.962  20.621  0.00  0.00    +0.000 A 
ENDBRANCH  10  17
BRANCH   1  24
ATOM     23  C   UNL     1      -3.393  10.392  14.967  0.00  0.00    +0.000 C 
ATOM     24  C   UNL     1      -4.058  10.941  16.226  0.00  0.00    +0.000 C 
ENDBRANCH   1  24
BRANCH  16  25
ATOM     25  C   UNL     1      -2.164  14.996  21.337  0.00  0.00    +0.000 C 
BRANCH  25  26
ATOM     26  O   UNL     1      -2.552  15.873  20.276  0.00  0.00    +0.000 OA
ATOM     27  H   UNL     1      -1.734  16.357  20.056  0.00  0.00    +0.000 HD
ENDBRANCH  25  26
ENDBRANCH  16  25
TORSDOF 4
ENDMDL
MODEL 6
REMARK VINA RESULT:      -6.7      6.004      9.635
REMARK  Name = 
REMARK  6 active torsions:
REMARK  status: ('A' for Active; 'I' for Inactive)
REMARK    1  A    between atoms: C_1  and  C_2
REMARK    2  A    between atoms: C_2  and  C_3
REMARK    3  A    between atoms: C_12  and  C_13
REMARK    4  A    between atoms: N_22  and  C_23
REMARK    5  A    between atoms: C_24  and  C_25
REMARK    6  A    between atoms: C_25  and  O_26
REMARK                            x       y       z     vdW  Elec       q    Type
REMARK                         _______ _______ _______ _____ _____    ______ ____
ROOT
ATOM      1  C   UNL     1      -2.031  13.014  22.479  0.00  0.00    +0.000 C 
ATOM      2  O   UNL     1      -2.528  13.940  21.830  0.00  0.00    +0.000 OA
ATOM      3  N   UNL     1      -1.188  12.089  21.897  0.00  0.00    +0.000 N 
ATOM      4  C   UNL     1      -0.549  10.963  22.569  0.00  0.00    +0.000 C 
ATOM      5  C   UNL     1       0.514  10.460  21.598  0.00  0.00    +0.000 C 
ATOM      6  C   UNL     1       0.777  11.676  20.693  0.00  0.00    +0.000 C 
ATOM      7  C   UNL     1      -0.611  12.306  20.554  0.00  0.00    +0.000 C 
ATOM      8  C   UNL     1      -1.420  11.693  19.424  0.00  0.00    +0.000 A 
ATOM      9  C   UNL     1      -2.768  12.057  19.279  0.00  0.00    +0.000 A 
ATOM     10  C   UNL     1      -3.593  11.530  18.283  0.00  0.00    +0.000 A 
ATOM     11  C   UNL     1      -3.005  10.647  17.378  0.00  0.00    +0.000 A 
ATOM     12  C   UNL     1      -1.656  10.309  17.475  0.00  0.00    +0.000 A 
ATOM     13  C   UNL     1      -0.836  10.807  18.492  0.00  0.00    +0.000 A 
ATOM     14  N   UNL     1       0.507  10.470  18.565  0.00  0.00    +0.000 N 
ATOM     15  C   UNL     1       1.046   9.227  18.023  0.00  0.00    +0.000 C 
ATOM     16  C   UNL     1       1.406  11.332  19.349  0.00  0.00    +0.000 C 
ENDROOT
BRANCH  10  17
ATOM     17  C   UNL     1      -5.015  11.901  18.194  0.00  0.00    +0.000 A 
ATOM     18  C   UNL     1      -5.535  12.523  17.051  0.00  0.00    +0.000 A 
ATOM     19  C   UNL     1      -6.869  12.902  16.970  0.00  0.00    +0.000 A 
ATOM     20  C   UNL     1      -7.723  12.657  18.046  0.00  0.00    +0.000 A 
ATOM     21  C   UNL     1      -7.243  12.022  19.181  0.00  0.00    +0.000 A 
ATOM     22  C   UNL     1      -5.901  11.640  19.261  0.00  0.00    +0.000 A 
ENDBRANCH  10  17
BRANCH   1  24
ATOM     23  C   UNL     1      -3.730  12.590  24.289  0.00  0.00    +0.000 C 
ATOM     24  C   UNL     1      -2.269  12.901  23.977  0.00  0.00    +0.000 C 
ENDBRANCH   1  24
BRANCH  16  25
ATOM     25  C   UNL     1       1.759  12.589  18.515  0.00  0.00    +0.000 C 
BRANCH  25  26
ATOM     26  O   UNL     1       2.561  12.216  17.391  0.00  0.00    +0.000 OA
ATOM     27  H   UNL     1       2.650  11.248  17.472  0.00  0.00    +0.000 HD
ENDBRANCH  25  26
ENDBRANCH  16  25
TORSDOF 4
ENDMDL
MODEL 7
REMARK VINA RESULT:      -6.5      9.055     12.238
REMARK  Name = 
REMARK  6 active torsions:
REMARK  status: ('A' for Active; 'I' for Inactive)
REMARK    1  A    between atoms: C_1  and  C_2
REMARK    2  A    between atoms: C_2  and  C_3
REMARK    3  A    between atoms: C_12  and  C_13
REMARK    4  A    between atoms: N_22  and  C_23
REMARK    5  A    between atoms: C_24  and  C_25
REMARK    6  A    between atoms: C_25  and  O_26
REMARK                            x       y       z     vdW  Elec       q    Type
REMARK                         _______ _______ _______ _____ _____    ______ ____
ROOT
ATOM      1  C   UNL     1      -0.892  14.872  20.472  0.00  0.00    +0.000 C 
ATOM      2  O   UNL     1      -0.410  13.750  20.291  0.00  0.00    +0.000 OA
ATOM      3  N   UNL     1      -2.099  15.050  21.119  0.00  0.00    +0.000 N 
ATOM      4  C   UNL     1      -2.754  16.326  21.385  0.00  0.00    +0.000 C 
ATOM      5  C   UNL     1      -3.858  16.014  22.389  0.00  0.00    +0.000 C 
ATOM      6  C   UNL     1      -3.391  14.700  23.040  0.00  0.00    +0.000 C 
ATOM      7  C   UNL     1      -2.741  13.953  21.873  0.00  0.00    +0.000 C 
ATOM      8  C   UNL     1      -3.743  13.148  21.064  0.00  0.00    +0.000 A 
ATOM      9  C   UNL     1      -3.320  12.540  19.870  0.00  0.00    +0.000 A 
ATOM     10  C   UNL     1      -4.176  11.799  19.053  0.00  0.00    +0.000 A 
ATOM     11  C   UNL     1      -5.486  11.629  19.500  0.00  0.00    +0.000 A 
ATOM     12  C   UNL     1      -5.913  12.183  20.705  0.00  0.00    +0.000 A 
ATOM     13  C   UNL     1      -5.069  12.957  21.508  0.00  0.00    +0.000 A 
ATOM     14  N   UNL     1      -5.508  13.489  22.711  0.00  0.00    +0.000 N 
ATOM     15  C   UNL     1      -6.909  13.794  22.982  0.00  0.00    +0.000 C 
ATOM     16  C   UNL     1      -4.503  13.900  23.705  0.00  0.00    +0.000 C 
ENDROOT
BRANCH  10  17
ATOM     17  C   UNL     1      -3.706  11.218  17.784  0.00  0.00    +0.000 A 
ATOM     18  C   UNL     1      -4.407  11.421  16.587  0.00  0.00    +0.000 A 
ATOM     19  C   UNL     1      -3.987  10.853  15.391  0.00  0.00    +0.000 A 
ATOM     20  C   UNL     1      -2.837  10.062  15.368  0.00  0.00    +0.000 A 
ATOM     21  C   UNL     1      -2.110   9.862  16.532  0.00  0.00    +0.000 A 
ATOM     22  C   UNL     1      -2.533  10.435  17.734  0.00  0.00    +0.000 A 
ENDBRANCH  10  17
BRANCH   1  24
ATOM     23  C   UNL     1      -0.306  16.411  18.567  0.00  0.00    +0.000 C 
ATOM     24  C   UNL     1      -0.130  16.121  20.055  0.00  0.00    +0.000 C 
ENDBRANCH   1  24
BRANCH  16  25
ATOM     25  C   UNL     1      -3.978  12.645  24.444  0.00  0.00    +0.000 C 
BRANCH  25  26
ATOM     26  O   UNL     1      -4.972  12.164  25.353  0.00  0.00    +0.000 OA
ATOM     27  H   UNL     1      -4.949  12.802  26.090  0.00  0.00    +0.000 HD
ENDBRANCH  25  26
ENDBRANCH  16  25
TORSDOF 4
ENDMDL
MODEL 8
REMARK VINA RESULT:      -6.4      8.542     11.714
REMARK  Name = 
REMARK  6 active torsions:
REMARK  status: ('A' for Active; 'I' for Inactive)
REMARK    1  A    between atoms: C_1  and  C_2
REMARK    2  A    between atoms: C_2  and  C_3
REMARK    3  A    between atoms: C_12  and  C_13
REMARK    4  A    between atoms: N_22  and  C_23
REMARK    5  A    between atoms: C_24  and  C_25
REMARK    6  A    between atoms: C_25  and  O_26
REMARK                            x       y       z     vdW  Elec       q    Type
REMARK                         _______ _______ _______ _____ _____    ______ ____
ROOT
ATOM      1  C   UNL     1       0.124  13.368  21.283  0.00  0.00    +0.000 C 
ATOM      2  O   UNL     1       0.144  12.158  21.037  0.00  0.00    +0.000 OA
ATOM      3  N   UNL     1      -0.991  13.983  21.817  0.00  0.00    +0.000 N 
ATOM      4  C   UNL     1      -1.119  15.399  22.145  0.00  0.00    +0.000 C 
ATOM      5  C   UNL     1      -2.383  15.507  22.991  0.00  0.00    +0.000 C 
ATOM      6  C   UNL     1      -2.566  14.084  23.546  0.00  0.00    +0.000 C 
ATOM      7  C   UNL     1      -2.110  13.201  22.381  0.00  0.00    +0.000 C 
ATOM      8  C   UNL     1      -3.227  12.914  21.393  0.00  0.00    +0.000 A 
ATOM      9  C   UNL     1      -2.920  12.253  20.193  0.00  0.00    +0.000 A 
ATOM     10  C   UNL     1      -3.878  11.966  19.219  0.00  0.00    +0.000 A 
ATOM     11  C   UNL     1      -5.197  12.317  19.507  0.00  0.00    +0.000 A 
ATOM     12  C   UNL     1      -5.531  12.931  20.713  0.00  0.00    +0.000 A 
ATOM     13  C   UNL     1      -4.569  13.253  21.676  0.00  0.00    +0.000 A 
ATOM     14  N   UNL     1      -4.922  13.852  22.875  0.00  0.00    +0.000 N 
ATOM     15  C   UNL     1      -6.112  14.683  23.030  0.00  0.00    +0.000 C 
ATOM     16  C   UNL     1      -3.983  13.767  24.005  0.00  0.00    +0.000 C 
ENDROOT
BRANCH  10  17
ATOM     17  C   UNL     1      -3.507  11.314  17.952  0.00  0.00    +0.000 A 
ATOM     18  C   UNL     1      -2.392  10.469  17.867  0.00  0.00    +0.000 A 
ATOM     19  C   UNL     1      -2.019   9.873  16.669  0.00  0.00    +0.000 A 
ATOM     20  C   UNL     1      -2.769  10.110  15.516  0.00  0.00    +0.000 A 
ATOM     21  C   UNL     1      -3.892  10.922  15.574  0.00  0.00    +0.000 A 
ATOM     22  C   UNL     1      -4.266  11.520  16.781  0.00  0.00    +0.000 A 
ENDBRANCH  10  17
BRANCH   1  24
ATOM     23  C   UNL     1       1.601  14.522  19.601  0.00  0.00    +0.000 C 
ATOM     24  C   UNL     1       1.366  14.222  21.079  0.00  0.00    +0.000 C 
ENDBRANCH   1  24
BRANCH  16  25
ATOM     25  C   UNL     1      -4.101  12.369  24.660  0.00  0.00    +0.000 C 
BRANCH  25  26
ATOM     26  O   UNL     1      -5.472  12.082  24.950  0.00  0.00    +0.000 OA
ATOM     27  H   UNL     1      -5.738  11.457  24.250  0.00  0.00    +0.000 HD
ENDBRANCH  25  26
ENDBRANCH  16  25
TORSDOF 4
ENDMDL
MODEL 9
REMARK VINA RESULT:      -6.3      8.165     11.378
REMARK  Name = 
REMARK  6 active torsions:
REMARK  status: ('A' for Active; 'I' for Inactive)
REMARK    1  A    between atoms: C_1  and  C_2
REMARK    2  A    between atoms: C_2  and  C_3
REMARK    3  A    between atoms: C_12  and  C_13
REMARK    4  A    between atoms: N_22  and  C_23
REMARK    5  A    between atoms: C_24  and  C_25
REMARK    6  A    between atoms: C_25  and  O_26
REMARK                            x       y       z     vdW  Elec       q    Type
REMARK                         _______ _______ _______ _____ _____    ______ ____
ROOT
ATOM      1  C   UNL     1       0.476  12.762  21.075  0.00  0.00    +0.000 C 
ATOM      2  O   UNL     1       0.333  11.560  20.828  0.00  0.00    +0.000 OA
ATOM      3  N   UNL     1      -0.550  13.523  21.600  0.00  0.00    +0.000 N 
ATOM      4  C   UNL     1      -0.488  14.943  21.929  0.00  0.00    +0.000 C 
ATOM      5  C   UNL     1      -1.733  15.221  22.764  0.00  0.00    +0.000 C 
ATOM      6  C   UNL     1      -2.111  13.836  23.316  0.00  0.00    +0.000 C 
ATOM      7  C   UNL     1      -1.770  12.900  22.154  0.00  0.00    +0.000 C 
ATOM      8  C   UNL     1      -2.907  12.767  21.157  0.00  0.00    +0.000 A 
ATOM      9  C   UNL     1      -2.682  12.070  19.959  0.00  0.00    +0.000 A 
ATOM     10  C   UNL     1      -3.662  11.916  18.976  0.00  0.00    +0.000 A 
ATOM     11  C   UNL     1      -4.924  12.442  19.254  0.00  0.00    +0.000 A 
ATOM     12  C   UNL     1      -5.182  13.096  20.457  0.00  0.00    +0.000 A 
ATOM     13  C   UNL     1      -4.193  13.284  21.428  0.00  0.00    +0.000 A 
ATOM     14  N   UNL     1      -4.472  13.925  22.625  0.00  0.00    +0.000 N 
ATOM     15  C   UNL     1      -5.539  14.909  22.771  0.00  0.00    +0.000 C 
ATOM     16  C   UNL     1      -3.562  13.714  23.763  0.00  0.00    +0.000 C 
ENDROOT
BRANCH  10  17
ATOM     17  C   UNL     1      -3.373  11.220  17.711  0.00  0.00    +0.000 A 
ATOM     18  C   UNL     1      -4.169  11.414  16.574  0.00  0.00    +0.000 A 
ATOM     19  C   UNL     1      -3.920  10.739  15.385  0.00  0.00    +0.000 A 
ATOM     20  C   UNL     1      -2.850   9.848  15.308  0.00  0.00    +0.000 A 
ATOM     21  C   UNL     1      -2.030   9.652  16.410  0.00  0.00    +0.000 A 
ATOM     22  C   UNL     1      -2.281  10.332  17.605  0.00  0.00    +0.000 A 
ENDBRANCH  10  17
BRANCH   1  24
ATOM     23  C   UNL     1       2.135  13.654  19.404  0.00  0.00    +0.000 C 
ATOM     24  C   UNL     1       1.823  13.440  20.882  0.00  0.00    +0.000 C 
ENDBRANCH   1  24
BRANCH  16  25
ATOM     25  C   UNL     1      -3.875  12.345  24.416  0.00  0.00    +0.000 C 
BRANCH  25  26
ATOM     26  O   UNL     1      -5.228  12.324  24.878  0.00  0.00    +0.000 OA
ATOM     27  H   UNL     1      -5.484  13.265  24.908  0.00  0.00    +0.000 HD
ENDBRANCH  25  26
ENDBRANCH  16  25
TORSDOF 4
ENDMDL
