MODEL 1
REMARK VINA RESULT:      -6.6      0.000      0.000
REMARK  Name = 
REMARK  11 active torsions:
REMARK  status: ('A' for Active; 'I' for Inactive)
REMARK    1  A    between atoms: C_1  and  C_2
REMARK    2  A    between atoms: C_2  and  O_3
REMARK    3  A    between atoms: O_3  and  C_4
REMARK    4  A    between atoms: C_4  and  C_6
REMARK    5  A    between atoms: C_6  and  N_7
REMARK    6  A    between atoms: C_9  and  C_10
REMARK    7  A    between atoms: C_13  and  C_14
REMARK    8  A    between atoms: C_22  and  C_23
REMARK    9  A    between atoms: C_23  and  O_25
REMARK   10  A    between atoms: O_25  and  C_26
REMARK   11  A    between atoms: C_26  and  C_27
REMARK                            x       y       z     vdW  Elec       q    Type
REMARK                         _______ _______ _______ _____ _____    ______ ____
ROOT
ATOM      1  C   UNL     1       3.771   7.354  17.390  0.00  0.00    +0.000 C 
ATOM      2  O   UNL     1       4.008   7.985  16.356  0.00  0.00    +0.000 OA
ATOM      3  N   UNL     1       4.491   6.200  17.689  0.00  0.00    +0.000 N 
ATOM      4  C   UNL     1       4.480   5.456  18.950  0.00  0.00    +0.000 C 
ATOM      5  S   UNL     1       6.270   5.417  19.362  0.00  0.00    +0.000 S 
ATOM      6  C   UNL     1       6.759   5.236  17.631  0.00  0.00    +0.000 C 
ATOM      7  C   UNL     1       5.656   5.918  16.830  0.00  0.00    +0.000 C 
ENDROOT
BRANCH   4   8
ATOM      8  C   UNL     1       3.875   4.054  18.824  0.00  0.00    +0.000 A 
ATOM      9  C   UNL     1       4.484   2.922  19.414  0.00  0.00    +0.000 A 
ATOM     10  C   UNL     1       3.923   1.648  19.301  0.00  0.00    +0.000 A 
ATOM     11  C   UNL     1       2.724   1.468  18.622  0.00  0.00    +0.000 A 
ATOM     12  C   UNL     1       2.084   2.572  18.070  0.00  0.00    +0.000 A 
ATOM     13  C   UNL     1       2.642   3.849  18.182  0.00  0.00    +0.000 A 
ENDBRANCH   4   8
BRANCH   1  16
ATOM     14  N   UNL     1       1.252   9.111  19.213  0.00  0.00    +0.000 N 
ATOM     15  C   UNL     1       1.986   8.976  18.080  0.00  0.00    +0.000 A 
ATOM     16  C   UNL     1       2.789   7.878  18.324  0.00  0.00    +0.000 A 
ATOM     17  N   UNL     1       2.472   7.366  19.557  0.00  0.00    +0.000 NA
ATOM     18  N   UNL     1       1.523   8.127  20.091  0.00  0.00    +0.000 NA
BRANCH  14  19
ATOM     19  C   UNL     1       0.313  10.157  19.540  0.00  0.00    +0.000 C 
BRANCH  19  20
ATOM     20  C   UNL     1       1.012  11.244  20.304  0.00  0.00    +0.000 C 
ATOM     21  O   UNL     1       1.549  12.224  19.803  0.00  0.00    +0.000 OA
BRANCH  20  22
ATOM     22  O   UNL     1       0.974  10.972  21.639  0.00  0.00    +0.000 OA
BRANCH  22  24
ATOM     23  C   UNL     1      -0.287   9.715  23.224  0.00  0.00    +0.000 C 
ATOM     24  C   UNL     1      -0.345  10.820  22.183  0.00  0.00    +0.000 C 
ENDBRANCH  22  24
ENDBRANCH  20  22
ENDBRANCH  19  20
ENDBRANCH  14  19
ENDBRANCH   1  16
BRANCH   7  25
ATOM     25  C   UNL     1       5.340   5.148  15.541  0.00  0.00    +0.000 C 
ATOM     26  O   UNL     1       4.567   4.197  15.498  0.00  0.00    +0.000 OA
BRANCH  25  27
ATOM     27  O   UNL     1       6.121   5.557  14.503  0.00  0.00    +0.000 OA
BRANCH  27  28
ATOM     28  C   UNL     1       7.001   4.580  13.934  0.00  0.00    +0.000 C 
ATOM     29  C   UNL     1       6.334   3.777  12.835  0.00  0.00    +0.000 C 
ENDBRANCH  27  28
ENDBRANCH  25  27
ENDBRANCH   7  25
TORSDOF 9
ENDMDL
MODEL 2
REMARK VINA RESULT:      -6.6      3.428      8.971
REMARK  Name = 
REMARK  11 active torsions:
REMARK  status: ('A' for Active; 'I' for Inactive)
REMARK    1  A    between atoms: C_1  and  C_2
REMARK    2  A    between atoms: C_2  and  O_3
REMARK    3  A    between atoms: O_3  and  C_4
REMARK    4  A    between atoms: C_4  and  C_6
REMARK    5  A    between atoms: C_6  and  N_7
REMARK    6  A    between atoms: C_9  and  C_10
REMARK    7  A    between atoms: C_13  and  C_14
REMARK    8  A    between atoms: C_22  and  C_23
REMARK    9  A    between atoms: C_23  and  O_25
REMARK   10  A    between atoms: O_25  and  C_26
REMARK   11  A    between atoms: C_26  and  C_27
REMARK                            x       y       z     vdW  Elec       q    Type
REMARK                         _______ _______ _______ _____ _____    ______ ____
ROOT
ATOM      1  C   UNL     1       1.297   9.108  20.716  0.00  0.00    +0.000 C 
ATOM      2  O   UNL     1       1.566   8.839  21.890  0.00  0.00    +0.000 OA
ATOM      3  N   UNL     1       0.592  10.267  20.404  0.00  0.00    +0.000 N 
ATOM      4  C   UNL     1       0.370  10.832  19.072  0.00  0.00    +0.000 C 
ATOM      5  S   UNL     1       1.013  12.539  19.291  0.00  0.00    +0.000 S 
ATOM      6  C   UNL     1       0.393  12.655  20.985  0.00  0.00    +0.000 C 
ATOM      7  C   UNL     1       0.389  11.223  21.508  0.00  0.00    +0.000 C 
ENDROOT
BRANCH   4   8
ATOM      8  C   UNL     1      -1.101  10.809  18.639  0.00  0.00    +0.000 A 
ATOM      9  C   UNL     1      -1.987  11.867  18.950  0.00  0.00    +0.000 A 
ATOM     10  C   UNL     1      -3.324  11.842  18.545  0.00  0.00    +0.000 A 
ATOM     11  C   UNL     1      -3.810  10.778  17.795  0.00  0.00    +0.000 A 
ATOM     12  C   UNL     1      -2.947   9.747  17.440  0.00  0.00    +0.000 A 
ATOM     13  C   UNL     1      -1.608   9.768  17.842  0.00  0.00    +0.000 A 
ENDBRANCH   4   8
BRANCH   1  16
ATOM     14  N   UNL     1       2.572   6.510  18.621  0.00  0.00    +0.000 N 
ATOM     15  C   UNL     1       2.153   6.915  19.846  0.00  0.00    +0.000 A 
ATOM     16  C   UNL     1       1.797   8.238  19.664  0.00  0.00    +0.000 A 
ATOM     17  N   UNL     1       1.960   8.559  18.340  0.00  0.00    +0.000 NA
ATOM     18  N   UNL     1       2.431   7.490  17.708  0.00  0.00    +0.000 NA
BRANCH  14  19
ATOM     19  C   UNL     1       3.145   5.237  18.258  0.00  0.00    +0.000 C 
BRANCH  19  20
ATOM     20  C   UNL     1       2.052   4.226  18.064  0.00  0.00    +0.000 C 
ATOM     21  O   UNL     1       1.118   4.340  17.280  0.00  0.00    +0.000 OA
BRANCH  20  22
ATOM     22  O   UNL     1       2.244   3.167  18.900  0.00  0.00    +0.000 OA
BRANCH  22  24
ATOM     23  C   UNL     1       1.368   3.292  21.114  0.00  0.00    +0.000 C 
ATOM     24  C   UNL     1       1.101   2.817  19.696  0.00  0.00    +0.000 C 
ENDBRANCH  22  24
ENDBRANCH  20  22
ENDBRANCH  19  20
ENDBRANCH  14  19
ENDBRANCH   1  16
BRANCH   7  25
ATOM     25  C   UNL     1      -0.841  10.949  22.385  0.00  0.00    +0.000 C 
ATOM     26  O   UNL     1      -1.009   9.902  23.000  0.00  0.00    +0.000 OA
BRANCH  25  27
ATOM     27  O   UNL     1      -1.768  11.941  22.280  0.00  0.00    +0.000 OA
BRANCH  27  28
ATOM     28  C   UNL     1      -2.754  12.014  23.317  0.00  0.00    +0.000 C 
ATOM     29  C   UNL     1      -3.118  13.443  23.664  0.00  0.00    +0.000 C 
ENDBRANCH  27  28
ENDBRANCH  25  27
ENDBRANCH   7  25
TORSDOF 9
ENDMDL
MODEL 3
REMARK VINA RESULT:      -6.6      7.074      9.187
REMARK  Name = 
REMARK  11 active torsions:
REMARK  status: ('A' for Active; 'I' for Inactive)
REMARK    1  A    between atoms: C_1  and  C_2
REMARK    2  A    between atoms: C_2  and  O_3
REMARK    3  A    between atoms: O_3  and  C_4
REMARK    4  A    between atoms: C_4  and  C_6
REMARK    5  A    between atoms: C_6  and  N_7
REMARK    6  A    between atoms: C_9  and  C_10
REMARK    7  A    between atoms: C_13  and  C_14
REMARK    8  A    between atoms: C_22  and  C_23
REMARK    9  A    between atoms: C_23  and  O_25
REMARK   10  A    between atoms: O_25  and  C_26
REMARK   11  A    between atoms: C_26  and  C_27
REMARK                            x       y       z     vdW  Elec       q    Type
REMARK                         _______ _______ _______ _____ _____    ______ ____
ROOT
ATOM      1  C   UNL     1      -1.139  13.105  21.343  0.00  0.00    +0.000 C 
ATOM      2  O   UNL     1      -0.469  14.107  21.608  0.00  0.00    +0.000 OA
ATOM      3  N   UNL     1      -0.752  12.252  20.313  0.00  0.00    +0.000 N 
ATOM      4  C   UNL     1      -1.308  10.934  20.003  0.00  0.00    +0.000 C 
ATOM      5  S   UNL     1       0.205   9.891  20.020  0.00  0.00    +0.000 S 
ATOM      6  C   UNL     1       1.223  11.192  19.286  0.00  0.00    +0.000 C 
ATOM      7  C   UNL     1       0.579  12.501  19.728  0.00  0.00    +0.000 C 
ENDROOT
BRANCH   4   8
ATOM      8  C   UNL     1      -2.040  10.884  18.658  0.00  0.00    +0.000 A 
ATOM      9  C   UNL     1      -1.606  10.050  17.601  0.00  0.00    +0.000 A 
ATOM     10  C   UNL     1      -2.284  10.004  16.380  0.00  0.00    +0.000 A 
ATOM     11  C   UNL     1      -3.430  10.765  16.186  0.00  0.00    +0.000 A 
ATOM     12  C   UNL     1      -3.901  11.560  17.225  0.00  0.00    +0.000 A 
ATOM     13  C   UNL     1      -3.227  11.608  18.449  0.00  0.00    +0.000 A 
ENDBRANCH   4   8
BRANCH   1  16
ATOM     14  N   UNL     1      -4.293  12.758  22.983  0.00  0.00    +0.000 N 
ATOM     15  C   UNL     1      -3.558  13.301  21.981  0.00  0.00    +0.000 A 
ATOM     16  C   UNL     1      -2.289  12.788  22.174  0.00  0.00    +0.000 A 
ATOM     17  N   UNL     1      -2.321  11.923  23.239  0.00  0.00    +0.000 NA
ATOM     18  N   UNL     1      -3.557  11.908  23.724  0.00  0.00    +0.000 NA
BRANCH  14  19
ATOM     19  C   UNL     1      -5.672  13.026  23.315  0.00  0.00    +0.000 C 
BRANCH  19  20
ATOM     20  C   UNL     1      -6.520  12.921  22.080  0.00  0.00    +0.000 C 
ATOM     21  O   UNL     1      -7.096  13.857  21.540  0.00  0.00    +0.000 OA
BRANCH  20  22
ATOM     22  O   UNL     1      -6.566  11.626  21.657  0.00  0.00    +0.000 OA
BRANCH  22  24
ATOM     23  C   UNL     1      -6.802  10.695  19.476  0.00  0.00    +0.000 C 
ATOM     24  C   UNL     1      -7.531  11.366  20.627  0.00  0.00    +0.000 C 
ENDBRANCH  22  24
ENDBRANCH  20  22
ENDBRANCH  19  20
ENDBRANCH  14  19
ENDBRANCH   1  16
BRANCH   7  25
ATOM     25  C   UNL     1       0.609  13.548  18.606  0.00  0.00    +0.000 C 
ATOM     26  O   UNL     1      -0.402  13.993  18.074  0.00  0.00    +0.000 OA
BRANCH  25  27
ATOM     27  O   UNL     1       1.880  13.807  18.190  0.00  0.00    +0.000 OA
BRANCH  27  28
ATOM     28  C   UNL     1       2.393  15.117  18.461  0.00  0.00    +0.000 C 
ATOM     29  C   UNL     1       3.478  15.523  17.484  0.00  0.00    +0.000 C 
ENDBRANCH  27  28
ENDBRANCH  25  27
ENDBRANCH   7  25
TORSDOF 9
ENDMDL
MODEL 4
REMARK VINA RESULT:      -6.4      3.340      9.090
REMARK  Name = 
REMARK  11 active torsions:
REMARK  status: ('A' for Active; 'I' for Inactive)
REMARK    1  A    between atoms: C_1  and  C_2
REMARK    2  A    between atoms: C_2  and  O_3
REMARK    3  A    between atoms: O_3  and  C_4
REMARK    4  A    between atoms: C_4  and  C_6
REMARK    5  A    between atoms: C_6  and  N_7
REMARK    6  A    between atoms: C_9  and  C_10
REMARK    7  A    between atoms: C_13  and  C_14
REMARK    8  A    between atoms: C_22  and  C_23
REMARK    9  A    between atoms: C_23  and  O_25
REMARK   10  A    between atoms: O_25  and  C_26
REMARK   11  A    between atoms: C_26  and  C_27
REMARK                            x       y       z     vdW  Elec       q    Type
REMARK                         _______ _______ _______ _____ _____    ______ ____
ROOT
ATOM      1  C   UNL     1       1.323   9.263  20.704  0.00  0.00    +0.000 C 
ATOM      2  O   UNL     1       1.626   8.990  21.869  0.00  0.00    +0.000 OA
ATOM      3  N   UNL     1       0.610  10.424  20.417  0.00  0.00    +0.000 N 
ATOM      4  C   UNL     1       0.349  10.994  19.094  0.00  0.00    +0.000 C 
ATOM      5  S   UNL     1       1.000  12.700  19.300  0.00  0.00    +0.000 S 
ATOM      6  C   UNL     1       0.431  12.810  21.012  0.00  0.00    +0.000 C 
ATOM      7  C   UNL     1       0.441  11.376  21.530  0.00  0.00    +0.000 C 
ENDROOT
BRANCH   4   8
ATOM      8  C   UNL     1      -1.133  10.974  18.705  0.00  0.00    +0.000 A 
ATOM      9  C   UNL     1      -1.700   9.902  17.975  0.00  0.00    +0.000 A 
ATOM     10  C   UNL     1      -3.053   9.888  17.631  0.00  0.00    +0.000 A 
ATOM     11  C   UNL     1      -3.889  10.926  18.027  0.00  0.00    +0.000 A 
ATOM     12  C   UNL     1      -3.364  11.969  18.782  0.00  0.00    +0.000 A 
ATOM     13  C   UNL     1      -2.010  11.987  19.130  0.00  0.00    +0.000 A 
ENDBRANCH   4   8
BRANCH   1  16
ATOM     14  N   UNL     1       2.526   6.669  18.562  0.00  0.00    +0.000 N 
ATOM     15  C   UNL     1       2.139   7.069  19.799  0.00  0.00    +0.000 A 
ATOM     16  C   UNL     1       1.790   8.396  19.634  0.00  0.00    +0.000 A 
ATOM     17  N   UNL     1       1.925   8.726  18.309  0.00  0.00    +0.000 NA
ATOM     18  N   UNL     1       2.371   7.656  17.659  0.00  0.00    +0.000 NA
BRANCH  14  19
ATOM     19  C   UNL     1       3.079   5.393  18.177  0.00  0.00    +0.000 C 
BRANCH  19  20
ATOM     20  C   UNL     1       1.992   4.358  18.145  0.00  0.00    +0.000 C 
ATOM     21  O   UNL     1       1.120   4.277  17.290  0.00  0.00    +0.000 OA
BRANCH  20  22
ATOM     22  O   UNL     1       2.109   3.529  19.221  0.00  0.00    +0.000 OA
BRANCH  22  24
ATOM     23  C   UNL     1       3.366   1.683  18.386  0.00  0.00    +0.000 C 
ATOM     24  C   UNL     1       2.013   2.130  18.913  0.00  0.00    +0.000 C 
ENDBRANCH  22  24
ENDBRANCH  20  22
ENDBRANCH  19  20
ENDBRANCH  14  19
ENDBRANCH   1  16
BRANCH   7  25
ATOM     25  C   UNL     1      -0.763  11.100  22.442  0.00  0.00    +0.000 C 
ATOM     26  O   UNL     1      -1.131   9.971  22.747  0.00  0.00    +0.000 OA
BRANCH  25  27
ATOM     27  O   UNL     1      -1.439  12.242  22.745  0.00  0.00    +0.000 OA
BRANCH  27  28
ATOM     28  C   UNL     1      -2.754  12.086  23.294  0.00  0.00    +0.000 C 
ATOM     29  C   UNL     1      -3.825  12.666  22.392  0.00  0.00    +0.000 C 
ENDBRANCH  27  28
ENDBRANCH  25  27
ENDBRANCH   7  25
TORSDOF 9
ENDMDL
MODEL 5
REMARK VINA RESULT:      -6.4      3.426      8.968
REMARK  Name = 
REMARK  11 active torsions:
REMARK  status: ('A' for Active; 'I' for Inactive)
REMARK    1  A    between atoms: C_1  and  C_2
REMARK    2  A    between atoms: C_2  and  O_3
REMARK    3  A    between atoms: O_3  and  C_4
REMARK    4  A    between atoms: C_4  and  C_6
REMARK    5  A    between atoms: C_6  and  N_7
REMARK    6  A    between atoms: C_9  and  C_10
REMARK    7  A    between atoms: C_13  and  C_14
REMARK    8  A    between atoms: C_22  and  C_23
REMARK    9  A    between atoms: C_23  and  O_25
REMARK   10  A    between atoms: O_25  and  C_26
REMARK   11  A    between atoms: C_26  and  C_27
REMARK                            x       y       z     vdW  Elec       q    Type
REMARK                         _______ _______ _______ _____ _____    ______ ____
ROOT
ATOM      1  C   UNL     1       1.195   9.169  20.859  0.00  0.00    +0.000 C 
ATOM      2  O   UNL     1       1.441   8.927  22.044  0.00  0.00    +0.000 OA
ATOM      3  N   UNL     1       0.498  10.322  20.507  0.00  0.00    +0.000 N 
ATOM      4  C   UNL     1       0.302  10.857  19.159  0.00  0.00    +0.000 C 
ATOM      5  S   UNL     1       0.944  12.568  19.352  0.00  0.00    +0.000 S 
ATOM      6  C   UNL     1       0.292  12.723  21.031  0.00  0.00    +0.000 C 
ATOM      7  C   UNL     1       0.275  11.303  21.586  0.00  0.00    +0.000 C 
ENDROOT
BRANCH   4   8
ATOM      8  C   UNL     1      -1.159  10.827  18.698  0.00  0.00    +0.000 A 
ATOM      9  C   UNL     1      -2.016  11.941  18.859  0.00  0.00    +0.000 A 
ATOM     10  C   UNL     1      -3.345  11.908  18.429  0.00  0.00    +0.000 A 
ATOM     11  C   UNL     1      -3.851  10.776  17.803  0.00  0.00    +0.000 A 
ATOM     12  C   UNL     1      -3.016   9.684  17.595  0.00  0.00    +0.000 A 
ATOM     13  C   UNL     1      -1.685   9.713  18.022  0.00  0.00    +0.000 A 
ENDBRANCH   4   8
BRANCH   1  16
ATOM     14  N   UNL     1       2.409   6.498  18.823  0.00  0.00    +0.000 N 
ATOM     15  C   UNL     1       1.901   6.917  20.008  0.00  0.00    +0.000 A 
ATOM     16  C   UNL     1       1.713   8.275  19.837  0.00  0.00    +0.000 A 
ATOM     17  N   UNL     1       2.059   8.609  18.552  0.00  0.00    +0.000 NA
ATOM     18  N   UNL     1       2.479   7.509  17.936  0.00  0.00    +0.000 NA
BRANCH  14  19
ATOM     19  C   UNL     1       2.878   5.177  18.478  0.00  0.00    +0.000 C 
BRANCH  19  20
ATOM     20  C   UNL     1       3.985   4.773  19.409  0.00  0.00    +0.000 C 
ATOM     21  O   UNL     1       4.942   5.474  19.713  0.00  0.00    +0.000 OA
BRANCH  20  22
ATOM     22  O   UNL     1       3.774   3.503  19.856  0.00  0.00    +0.000 OA
BRANCH  22  24
ATOM     23  C   UNL     1       2.134   3.365  21.580  0.00  0.00    +0.000 C 
ATOM     24  C   UNL     1       2.399   3.172  20.097  0.00  0.00    +0.000 C 
ENDBRANCH  22  24
ENDBRANCH  20  22
ENDBRANCH  19  20
ENDBRANCH  14  19
ENDBRANCH   1  16
BRANCH   7  25
ATOM     25  C   UNL     1      -0.971  11.051  22.444  0.00  0.00    +0.000 C 
ATOM     26  O   UNL     1      -1.043  10.156  23.280  0.00  0.00    +0.000 OA
BRANCH  25  27
ATOM     27  O   UNL     1      -2.014  11.841  22.067  0.00  0.00    +0.000 OA
BRANCH  27  28
ATOM     28  C   UNL     1      -2.809  12.406  23.117  0.00  0.00    +0.000 C 
ATOM     29  C   UNL     1      -2.225  13.701  23.646  0.00  0.00    +0.000 C 
ENDBRANCH  27  28
ENDBRANCH  25  27
ENDBRANCH   7  25
TORSDOF 9
ENDMDL
MODEL 6
REMARK VINA RESULT:      -6.4      1.447      2.151
REMARK  Name = 
REMARK  11 active torsions:
REMARK  status: ('A' for Active; 'I' for Inactive)
REMARK    1  A    between atoms: C_1  and  C_2
REMARK    2  A    between atoms: C_2  and  O_3
REMARK    3  A    between atoms: O_3  and  C_4
REMARK    4  A    between atoms: C_4  and  C_6
REMARK    5  A    between atoms: C_6  and  N_7
REMARK    6  A    between atoms: C_9  and  C_10
REMARK    7  A    between atoms: C_13  and  C_14
REMARK    8  A    between atoms: C_22  and  C_23
REMARK    9  A    between atoms: C_23  and  O_25
REMARK   10  A    between atoms: O_25  and  C_26
REMARK   11  A    between atoms: C_26  and  C_27
REMARK                            x       y       z     vdW  Elec       q    Type
REMARK                         _______ _______ _______ _____ _____    ______ ____
ROOT
ATOM      1  C   UNL     1       4.171   7.009  16.960  0.00  0.00    +0.000 C 
ATOM      2  O   UNL     1       4.445   7.436  15.835  0.00  0.00    +0.000 OA
ATOM      3  N   UNL     1       4.840   5.901  17.473  0.00  0.00    +0.000 N 
ATOM      4  C   UNL     1       4.785   5.394  18.845  0.00  0.00    +0.000 C 
ATOM      5  S   UNL     1       6.567   5.362  19.291  0.00  0.00    +0.000 S 
ATOM      6  C   UNL     1       7.069   4.857  17.629  0.00  0.00    +0.000 C 
ATOM      7  C   UNL     1       6.003   5.426  16.699  0.00  0.00    +0.000 C 
ENDROOT
BRANCH   4   8
ATOM      8  C   UNL     1       4.125   4.015  18.959  0.00  0.00    +0.000 A 
ATOM      9  C   UNL     1       2.944   3.692  18.252  0.00  0.00    +0.000 A 
ATOM     10  C   UNL     1       2.353   2.430  18.354  0.00  0.00    +0.000 A 
ATOM     11  C   UNL     1       2.937   1.445  19.142  0.00  0.00    +0.000 A 
ATOM     12  C   UNL     1       4.122   1.725  19.812  0.00  0.00    +0.000 A 
ATOM     13  C   UNL     1       4.718   2.986  19.711  0.00  0.00    +0.000 A 
ENDBRANCH   4   8
BRANCH   1  16
ATOM     14  N   UNL     1       1.884   9.276  18.506  0.00  0.00    +0.000 N 
ATOM     15  C   UNL     1       2.752   9.007  17.498  0.00  0.00    +0.000 A 
ATOM     16  C   UNL     1       3.199   7.727  17.768  0.00  0.00    +0.000 A 
ATOM     17  N   UNL     1       2.551   7.260  18.883  0.00  0.00    +0.000 NA
ATOM     18  N   UNL     1       1.742   8.216  19.324  0.00  0.00    +0.000 NA
BRANCH  14  19
ATOM     19  C   UNL     1       1.193  10.514  18.771  0.00  0.00    +0.000 C 
BRANCH  19  20
ATOM     20  C   UNL     1      -0.271  10.245  18.967  0.00  0.00    +0.000 C 
ATOM     21  O   UNL     1      -0.835  10.172  20.052  0.00  0.00    +0.000 OA
BRANCH  20  22
ATOM     22  O   UNL     1      -0.879  10.078  17.759  0.00  0.00    +0.000 OA
BRANCH  22  24
ATOM     23  C   UNL     1      -3.228   9.778  17.488  0.00  0.00    +0.000 C 
ATOM     24  C   UNL     1      -2.110  10.800  17.601  0.00  0.00    +0.000 C 
ENDBRANCH  22  24
ENDBRANCH  20  22
ENDBRANCH  19  20
ENDBRANCH  14  19
ENDBRANCH   1  16
BRANCH   7  25
ATOM     25  C   UNL     1       5.672   4.451  15.562  0.00  0.00    +0.000 C 
ATOM     26  O   UNL     1       5.282   3.304  15.751  0.00  0.00    +0.000 OA
BRANCH  25  27
ATOM     27  O   UNL     1       5.995   4.966  14.343  0.00  0.00    +0.000 OA
BRANCH  27  28
ATOM     28  C   UNL     1       6.666   4.089  13.430  0.00  0.00    +0.000 C 
ATOM     29  C   UNL     1       5.727   3.519  12.386  0.00  0.00    +0.000 C 
ENDBRANCH  27  28
ENDBRANCH  25  27
ENDBRANCH   7  25
TORSDOF 9
ENDMDL
MODEL 7
REMARK VINA RESULT:      -6.3      1.124      1.418
REMARK  Name = 
REMARK  11 active torsions:
REMARK  status: ('A' for Active; 'I' for Inactive)
REMARK    1  A    between atoms: C_1  and  C_2
REMARK    2  A    between atoms: C_2  and  O_3
REMARK    3  A    between atoms: O_3  and  C_4
REMARK    4  A    between atoms: C_4  and  C_6
REMARK    5  A    between atoms: C_6  and  N_7
REMARK    6  A    between atoms: C_9  and  C_10
REMARK    7  A    between atoms: C_13  and  C_14
REMARK    8  A    between atoms: C_22  and  C_23
REMARK    9  A    between atoms: C_23  and  O_25
REMARK   10  A    between atoms: O_25  and  C_26
REMARK   11  A    between atoms: C_26  and  C_27
REMARK                            x       y       z     vdW  Elec       q    Type
REMARK                         _______ _______ _______ _____ _____    ______ ____
ROOT
ATOM      1  C   UNL     1       3.893   7.299  17.304  0.00  0.00    +0.000 C 
ATOM      2  O   UNL     1       4.166   7.903  16.263  0.00  0.00    +0.000 OA
ATOM      3  N   UNL     1       4.591   6.145  17.651  0.00  0.00    +0.000 N 
ATOM      4  C   UNL     1       4.536   5.431  18.927  0.00  0.00    +0.000 C 
ATOM      5  S   UNL     1       6.314   5.382  19.391  0.00  0.00    +0.000 S 
ATOM      6  C   UNL     1       6.849   5.156  17.680  0.00  0.00    +0.000 C 
ATOM      7  C   UNL     1       5.776   5.830  16.832  0.00  0.00    +0.000 C 
ENDROOT
BRANCH   4   8
ATOM      8  C   UNL     1       3.919   4.032  18.816  0.00  0.00    +0.000 A 
ATOM      9  C   UNL     1       4.482   2.914  19.476  0.00  0.00    +0.000 A 
ATOM     10  C   UNL     1       3.909   1.643  19.376  0.00  0.00    +0.000 A 
ATOM     11  C   UNL     1       2.745   1.455  18.641  0.00  0.00    +0.000 A 
ATOM     12  C   UNL     1       2.150   2.547  18.019  0.00  0.00    +0.000 A 
ATOM     13  C   UNL     1       2.718   3.821  18.118  0.00  0.00    +0.000 A 
ENDBRANCH   4   8
BRANCH   1  16
ATOM     14  N   UNL     1       1.578   8.137  19.892  0.00  0.00    +0.000 N 
ATOM     15  C   UNL     1       2.552   7.317  19.425  0.00  0.00    +0.000 A 
ATOM     16  C   UNL     1       2.890   7.855  18.198  0.00  0.00    +0.000 A 
ATOM     17  N   UNL     1       2.155   8.996  18.000  0.00  0.00    +0.000 NA
ATOM     18  N   UNL     1       1.358   9.164  19.049  0.00  0.00    +0.000 NA
BRANCH  14  19
ATOM     19  C   UNL     1       0.798   7.989  21.097  0.00  0.00    +0.000 C 
BRANCH  19  20
ATOM     20  C   UNL     1       0.956   9.210  21.957  0.00  0.00    +0.000 C 
ATOM     21  O   UNL     1       1.941   9.470  22.636  0.00  0.00    +0.000 OA
BRANCH  20  22
ATOM     22  O   UNL     1      -0.166   9.979  21.883  0.00  0.00    +0.000 OA
BRANCH  22  24
ATOM     23  C   UNL     1      -1.626  11.502  22.993  0.00  0.00    +0.000 C 
ATOM     24  C   UNL     1      -0.804  10.233  23.143  0.00  0.00    +0.000 C 
ENDBRANCH  22  24
ENDBRANCH  20  22
ENDBRANCH  19  20
ENDBRANCH  14  19
ENDBRANCH   1  16
BRANCH   7  25
ATOM     25  C   UNL     1       5.489   5.033  15.553  0.00  0.00    +0.000 C 
ATOM     26  O   UNL     1       4.860   3.981  15.543  0.00  0.00    +0.000 OA
BRANCH  25  27
ATOM     27  O   UNL     1       6.130   5.560  14.473  0.00  0.00    +0.000 OA
BRANCH  27  28
ATOM     28  C   UNL     1       6.914   4.656  13.684  0.00  0.00    +0.000 C 
ATOM     29  C   UNL     1       7.981   5.372  12.881  0.00  0.00    +0.000 C 
ENDBRANCH  27  28
ENDBRANCH  25  27
ENDBRANCH   7  25
TORSDOF 9
ENDMDL
MODEL 8
REMARK VINA RESULT:      -6.3      3.402      8.932
REMARK  Name = 
REMARK  11 active torsions:
REMARK  status: ('A' for Active; 'I' for Inactive)
REMARK    1  A    between atoms: C_1  and  C_2
REMARK    2  A    between atoms: C_2  and  O_3
REMARK    3  A    between atoms: O_3  and  C_4
REMARK    4  A    between atoms: C_4  and  C_6
REMARK    5  A    between atoms: C_6  and  N_7
REMARK    6  A    between atoms: C_9  and  C_10
REMARK    7  A    between atoms: C_13  and  C_14
REMARK    8  A    between atoms: C_22  and  C_23
REMARK    9  A    between atoms: C_23  and  O_25
REMARK   10  A    between atoms: O_25  and  C_26
REMARK   11  A    between atoms: C_26  and  C_27
REMARK                            x       y       z     vdW  Elec       q    Type
REMARK                         _______ _______ _______ _____ _____    ______ ____
ROOT
ATOM      1  C   UNL     1       1.288   9.133  20.908  0.00  0.00    +0.000 C 
ATOM      2  O   UNL     1       1.544   8.887  22.090  0.00  0.00    +0.000 OA
ATOM      3  N   UNL     1       0.633  10.312  20.561  0.00  0.00    +0.000 N 
ATOM      4  C   UNL     1       0.436  10.847  19.213  0.00  0.00    +0.000 C 
ATOM      5  S   UNL     1       1.152  12.531  19.385  0.00  0.00    +0.000 S 
ATOM      6  C   UNL     1       0.536  12.722  21.074  0.00  0.00    +0.000 C 
ATOM      7  C   UNL     1       0.470  11.306  21.638  0.00  0.00    +0.000 C 
ENDROOT
BRANCH   4   8
ATOM      8  C   UNL     1      -1.033  10.875  18.778  0.00  0.00    +0.000 A 
ATOM      9  C   UNL     1      -1.610   9.822  18.030  0.00  0.00    +0.000 A 
ATOM     10  C   UNL     1      -2.952   9.851  17.644  0.00  0.00    +0.000 A 
ATOM     11  C   UNL     1      -3.766  10.915  18.014  0.00  0.00    +0.000 A 
ATOM     12  C   UNL     1      -3.232  11.941  18.786  0.00  0.00    +0.000 A 
ATOM     13  C   UNL     1      -1.889  11.916  19.176  0.00  0.00    +0.000 A 
ENDBRANCH   4   8
BRANCH   1  16
ATOM     14  N   UNL     1       2.361   6.404  18.869  0.00  0.00    +0.000 N 
ATOM     15  C   UNL     1       1.895   6.850  20.062  0.00  0.00    +0.000 A 
ATOM     16  C   UNL     1       1.750   8.212  19.882  0.00  0.00    +0.000 A 
ATOM     17  N   UNL     1       2.078   8.523  18.587  0.00  0.00    +0.000 NA
ATOM     18  N   UNL     1       2.445   7.404  17.972  0.00  0.00    +0.000 NA
BRANCH  14  19
ATOM     19  C   UNL     1       2.776   5.065  18.526  0.00  0.00    +0.000 C 
BRANCH  19  20
ATOM     20  C   UNL     1       3.878   4.624  19.446  0.00  0.00    +0.000 C 
ATOM     21  O   UNL     1       5.025   5.054  19.429  0.00  0.00    +0.000 OA
BRANCH  20  22
ATOM     22  O   UNL     1       3.419   3.661  20.294  0.00  0.00    +0.000 OA
BRANCH  22  24
ATOM     23  C   UNL     1       1.324   2.861  21.103  0.00  0.00    +0.000 C 
ATOM     24  C   UNL     1       2.203   3.024  19.874  0.00  0.00    +0.000 C 
ENDBRANCH  22  24
ENDBRANCH  20  22
ENDBRANCH  19  20
ENDBRANCH  14  19
ENDBRANCH   1  16
BRANCH   7  25
ATOM     25  C   UNL     1      -0.771  11.111  22.519  0.00  0.00    +0.000 C 
ATOM     26  O   UNL     1      -1.097  10.027  22.991  0.00  0.00    +0.000 OA
BRANCH  25  27
ATOM     27  O   UNL     1      -1.525  12.243  22.589  0.00  0.00    +0.000 OA
BRANCH  27  28
ATOM     28  C   UNL     1      -2.799  12.130  23.237  0.00  0.00    +0.000 C 
ATOM     29  C   UNL     1      -3.921  12.711  22.401  0.00  0.00    +0.000 C 
ENDBRANCH  27  28
ENDBRANCH  25  27
ENDBRANCH   7  25
TORSDOF 9
ENDMDL
MODEL 9
REMARK VINA RESULT:      -6.3      3.021      9.101
REMARK  Name = 
REMARK  11 active torsions:
REMARK  status: ('A' for Active; 'I' for Inactive)
REMARK    1  A    between atoms: C_1  and  C_2
REMARK    2  A    between atoms: C_2  and  O_3
REMARK    3  A    between atoms: O_3  and  C_4
REMARK    4  A    between atoms: C_4  and  C_6
REMARK    5  A    between atoms: C_6  and  N_7
REMARK    6  A    between atoms: C_9  and  C_10
REMARK    7  A    between atoms: C_13  and  C_14
REMARK    8  A    between atoms: C_22  and  C_23
REMARK    9  A    between atoms: C_23  and  O_25
REMARK   10  A    between atoms: O_25  and  C_26
REMARK   11  A    between atoms: C_26  and  C_27
REMARK                            x       y       z     vdW  Elec       q    Type
REMARK                         _______ _______ _______ _____ _____    ______ ____
ROOT
ATOM      1  C   UNL     1       1.218   9.288  20.756  0.00  0.00    +0.000 C 
ATOM      2  O   UNL     1       1.481   9.019  21.931  0.00  0.00    +0.000 OA
ATOM      3  N   UNL     1       0.482  10.427  20.443  0.00  0.00    +0.000 N 
ATOM      4  C   UNL     1       0.258  10.995  19.113  0.00  0.00    +0.000 C 
ATOM      5  S   UNL     1       0.847  12.719  19.351  0.00  0.00    +0.000 S 
ATOM      6  C   UNL     1       0.205  12.804  21.038  0.00  0.00    +0.000 C 
ATOM      7  C   UNL     1       0.237  11.369  21.552  0.00  0.00    +0.000 C 
ENDROOT
BRANCH   4   8
ATOM      8  C   UNL     1      -1.206  10.931  18.662  0.00  0.00    +0.000 A 
ATOM      9  C   UNL     1      -1.744   9.784  18.034  0.00  0.00    +0.000 A 
ATOM     10  C   UNL     1      -3.082   9.731  17.634  0.00  0.00    +0.000 A 
ATOM     11  C   UNL     1      -3.928  10.807  17.872  0.00  0.00    +0.000 A 
ATOM     12  C   UNL     1      -3.432  11.929  18.527  0.00  0.00    +0.000 A 
ATOM     13  C   UNL     1      -2.095  11.986  18.931  0.00  0.00    +0.000 A 
ENDBRANCH   4   8
BRANCH   1  16
ATOM     14  N   UNL     1       2.568   6.736  18.653  0.00  0.00    +0.000 N 
ATOM     15  C   UNL     1       2.105   7.114  19.870  0.00  0.00    +0.000 A 
ATOM     16  C   UNL     1       1.755   8.440  19.704  0.00  0.00    +0.000 A 
ATOM     17  N   UNL     1       1.966   8.790  18.394  0.00  0.00    +0.000 NA
ATOM     18  N   UNL     1       2.459   7.734  17.756  0.00  0.00    +0.000 NA
BRANCH  14  19
ATOM     19  C   UNL     1       3.155   5.470  18.283  0.00  0.00    +0.000 C 
BRANCH  19  20
ATOM     20  C   UNL     1       4.629   5.492  18.568  0.00  0.00    +0.000 C 
ATOM     21  O   UNL     1       5.132   5.426  19.683  0.00  0.00    +0.000 OA
BRANCH  20  22
ATOM     22  O   UNL     1       5.325   5.611  17.403  0.00  0.00    +0.000 OA
BRANCH  22  24
ATOM     23  C   UNL     1       7.372   6.834  17.425  0.00  0.00    +0.000 C 
ATOM     24  C   UNL     1       5.877   6.915  17.165  0.00  0.00    +0.000 C 
ENDBRANCH  22  24
ENDBRANCH  20  22
ENDBRANCH  19  20
ENDBRANCH  14  19
ENDBRANCH   1  16
BRANCH   7  25
ATOM     25  C   UNL     1      -0.993  11.052  22.412  0.00  0.00    +0.000 C 
ATOM     26  O   UNL     1      -1.047  10.103  23.186  0.00  0.00    +0.000 OA
BRANCH  25  27
ATOM     27  O   UNL     1      -2.046  11.861  22.106  0.00  0.00    +0.000 OA
BRANCH  27  28
ATOM     28  C   UNL     1      -2.855  12.308  23.201  0.00  0.00    +0.000 C 
ATOM     29  C   UNL     1      -4.222  12.781  22.750  0.00  0.00    +0.000 C 
ENDBRANCH  27  28
ENDBRANCH  25  27
ENDBRANCH   7  25
TORSDOF 9
ENDMDL
