MODEL 1
REMARK VINA RESULT:      -7.5      0.000      0.000
REMARK  Name = 
REMARK  5 active torsions:
REMARK  status: ('A' for Active; 'I' for Inactive)
REMARK    1  A    between atoms: S_2  and  N_4
REMARK    2  A    between atoms: S_2  and  C_17
REMARK    3  A    between atoms: N_4  and  C_5
REMARK    4  A    between atoms: C_5  and  C_6
REMARK    5  A    between atoms: C_15  and  O_16
REMARK                            x       y       z     vdW  Elec       q    Type
REMARK                         _______ _______ _______ _____ _____    ______ ____
ROOT
ATOM      1  C   UNL     1       4.084   3.357  17.183  0.00  0.00    +0.000 C 
ATOM      2  C   UNL     1       2.559   3.365  17.153  0.00  0.00    +0.000 C 
ATOM      3  C   UNL     1       2.188   2.799  18.516  0.00  0.00    +0.000 C 
ATOM      4  C   UNL     1       3.188   3.441  19.510  0.00  0.00    +0.000 C 
ATOM      5  C   UNL     1       3.493   2.487  20.681  0.00  0.00    +0.000 C 
ATOM      6  C   UNL     1       2.289   2.330  21.604  0.00  0.00    +0.000 C 
ATOM      7  O   UNL     1       1.891   3.595  22.124  0.00  0.00    +0.000 OA
ATOM      8  C   UNL     1       1.486   4.502  21.104  0.00  0.00    +0.000 C 
ATOM      9  C   UNL     1       2.614   4.751  20.108  0.00  0.00    +0.000 C 
ATOM     10  C   UNL     1       4.421   3.791  18.621  0.00  0.00    +0.000 C 
ENDROOT
BRANCH  10  11
ATOM     11  O   UNL     1       5.626   3.167  19.043  0.00  0.00    +0.000 OA
ATOM     12  H   UNL     1       5.955   2.607  18.320  0.00  0.00    +0.000 HD
ENDBRANCH  10  11
BRANCH   1  13
ATOM     13  C   UNL     1       4.694   4.279  16.120  0.00  0.00    +0.000 C 
BRANCH  13  14
ATOM     14  N   UNL     1       6.049   3.817  15.769  0.00  0.00    +0.000 NA
ATOM     15  H   UNL     1       6.278   2.876  16.113  0.00  0.00    +0.000 HD
BRANCH  14  17
ATOM     16  O   UNL     1       8.231   4.181  17.013  0.00  0.00    +0.000 OA
ATOM     17  S   UNL     1       7.329   4.867  16.113  0.00  0.00    +0.000 S 
ATOM     18  O   UNL     1       7.774   5.371  14.833  0.00  0.00    +0.000 OA
BRANCH  17  19
ATOM     19  C   UNL     1       6.605   6.244  17.048  0.00  0.00    +0.000 C 
ATOM     20  C   UNL     1       7.112   6.351  18.464  0.00  0.00    +0.000 C 
ATOM     21  C   UNL     1       7.560   7.346  17.429  0.00  0.00    +0.000 C 
ENDBRANCH  17  19
ENDBRANCH  14  17
ENDBRANCH  13  14
ENDBRANCH   1  13
TORSDOF 5
ENDMDL
MODEL 2
REMARK VINA RESULT:      -7.4      1.775      2.776
REMARK  Name = 
REMARK  5 active torsions:
REMARK  status: ('A' for Active; 'I' for Inactive)
REMARK    1  A    between atoms: S_2  and  N_4
REMARK    2  A    between atoms: S_2  and  C_17
REMARK    3  A    between atoms: N_4  and  C_5
REMARK    4  A    between atoms: C_5  and  C_6
REMARK    5  A    between atoms: C_15  and  O_16
REMARK                            x       y       z     vdW  Elec       q    Type
REMARK                         _______ _______ _______ _____ _____    ______ ____
ROOT
ATOM      1  C   UNL     1       4.219   5.413  17.218  0.00  0.00    +0.000 C 
ATOM      2  C   UNL     1       3.052   6.237  17.752  0.00  0.00    +0.000 C 
ATOM      3  C   UNL     1       2.026   5.176  18.123  0.00  0.00    +0.000 C 
ATOM      4  C   UNL     1       2.841   4.030  18.773  0.00  0.00    +0.000 C 
ATOM      5  C   UNL     1       2.186   2.662  18.502  0.00  0.00    +0.000 C 
ATOM      6  C   UNL     1       0.877   2.505  19.270  0.00  0.00    +0.000 C 
ATOM      7  O   UNL     1       1.101   2.646  20.670  0.00  0.00    +0.000 OA
ATOM      8  C   UNL     1       1.606   3.932  21.017  0.00  0.00    +0.000 C 
ATOM      9  C   UNL     1       2.929   4.213  20.310  0.00  0.00    +0.000 C 
ATOM     10  C   UNL     1       4.267   4.198  18.164  0.00  0.00    +0.000 C 
ENDROOT
BRANCH  10  11
ATOM     11  O   UNL     1       4.725   3.054  17.456  0.00  0.00    +0.000 OA
ATOM     12  H   UNL     1       5.566   2.764  17.846  0.00  0.00    +0.000 HD
ENDBRANCH  10  11
BRANCH   1  13
ATOM     13  C   UNL     1       5.531   6.205  17.194  0.00  0.00    +0.000 C 
BRANCH  13  14
ATOM     14  N   UNL     1       6.062   6.259  15.820  0.00  0.00    +0.000 NA
ATOM     15  H   UNL     1       5.345   6.368  15.092  0.00  0.00    +0.000 HD
BRANCH  14  17
ATOM     16  O   UNL     1       8.035   5.586  14.373  0.00  0.00    +0.000 OA
ATOM     17  S   UNL     1       7.139   5.037  15.367  0.00  0.00    +0.000 S 
ATOM     18  O   UNL     1       7.632   4.474  16.603  0.00  0.00    +0.000 OA
BRANCH  17  19
ATOM     19  C   UNL     1       6.136   3.777  14.527  0.00  0.00    +0.000 C 
ATOM     20  C   UNL     1       5.153   4.345  13.534  0.00  0.00    +0.000 C 
ATOM     21  C   UNL     1       6.381   3.629  13.047  0.00  0.00    +0.000 C 
ENDBRANCH  17  19
ENDBRANCH  14  17
ENDBRANCH  13  14
ENDBRANCH   1  13
TORSDOF 5
ENDMDL
MODEL 3
REMARK VINA RESULT:      -7.2      2.668      6.165
REMARK  Name = 
REMARK  5 active torsions:
REMARK  status: ('A' for Active; 'I' for Inactive)
REMARK    1  A    between atoms: S_2  and  N_4
REMARK    2  A    between atoms: S_2  and  C_17
REMARK    3  A    between atoms: N_4  and  C_5
REMARK    4  A    between atoms: C_5  and  C_6
REMARK    5  A    between atoms: C_15  and  O_16
REMARK                            x       y       z     vdW  Elec       q    Type
REMARK                         _______ _______ _______ _____ _____    ______ ____
ROOT
ATOM      1  C   UNL     1       4.222   5.913  18.940  0.00  0.00    +0.000 C 
ATOM      2  C   UNL     1       3.784   6.627  17.665  0.00  0.00    +0.000 C 
ATOM      3  C   UNL     1       4.992   6.470  16.753  0.00  0.00    +0.000 C 
ATOM      4  C   UNL     1       5.492   5.023  16.985  0.00  0.00    +0.000 C 
ATOM      5  C   UNL     1       7.020   4.929  16.807  0.00  0.00    +0.000 C 
ATOM      6  C   UNL     1       7.425   5.103  15.346  0.00  0.00    +0.000 C 
ATOM      7  O   UNL     1       6.800   4.114  14.534  0.00  0.00    +0.000 OA
ATOM      8  C   UNL     1       5.378   4.205  14.559  0.00  0.00    +0.000 C 
ATOM      9  C   UNL     1       4.841   4.041  15.977  0.00  0.00    +0.000 C 
ATOM     10  C   UNL     1       4.985   4.680  18.419  0.00  0.00    +0.000 C 
ENDROOT
BRANCH  10  11
ATOM     11  O   UNL     1       6.024   4.339  19.327  0.00  0.00    +0.000 OA
ATOM     12  H   UNL     1       6.304   5.144  19.795  0.00  0.00    +0.000 HD
ENDBRANCH  10  11
BRANCH   1  13
ATOM     13  C   UNL     1       3.037   5.547  19.841  0.00  0.00    +0.000 C 
BRANCH  13  14
ATOM     14  N   UNL     1       3.203   4.179  20.364  0.00  0.00    +0.000 NA
ATOM     15  H   UNL     1       3.878   3.606  19.842  0.00  0.00    +0.000 HD
BRANCH  14  17
ATOM     16  O   UNL     1       1.939   2.601  21.897  0.00  0.00    +0.000 OA
ATOM     17  S   UNL     1       1.795   3.283  20.630  0.00  0.00    +0.000 S 
ATOM     18  O   UNL     1       0.701   4.195  20.380  0.00  0.00    +0.000 OA
BRANCH  17  19
ATOM     19  C   UNL     1       1.772   2.001  19.345  0.00  0.00    +0.000 C 
ATOM     20  C   UNL     1       2.030   2.527  17.955  0.00  0.00    +0.000 C 
ATOM     21  C   UNL     1       3.092   1.735  18.666  0.00  0.00    +0.000 C 
ENDBRANCH  17  19
ENDBRANCH  14  17
ENDBRANCH  13  14
ENDBRANCH   1  13
TORSDOF 5
ENDMDL
MODEL 4
REMARK VINA RESULT:      -7.1      1.173      1.295
REMARK  Name = 
REMARK  5 active torsions:
REMARK  status: ('A' for Active; 'I' for Inactive)
REMARK    1  A    between atoms: S_2  and  N_4
REMARK    2  A    between atoms: S_2  and  C_17
REMARK    3  A    between atoms: N_4  and  C_5
REMARK    4  A    between atoms: C_5  and  C_6
REMARK    5  A    between atoms: C_15  and  O_16
REMARK                            x       y       z     vdW  Elec       q    Type
REMARK                         _______ _______ _______ _____ _____    ______ ____
ROOT
ATOM      1  C   UNL     1       3.463   3.835  16.916  0.00  0.00    +0.000 C 
ATOM      2  C   UNL     1       2.596   4.969  17.453  0.00  0.00    +0.000 C 
ATOM      3  C   UNL     1       1.767   4.286  18.530  0.00  0.00    +0.000 C 
ATOM      4  C   UNL     1       2.746   3.327  19.252  0.00  0.00    +0.000 C 
ATOM      5  C   UNL     1       2.014   2.075  19.771  0.00  0.00    +0.000 C 
ATOM      6  C   UNL     1       1.087   2.410  20.936  0.00  0.00    +0.000 C 
ATOM      7  O   UNL     1       1.823   2.997  22.006  0.00  0.00    +0.000 OA
ATOM      8  C   UNL     1       2.444   4.224  21.634  0.00  0.00    +0.000 C 
ATOM      9  C   UNL     1       3.408   4.022  20.469  0.00  0.00    +0.000 C 
ATOM     10  C   UNL     1       3.841   3.040  18.180  0.00  0.00    +0.000 C 
ENDROOT
BRANCH  10  11
ATOM     11  O   UNL     1       3.980   1.662  17.858  0.00  0.00    +0.000 OA
ATOM     12  H   UNL     1       3.100   1.302  17.652  0.00  0.00    +0.000 HD
ENDBRANCH  10  11
BRANCH   1  13
ATOM     13  C   UNL     1       4.683   4.347  16.142  0.00  0.00    +0.000 C 
BRANCH  13  14
ATOM     14  N   UNL     1       5.919   3.802  16.731  0.00  0.00    +0.000 NA
ATOM     15  H   UNL     1       5.793   3.368  17.654  0.00  0.00    +0.000 HD
BRANCH  14  17
ATOM     16  O   UNL     1       8.392   4.051  17.243  0.00  0.00    +0.000 OA
ATOM     17  S   UNL     1       7.264   4.825  16.773  0.00  0.00    +0.000 S 
ATOM     18  O   UNL     1       7.286   5.492  15.490  0.00  0.00    +0.000 OA
BRANCH  17  19
ATOM     19  C   UNL     1       6.908   6.062  18.053  0.00  0.00    +0.000 C 
ATOM     20  C   UNL     1       6.453   5.468  19.363  0.00  0.00    +0.000 C 
ATOM     21  C   UNL     1       7.833   6.053  19.243  0.00  0.00    +0.000 C 
ENDBRANCH  17  19
ENDBRANCH  14  17
ENDBRANCH  13  14
ENDBRANCH   1  13
TORSDOF 5
ENDMDL
MODEL 5
REMARK VINA RESULT:      -7.1      1.415      1.776
REMARK  Name = 
REMARK  5 active torsions:
REMARK  status: ('A' for Active; 'I' for Inactive)
REMARK    1  A    between atoms: S_2  and  N_4
REMARK    2  A    between atoms: S_2  and  C_17
REMARK    3  A    between atoms: N_4  and  C_5
REMARK    4  A    between atoms: C_5  and  C_6
REMARK    5  A    between atoms: C_15  and  O_16
REMARK                            x       y       z     vdW  Elec       q    Type
REMARK                         _______ _______ _______ _____ _____    ______ ____
ROOT
ATOM      1  C   UNL     1       3.544   4.105  16.925  0.00  0.00    +0.000 C 
ATOM      2  C   UNL     1       3.473   5.259  17.919  0.00  0.00    +0.000 C 
ATOM      3  C   UNL     1       2.296   4.876  18.804  0.00  0.00    +0.000 C 
ATOM      4  C   UNL     1       2.434   3.350  19.029  0.00  0.00    +0.000 C 
ATOM      5  C   UNL     1       1.053   2.686  19.189  0.00  0.00    +0.000 C 
ATOM      6  C   UNL     1       0.395   3.074  20.510  0.00  0.00    +0.000 C 
ATOM      7  O   UNL     1       1.223   2.701  21.608  0.00  0.00    +0.000 OA
ATOM      8  C   UNL     1       2.485   3.361  21.590  0.00  0.00    +0.000 C 
ATOM      9  C   UNL     1       3.253   3.047  20.310  0.00  0.00    +0.000 C 
ATOM     10  C   UNL     1       3.245   2.865  17.788  0.00  0.00    +0.000 C 
ENDROOT
BRANCH  10  11
ATOM     11  O   UNL     1       2.569   1.888  17.008  0.00  0.00    +0.000 OA
ATOM     12  H   UNL     1       1.839   2.320  16.533  0.00  0.00    +0.000 HD
ENDBRANCH  10  11
BRANCH   1  13
ATOM     13  C   UNL     1       4.900   4.028  16.214  0.00  0.00    +0.000 C 
BRANCH  13  14
ATOM     14  N   UNL     1       5.967   3.752  17.192  0.00  0.00    +0.000 NA
ATOM     15  H   UNL     1       5.646   3.702  18.167  0.00  0.00    +0.000 HD
BRANCH  14  17
ATOM     16  O   UNL     1       8.411   4.031  17.818  0.00  0.00    +0.000 OA
ATOM     17  S   UNL     1       7.353   4.716  17.108  0.00  0.00    +0.000 S 
ATOM     18  O   UNL     1       7.488   5.082  15.716  0.00  0.00    +0.000 OA
BRANCH  17  19
ATOM     19  C   UNL     1       6.972   6.217  18.057  0.00  0.00    +0.000 C 
ATOM     20  C   UNL     1       7.777   7.422  17.639  0.00  0.00    +0.000 C 
ATOM     21  C   UNL     1       6.320   7.331  17.280  0.00  0.00    +0.000 C 
ENDBRANCH  17  19
ENDBRANCH  14  17
ENDBRANCH  13  14
ENDBRANCH   1  13
TORSDOF 5
ENDMDL
MODEL 6
REMARK VINA RESULT:      -7.1      1.823      2.402
REMARK  Name = 
REMARK  5 active torsions:
REMARK  status: ('A' for Active; 'I' for Inactive)
REMARK    1  A    between atoms: S_2  and  N_4
REMARK    2  A    between atoms: S_2  and  C_17
REMARK    3  A    between atoms: N_4  and  C_5
REMARK    4  A    between atoms: C_5  and  C_6
REMARK    5  A    between atoms: C_15  and  O_16
REMARK                            x       y       z     vdW  Elec       q    Type
REMARK                         _______ _______ _______ _____ _____    ______ ____
ROOT
ATOM      1  C   UNL     1       3.690   5.458  17.502  0.00  0.00    +0.000 C 
ATOM      2  C   UNL     1       2.320   5.939  17.970  0.00  0.00    +0.000 C 
ATOM      3  C   UNL     1       1.652   4.659  18.449  0.00  0.00    +0.000 C 
ATOM      4  C   UNL     1       2.761   3.873  19.192  0.00  0.00    +0.000 C 
ATOM      5  C   UNL     1       2.551   2.353  19.055  0.00  0.00    +0.000 C 
ATOM      6  C   UNL     1       1.336   1.882  19.848  0.00  0.00    +0.000 C 
ATOM      7  O   UNL     1       1.483   2.210  21.227  0.00  0.00    +0.000 OA
ATOM      8  C   UNL     1       1.574   3.614  21.448  0.00  0.00    +0.000 C 
ATOM      9  C   UNL     1       2.764   4.213  20.705  0.00  0.00    +0.000 C 
ATOM     10  C   UNL     1       4.082   4.404  18.555  0.00  0.00    +0.000 C 
ENDROOT
BRANCH  10  11
ATOM     11  O   UNL     1       4.874   3.391  17.950  0.00  0.00    +0.000 OA
ATOM     12  H   UNL     1       5.233   2.819  18.649  0.00  0.00    +0.000 HD
ENDBRANCH  10  11
BRANCH   1  13
ATOM     13  C   UNL     1       4.705   6.601  17.391  0.00  0.00    +0.000 C 
BRANCH  13  14
ATOM     14  N   UNL     1       6.027   6.150  17.862  0.00  0.00    +0.000 NA
ATOM     15  H   UNL     1       6.467   6.774  18.549  0.00  0.00    +0.000 HD
BRANCH  14  17
ATOM     16  O   UNL     1       7.964   6.901  16.405  0.00  0.00    +0.000 OA
ATOM     17  S   UNL     1       7.159   5.730  16.679  0.00  0.00    +0.000 S 
ATOM     18  O   UNL     1       7.753   4.491  17.131  0.00  0.00    +0.000 OA
BRANCH  17  19
ATOM     19  C   UNL     1       6.202   5.389  15.174  0.00  0.00    +0.000 C 
ATOM     20  C   UNL     1       7.018   4.784  14.059  0.00  0.00    +0.000 C 
ATOM     21  C   UNL     1       6.041   3.932  14.821  0.00  0.00    +0.000 C 
ENDBRANCH  17  19
ENDBRANCH  14  17
ENDBRANCH  13  14
ENDBRANCH   1  13
TORSDOF 5
ENDMDL
MODEL 7
REMARK VINA RESULT:      -7.0      2.051      3.217
REMARK  Name = 
REMARK  5 active torsions:
REMARK  status: ('A' for Active; 'I' for Inactive)
REMARK    1  A    between atoms: S_2  and  N_4
REMARK    2  A    between atoms: S_2  and  C_17
REMARK    3  A    between atoms: N_4  and  C_5
REMARK    4  A    between atoms: C_5  and  C_6
REMARK    5  A    between atoms: C_15  and  O_16
REMARK                            x       y       z     vdW  Elec       q    Type
REMARK                         _______ _______ _______ _____ _____    ______ ____
ROOT
ATOM      1  C   UNL     1       5.025   4.945  17.997  0.00  0.00    +0.000 C 
ATOM      2  C   UNL     1       4.988   5.498  19.418  0.00  0.00    +0.000 C 
ATOM      3  C   UNL     1       3.548   5.254  19.842  0.00  0.00    +0.000 C 
ATOM      4  C   UNL     1       3.190   3.852  19.289  0.00  0.00    +0.000 C 
ATOM      5  C   UNL     1       1.695   3.764  18.927  0.00  0.00    +0.000 C 
ATOM      6  C   UNL     1       0.816   3.772  20.174  0.00  0.00    +0.000 C 
ATOM      7  O   UNL     1       1.154   2.684  21.029  0.00  0.00    +0.000 OA
ATOM      8  C   UNL     1       2.497   2.754  21.498  0.00  0.00    +0.000 C 
ATOM      9  C   UNL     1       3.487   2.749  20.336  0.00  0.00    +0.000 C 
ATOM     10  C   UNL     1       4.160   3.673  18.081  0.00  0.00    +0.000 C 
ENDROOT
BRANCH  10  11
ATOM     11  O   UNL     1       3.498   3.458  16.842  0.00  0.00    +0.000 OA
ATOM     12  H   UNL     1       3.856   4.081  16.187  0.00  0.00    +0.000 HD
ENDBRANCH  10  11
BRANCH   1  13
ATOM     13  C   UNL     1       6.453   4.668  17.514  0.00  0.00    +0.000 C 
BRANCH  13  14
ATOM     14  N   UNL     1       6.421   3.861  16.281  0.00  0.00    +0.000 NA
ATOM     15  H   UNL     1       7.128   3.117  16.244  0.00  0.00    +0.000 HD
BRANCH  14  17
ATOM     16  O   UNL     1       5.220   5.515  14.777  0.00  0.00    +0.000 OA
ATOM     17  S   UNL     1       6.416   4.702  14.814  0.00  0.00    +0.000 S 
ATOM     18  O   UNL     1       7.733   5.287  14.696  0.00  0.00    +0.000 OA
BRANCH  17  19
ATOM     19  C   UNL     1       6.233   3.442  13.520  0.00  0.00    +0.000 C 
ATOM     20  C   UNL     1       5.288   3.839  12.414  0.00  0.00    +0.000 C 
ATOM     21  C   UNL     1       6.770   3.819  12.163  0.00  0.00    +0.000 C 
ENDBRANCH  17  19
ENDBRANCH  14  17
ENDBRANCH  13  14
ENDBRANCH   1  13
TORSDOF 5
ENDMDL
MODEL 8
REMARK VINA RESULT:      -7.0      2.487      6.236
REMARK  Name = 
REMARK  5 active torsions:
REMARK  status: ('A' for Active; 'I' for Inactive)
REMARK    1  A    between atoms: S_2  and  N_4
REMARK    2  A    between atoms: S_2  and  C_17
REMARK    3  A    between atoms: N_4  and  C_5
REMARK    4  A    between atoms: C_5  and  C_6
REMARK    5  A    between atoms: C_15  and  O_16
REMARK                            x       y       z     vdW  Elec       q    Type
REMARK                         _______ _______ _______ _____ _____    ______ ____
ROOT
ATOM      1  C   UNL     1       5.301   5.635  18.208  0.00  0.00    +0.000 C 
ATOM      2  C   UNL     1       4.423   6.256  17.126  0.00  0.00    +0.000 C 
ATOM      3  C   UNL     1       5.319   6.223  15.897  0.00  0.00    +0.000 C 
ATOM      4  C   UNL     1       6.042   4.854  15.956  0.00  0.00    +0.000 C 
ATOM      5  C   UNL     1       7.449   4.943  15.334  0.00  0.00    +0.000 C 
ATOM      6  C   UNL     1       7.382   5.125  13.821  0.00  0.00    +0.000 C 
ATOM      7  O   UNL     1       6.674   4.046  13.219  0.00  0.00    +0.000 OA
ATOM      8  C   UNL     1       5.323   3.963  13.663  0.00  0.00    +0.000 C 
ATOM      9  C   UNL     1       5.251   3.773  15.175  0.00  0.00    +0.000 C 
ATOM     10  C   UNL     1       6.026   4.491  17.473  0.00  0.00    +0.000 C 
ENDROOT
BRANCH  10  11
ATOM     11  O   UNL     1       7.319   4.304  18.031  0.00  0.00    +0.000 OA
ATOM     12  H   UNL     1       7.917   4.977  17.662  0.00  0.00    +0.000 HD
ENDBRANCH  10  11
BRANCH   1  13
ATOM     13  C   UNL     1       4.489   5.152  19.414  0.00  0.00    +0.000 C 
BRANCH  13  14
ATOM     14  N   UNL     1       4.807   3.742  19.706  0.00  0.00    +0.000 NA
ATOM     15  H   UNL     1       5.545   3.343  19.112  0.00  0.00    +0.000 HD
BRANCH  14  17
ATOM     16  O   UNL     1       3.776   1.582  18.865  0.00  0.00    +0.000 OA
ATOM     17  S   UNL     1       3.508   2.664  19.787  0.00  0.00    +0.000 S 
ATOM     18  O   UNL     1       3.289   2.423  21.196  0.00  0.00    +0.000 OA
BRANCH  17  19
ATOM     19  C   UNL     1       2.074   3.565  19.133  0.00  0.00    +0.000 C 
ATOM     20  C   UNL     1       0.801   2.755  19.121  0.00  0.00    +0.000 C 
ATOM     21  C   UNL     1       0.979   3.858  20.127  0.00  0.00    +0.000 C 
ENDBRANCH  17  19
ENDBRANCH  14  17
ENDBRANCH  13  14
ENDBRANCH   1  13
TORSDOF 5
ENDMDL
MODEL 9
REMARK VINA RESULT:      -7.0      2.445      6.297
REMARK  Name = 
REMARK  5 active torsions:
REMARK  status: ('A' for Active; 'I' for Inactive)
REMARK    1  A    between atoms: S_2  and  N_4
REMARK    2  A    between atoms: S_2  and  C_17
REMARK    3  A    between atoms: N_4  and  C_5
REMARK    4  A    between atoms: C_5  and  C_6
REMARK    5  A    between atoms: C_15  and  O_16
REMARK                            x       y       z     vdW  Elec       q    Type
REMARK                         _______ _______ _______ _____ _____    ______ ____
ROOT
ATOM      1  C   UNL     1       5.742   5.664  17.765  0.00  0.00    +0.000 C 
ATOM      2  C   UNL     1       4.671   6.100  16.771  0.00  0.00    +0.000 C 
ATOM      3  C   UNL     1       5.412   6.088  15.442  0.00  0.00    +0.000 C 
ATOM      4  C   UNL     1       6.305   4.823  15.484  0.00  0.00    +0.000 C 
ATOM      5  C   UNL     1       7.606   5.036  14.686  0.00  0.00    +0.000 C 
ATOM      6  C   UNL     1       7.338   5.104  13.186  0.00  0.00    +0.000 C 
ATOM      7  O   UNL     1       6.707   3.908  12.737  0.00  0.00    +0.000 OA
ATOM      8  C   UNL     1       5.439   3.696  13.352  0.00  0.00    +0.000 C 
ATOM      9  C   UNL     1       5.571   3.604  14.869  0.00  0.00    +0.000 C 
ATOM     10  C   UNL     1       6.514   4.567  17.008  0.00  0.00    +0.000 C 
ENDROOT
BRANCH  10  11
ATOM     11  O   UNL     1       7.878   4.576  17.408  0.00  0.00    +0.000 OA
ATOM     12  H   UNL     1       8.020   5.325  18.011  0.00  0.00    +0.000 HD
ENDBRANCH  10  11
BRANCH   1  13
ATOM     13  C   UNL     1       5.145   5.173  19.089  0.00  0.00    +0.000 C 
BRANCH  13  14
ATOM     14  N   UNL     1       5.549   3.777  19.337  0.00  0.00    +0.000 NA
ATOM     15  H   UNL     1       6.248   3.414  18.676  0.00  0.00    +0.000 HD
BRANCH  14  17
ATOM     16  O   UNL     1       3.841   2.284  18.199  0.00  0.00    +0.000 OA
ATOM     17  S   UNL     1       4.310   2.642  19.520  0.00  0.00    +0.000 S 
ATOM     18  O   UNL     1       4.823   1.649  20.437  0.00  0.00    +0.000 OA
BRANCH  17  19
ATOM     19  C   UNL     1       2.947   3.522  20.337  0.00  0.00    +0.000 C 
ATOM     20  C   UNL     1       1.629   2.793  20.275  0.00  0.00    +0.000 C 
ATOM     21  C   UNL     1       2.390   2.858  21.570  0.00  0.00    +0.000 C 
ENDBRANCH  17  19
ENDBRANCH  14  17
ENDBRANCH  13  14
ENDBRANCH   1  13
TORSDOF 5
ENDMDL
