MODEL 1
REMARK VINA RESULT:      -6.6      0.000      0.000
REMARK  Name = 
REMARK  9 active torsions:
REMARK  status: ('A' for Active; 'I' for Inactive)
REMARK    1  A    between atoms: C_1  and  C_2
REMARK    2  A    between atoms: C_2  and  S_3
REMARK    3  A    between atoms: S_3  and  C_6
REMARK    4  A    between atoms: C_6  and  C_7
REMARK    5  A    between atoms: C_7  and  C_8
REMARK    6  A    between atoms: C_7  and  N_9
REMARK    7  A    between atoms: C_10  and  C_12
REMARK    8  A    between atoms: C_14  and  C_15
REMARK    9  A    between atoms: N_18  and  C_19
REMARK                            x       y       z     vdW  Elec       q    Type
REMARK                         _______ _______ _______ _____ _____    ______ ____
ROOT
ATOM      1  N   UNL     1       5.033   3.130  19.383  0.00  0.00    +0.000 N 
ATOM      2  C   UNL     1       4.738   3.372  18.051  0.00  0.00    +0.000 C 
ATOM      3  O   UNL     1       3.826   2.814  17.447  0.00  0.00    +0.000 OA
ATOM      4  H   UNL     1       5.932   3.490  19.697  0.00  0.00    +0.000 HD
ENDROOT
BRANCH   2   5
ATOM      5  C   UNL     1       5.633   4.350  17.358  0.00  0.00    +0.000 A 
ATOM      6  C   UNL     1       5.812   4.227  15.998  0.00  0.00    +0.000 A 
ATOM      7  C   UNL     1       6.739   5.075  15.454  0.00  0.00    +0.000 A 
ATOM      8  C   UNL     1       7.149   4.964  14.017  0.00  0.00    +0.000 C 
ATOM      9  N   UNL     1       7.356   6.021  16.191  0.00  0.00    +0.000 NA
ATOM     10  C   UNL     1       7.083   6.101  17.501  0.00  0.00    +0.000 A 
ATOM     11  N   UNL     1       7.720   7.053  18.277  0.00  0.00    +0.000 N 
ATOM     12  C   UNL     1       8.046   8.306  17.628  0.00  0.00    +0.000 C 
ATOM     13  N   UNL     1       6.250   5.273  18.139  0.00  0.00    +0.000 NA
ATOM     14  H   UNL     1       7.216   7.142  19.150  0.00  0.00    +0.000 HD
ENDBRANCH   2   5
BRANCH   1  15
ATOM     15  C   UNL     1       4.332   2.099  20.143  0.00  0.00    +0.000 C 
ATOM     16  C   UNL     1       5.355   1.297  20.956  0.00  0.00    +0.000 C 
BRANCH  15  17
ATOM     17  C   UNL     1       3.288   2.675  21.093  0.00  0.00    +0.000 C 
BRANCH  17  18
ATOM     18  S   UNL     1       1.633   2.745  20.444  0.00  0.00    +0.000 S 
ATOM     19  O   UNL     1       0.754   2.731  21.604  0.00  0.00    +0.000 OA
ATOM     20  O   UNL     1       1.491   1.737  19.414  0.00  0.00    +0.000 OA
BRANCH  18  22
ATOM     21  C   UNL     1       1.975   5.459  20.617  0.00  0.00    +0.000 C 
ATOM     22  C   UNL     1       1.490   4.362  19.694  0.00  0.00    +0.000 C 
ENDBRANCH  18  22
ENDBRANCH  17  18
ENDBRANCH  15  17
ENDBRANCH   1  15
TORSDOF 5
ENDMDL
MODEL 2
REMARK VINA RESULT:      -6.5      4.072      6.371
REMARK  Name = 
REMARK  9 active torsions:
REMARK  status: ('A' for Active; 'I' for Inactive)
REMARK    1  A    between atoms: C_1  and  C_2
REMARK    2  A    between atoms: C_2  and  S_3
REMARK    3  A    between atoms: S_3  and  C_6
REMARK    4  A    between atoms: C_6  and  C_7
REMARK    5  A    between atoms: C_7  and  C_8
REMARK    6  A    between atoms: C_7  and  N_9
REMARK    7  A    between atoms: C_10  and  C_12
REMARK    8  A    between atoms: C_14  and  C_15
REMARK    9  A    between atoms: N_18  and  C_19
REMARK                            x       y       z     vdW  Elec       q    Type
REMARK                         _______ _______ _______ _____ _____    ______ ____
ROOT
ATOM      1  N   UNL     1       3.498   5.413  18.353  0.00  0.00    +0.000 N 
ATOM      2  C   UNL     1       2.866   5.641  19.565  0.00  0.00    +0.000 C 
ATOM      3  O   UNL     1       2.802   4.808  20.464  0.00  0.00    +0.000 OA
ATOM      4  H   UNL     1       3.296   6.096  17.626  0.00  0.00    +0.000 HD
ENDROOT
BRANCH   2   5
ATOM      5  C   UNL     1       2.220   6.983  19.714  0.00  0.00    +0.000 A 
ATOM      6  C   UNL     1       2.228   7.839  18.636  0.00  0.00    +0.000 A 
ATOM      7  C   UNL     1       1.734   9.092  18.883  0.00  0.00    +0.000 A 
ATOM      8  C   UNL     1       1.808  10.177  17.853  0.00  0.00    +0.000 C 
ATOM      9  N   UNL     1       1.193   9.420  20.074  0.00  0.00    +0.000 NA
ATOM     10  C   UNL     1       1.182   8.505  21.054  0.00  0.00    +0.000 A 
ATOM     11  N   UNL     1       0.650   8.830  22.289  0.00  0.00    +0.000 N 
ATOM     12  C   UNL     1      -0.458   9.764  22.292  0.00  0.00    +0.000 C 
ATOM     13  N   UNL     1       1.707   7.281  20.935  0.00  0.00    +0.000 NA
ATOM     14  H   UNL     1       0.488   7.973  22.802  0.00  0.00    +0.000 HD
ENDBRANCH   2   5
BRANCH   1  15
ATOM     15  C   UNL     1       4.050   4.103  18.018  0.00  0.00    +0.000 C 
ATOM     16  C   UNL     1       2.994   3.301  17.246  0.00  0.00    +0.000 C 
BRANCH  15  17
ATOM     17  C   UNL     1       5.316   4.195  17.175  0.00  0.00    +0.000 C 
BRANCH  17  18
ATOM     18  S   UNL     1       6.659   5.088  17.924  0.00  0.00    +0.000 S 
ATOM     19  O   UNL     1       7.873   4.530  17.347  0.00  0.00    +0.000 OA
ATOM     20  O   UNL     1       6.475   5.095  19.359  0.00  0.00    +0.000 OA
BRANCH  18  22
ATOM     21  C   UNL     1       7.720   7.602  17.661  0.00  0.00    +0.000 C 
ATOM     22  C   UNL     1       6.509   6.763  17.314  0.00  0.00    +0.000 C 
ENDBRANCH  18  22
ENDBRANCH  17  18
ENDBRANCH  15  17
ENDBRANCH   1  15
TORSDOF 5
ENDMDL
MODEL 3
REMARK VINA RESULT:      -6.5      4.782      6.741
REMARK  Name = 
REMARK  9 active torsions:
REMARK  status: ('A' for Active; 'I' for Inactive)
REMARK    1  A    between atoms: C_1  and  C_2
REMARK    2  A    between atoms: C_2  and  S_3
REMARK    3  A    between atoms: S_3  and  C_6
REMARK    4  A    between atoms: C_6  and  C_7
REMARK    5  A    between atoms: C_7  and  C_8
REMARK    6  A    between atoms: C_7  and  N_9
REMARK    7  A    between atoms: C_10  and  C_12
REMARK    8  A    between atoms: C_14  and  C_15
REMARK    9  A    between atoms: N_18  and  C_19
REMARK                            x       y       z     vdW  Elec       q    Type
REMARK                         _______ _______ _______ _____ _____    ______ ____
ROOT
ATOM      1  N   UNL     1       1.449   8.800  19.509  0.00  0.00    +0.000 N 
ATOM      2  C   UNL     1       2.209   8.219  18.506  0.00  0.00    +0.000 C 
ATOM      3  O   UNL     1       2.556   8.813  17.489  0.00  0.00    +0.000 OA
ATOM      4  H   UNL     1       1.055   8.146  20.183  0.00  0.00    +0.000 HD
ENDROOT
BRANCH   2   5
ATOM      5  C   UNL     1       2.568   6.782  18.716  0.00  0.00    +0.000 A 
ATOM      6  C   UNL     1       3.427   6.183  17.823  0.00  0.00    +0.000 A 
ATOM      7  C   UNL     1       3.611   4.837  18.004  0.00  0.00    +0.000 A 
ATOM      8  C   UNL     1       4.401   4.019  17.029  0.00  0.00    +0.000 C 
ATOM      9  N   UNL     1       3.058   4.180  19.043  0.00  0.00    +0.000 NA
ATOM     10  C   UNL     1       2.273   4.855  19.895  0.00  0.00    +0.000 A 
ATOM     11  N   UNL     1       1.683   4.192  20.956  0.00  0.00    +0.000 N 
ATOM     12  C   UNL     1       2.432   3.094  21.532  0.00  0.00    +0.000 C 
ATOM     13  N   UNL     1       1.975   6.151  19.761  0.00  0.00    +0.000 NA
ATOM     14  H   UNL     1       1.355   4.882  21.620  0.00  0.00    +0.000 HD
ENDBRANCH   2   5
BRANCH   1  15
ATOM     15  C   UNL     1       0.912  10.151  19.372  0.00  0.00    +0.000 C 
ATOM     16  C   UNL     1      -0.276  10.117  18.402  0.00  0.00    +0.000 C 
BRANCH  15  17
ATOM     17  C   UNL     1       0.449  10.739  20.699  0.00  0.00    +0.000 C 
BRANCH  17  18
ATOM     18  S   UNL     1       0.234   9.560  22.014  0.00  0.00    +0.000 S 
ATOM     19  O   UNL     1       1.550   9.391  22.611  0.00  0.00    +0.000 OA
ATOM     20  O   UNL     1      -0.482   8.411  21.500  0.00  0.00    +0.000 OA
BRANCH  18  22
ATOM     21  C   UNL     1      -1.235  11.754  22.751  0.00  0.00    +0.000 C 
ATOM     22  C   UNL     1      -0.792  10.386  23.224  0.00  0.00    +0.000 C 
ENDBRANCH  18  22
ENDBRANCH  17  18
ENDBRANCH  15  17
ENDBRANCH   1  15
TORSDOF 5
ENDMDL
MODEL 4
REMARK VINA RESULT:      -6.4      1.058      2.260
REMARK  Name = 
REMARK  9 active torsions:
REMARK  status: ('A' for Active; 'I' for Inactive)
REMARK    1  A    between atoms: C_1  and  C_2
REMARK    2  A    between atoms: C_2  and  S_3
REMARK    3  A    between atoms: S_3  and  C_6
REMARK    4  A    between atoms: C_6  and  C_7
REMARK    5  A    between atoms: C_7  and  C_8
REMARK    6  A    between atoms: C_7  and  N_9
REMARK    7  A    between atoms: C_10  and  C_12
REMARK    8  A    between atoms: C_14  and  C_15
REMARK    9  A    between atoms: N_18  and  C_19
REMARK                            x       y       z     vdW  Elec       q    Type
REMARK                         _______ _______ _______ _____ _____    ______ ____
ROOT
ATOM      1  N   UNL     1       5.005   3.164  19.175  0.00  0.00    +0.000 N 
ATOM      2  C   UNL     1       4.669   3.459  17.863  0.00  0.00    +0.000 C 
ATOM      3  O   UNL     1       3.672   3.014  17.302  0.00  0.00    +0.000 OA
ATOM      4  H   UNL     1       5.953   3.419  19.444  0.00  0.00    +0.000 HD
ENDROOT
BRANCH   2   5
ATOM      5  C   UNL     1       5.628   4.347  17.134  0.00  0.00    +0.000 A 
ATOM      6  C   UNL     1       6.277   5.333  17.842  0.00  0.00    +0.000 A 
ATOM      7  C   UNL     1       7.040   6.185  17.089  0.00  0.00    +0.000 A 
ATOM      8  C   UNL     1       7.690   7.392  17.693  0.00  0.00    +0.000 C 
ATOM      9  N   UNL     1       7.209   6.002  15.763  0.00  0.00    +0.000 NA
ATOM     10  C   UNL     1       6.577   4.984  15.163  0.00  0.00    +0.000 A 
ATOM     11  N   UNL     1       6.724   4.792  13.801  0.00  0.00    +0.000 N 
ATOM     12  C   UNL     1       8.004   5.158  13.229  0.00  0.00    +0.000 C 
ATOM     13  N   UNL     1       5.754   4.143  15.798  0.00  0.00    +0.000 NA
ATOM     14  H   UNL     1       6.404   3.859  13.574  0.00  0.00    +0.000 HD
ENDBRANCH   2   5
BRANCH   1  15
ATOM     15  C   UNL     1       4.236   2.202  19.959  0.00  0.00    +0.000 C 
ATOM     16  C   UNL     1       5.198   1.170  20.562  0.00  0.00    +0.000 C 
BRANCH  15  17
ATOM     17  C   UNL     1       3.446   2.858  21.086  0.00  0.00    +0.000 C 
BRANCH  17  18
ATOM     18  S   UNL     1       1.688   2.936  20.828  0.00  0.00    +0.000 S 
ATOM     19  O   UNL     1       1.087   2.506  22.082  0.00  0.00    +0.000 OA
ATOM     20  O   UNL     1       1.364   2.251  19.595  0.00  0.00    +0.000 OA
BRANCH  18  22
ATOM     21  C   UNL     1       1.918   5.246  19.369  0.00  0.00    +0.000 C 
ATOM     22  C   UNL     1       1.318   4.676  20.636  0.00  0.00    +0.000 C 
ENDBRANCH  18  22
ENDBRANCH  17  18
ENDBRANCH  15  17
ENDBRANCH   1  15
TORSDOF 5
ENDMDL
MODEL 5
REMARK VINA RESULT:      -6.4      3.958      6.366
REMARK  Name = 
REMARK  9 active torsions:
REMARK  status: ('A' for Active; 'I' for Inactive)
REMARK    1  A    between atoms: C_1  and  C_2
REMARK    2  A    between atoms: C_2  and  S_3
REMARK    3  A    between atoms: S_3  and  C_6
REMARK    4  A    between atoms: C_6  and  C_7
REMARK    5  A    between atoms: C_7  and  C_8
REMARK    6  A    between atoms: C_7  and  N_9
REMARK    7  A    between atoms: C_10  and  C_12
REMARK    8  A    between atoms: C_14  and  C_15
REMARK    9  A    between atoms: N_18  and  C_19
REMARK                            x       y       z     vdW  Elec       q    Type
REMARK                         _______ _______ _______ _____ _____    ______ ____
ROOT
ATOM      1  N   UNL     1       3.250   5.481  18.675  0.00  0.00    +0.000 N 
ATOM      2  C   UNL     1       2.563   5.784  19.840  0.00  0.00    +0.000 C 
ATOM      3  O   UNL     1       2.371   4.976  20.744  0.00  0.00    +0.000 OA
ATOM      4  H   UNL     1       3.153   6.165  17.928  0.00  0.00    +0.000 HD
ENDROOT
BRANCH   2   5
ATOM      5  C   UNL     1       2.022   7.177  19.928  0.00  0.00    +0.000 A 
ATOM      6  C   UNL     1       1.325   7.540  21.058  0.00  0.00    +0.000 A 
ATOM      7  C   UNL     1       0.753   8.784  21.015  0.00  0.00    +0.000 A 
ATOM      8  C   UNL     1      -0.155   9.263  22.105  0.00  0.00    +0.000 C 
ATOM      9  N   UNL     1       0.948   9.619  19.974  0.00  0.00    +0.000 NA
ATOM     10  C   UNL     1       1.685   9.199  18.935  0.00  0.00    +0.000 A 
ATOM     11  N   UNL     1       1.879  10.035  17.850  0.00  0.00    +0.000 N 
ATOM     12  C   UNL     1       1.942  11.455  18.129  0.00  0.00    +0.000 C 
ATOM     13  N   UNL     1       2.222   7.978  18.851  0.00  0.00    +0.000 NA
ATOM     14  H   UNL     1       2.648   9.672  17.302  0.00  0.00    +0.000 HD
ENDBRANCH   2   5
BRANCH   1  15
ATOM     15  C   UNL     1       3.711   4.124  18.395  0.00  0.00    +0.000 C 
ATOM     16  C   UNL     1       2.629   3.386  17.597  0.00  0.00    +0.000 C 
BRANCH  15  17
ATOM     17  C   UNL     1       5.014   4.095  17.605  0.00  0.00    +0.000 C 
BRANCH  17  18
ATOM     18  S   UNL     1       6.326   5.091  18.276  0.00  0.00    +0.000 S 
ATOM     19  O   UNL     1       7.558   4.384  17.960  0.00  0.00    +0.000 OA
ATOM     20  O   UNL     1       6.010   5.419  19.650  0.00  0.00    +0.000 OA
BRANCH  18  22
ATOM     21  C   UNL     1       5.447   6.470  16.075  0.00  0.00    +0.000 C 
ATOM     22  C   UNL     1       6.319   6.595  17.306  0.00  0.00    +0.000 C 
ENDBRANCH  18  22
ENDBRANCH  17  18
ENDBRANCH  15  17
ENDBRANCH   1  15
TORSDOF 5
ENDMDL
MODEL 6
REMARK VINA RESULT:      -6.4      4.441      6.278
REMARK  Name = 
REMARK  9 active torsions:
REMARK  status: ('A' for Active; 'I' for Inactive)
REMARK    1  A    between atoms: C_1  and  C_2
REMARK    2  A    between atoms: C_2  and  S_3
REMARK    3  A    between atoms: S_3  and  C_6
REMARK    4  A    between atoms: C_6  and  C_7
REMARK    5  A    between atoms: C_7  and  C_8
REMARK    6  A    between atoms: C_7  and  N_9
REMARK    7  A    between atoms: C_10  and  C_12
REMARK    8  A    between atoms: C_14  and  C_15
REMARK    9  A    between atoms: N_18  and  C_19
REMARK                            x       y       z     vdW  Elec       q    Type
REMARK                         _______ _______ _______ _____ _____    ______ ____
ROOT
ATOM      1  N   UNL     1       2.876   6.150  19.069  0.00  0.00    +0.000 N 
ATOM      2  C   UNL     1       2.751   7.360  18.405  0.00  0.00    +0.000 C 
ATOM      3  O   UNL     1       3.355   7.631  17.371  0.00  0.00    +0.000 OA
ATOM      4  H   UNL     1       2.494   6.135  20.013  0.00  0.00    +0.000 HD
ENDROOT
BRANCH   2   5
ATOM      5  C   UNL     1       1.842   8.360  19.048  0.00  0.00    +0.000 A 
ATOM      6  C   UNL     1       1.589   8.244  20.397  0.00  0.00    +0.000 A 
ATOM      7  C   UNL     1       0.652   9.113  20.890  0.00  0.00    +0.000 A 
ATOM      8  C   UNL     1       0.166   9.016  22.303  0.00  0.00    +0.000 C 
ATOM      9  N   UNL     1       0.096  10.070  20.119  0.00  0.00    +0.000 NA
ATOM     10  C   UNL     1       0.439  10.140  18.825  0.00  0.00    +0.000 A 
ATOM     11  N   UNL     1      -0.137  11.103  18.015  0.00  0.00    +0.000 N 
ATOM     12  C   UNL     1      -0.470  12.365  18.643  0.00  0.00    +0.000 C 
ATOM     13  N   UNL     1       1.286   9.292  18.234  0.00  0.00    +0.000 NA
ATOM     14  H   UNL     1       0.414  11.178  17.169  0.00  0.00    +0.000 HD
ENDBRANCH   2   5
BRANCH   1  15
ATOM     15  C   UNL     1       3.832   5.137  18.631  0.00  0.00    +0.000 C 
ATOM     16  C   UNL     1       5.195   5.429  19.273  0.00  0.00    +0.000 C 
BRANCH  15  17
ATOM     17  C   UNL     1       3.404   3.722  19.003  0.00  0.00    +0.000 C 
BRANCH  17  18
ATOM     18  S   UNL     1       1.735   3.297  18.559  0.00  0.00    +0.000 S 
ATOM     19  O   UNL     1       1.749   1.865  18.299  0.00  0.00    +0.000 OA
ATOM     20  O   UNL     1       1.273   4.215  17.539  0.00  0.00    +0.000 OA
BRANCH  18  22
ATOM     21  C   UNL     1       1.431   2.934  21.259  0.00  0.00    +0.000 C 
ATOM     22  C   UNL     1       0.772   3.553  20.044  0.00  0.00    +0.000 C 
ENDBRANCH  18  22
ENDBRANCH  17  18
ENDBRANCH  15  17
ENDBRANCH   1  15
TORSDOF 5
ENDMDL
MODEL 7
REMARK VINA RESULT:      -6.4      4.107      6.489
REMARK  Name = 
REMARK  9 active torsions:
REMARK  status: ('A' for Active; 'I' for Inactive)
REMARK    1  A    between atoms: C_1  and  C_2
REMARK    2  A    between atoms: C_2  and  S_3
REMARK    3  A    between atoms: S_3  and  C_6
REMARK    4  A    between atoms: C_6  and  C_7
REMARK    5  A    between atoms: C_7  and  C_8
REMARK    6  A    between atoms: C_7  and  N_9
REMARK    7  A    between atoms: C_10  and  C_12
REMARK    8  A    between atoms: C_14  and  C_15
REMARK    9  A    between atoms: N_18  and  C_19
REMARK                            x       y       z     vdW  Elec       q    Type
REMARK                         _______ _______ _______ _____ _____    ______ ____
ROOT
ATOM      1  N   UNL     1       3.261   5.652  17.989  0.00  0.00    +0.000 N 
ATOM      2  C   UNL     1       2.946   5.919  19.312  0.00  0.00    +0.000 C 
ATOM      3  O   UNL     1       3.166   5.137  20.232  0.00  0.00    +0.000 OA
ATOM      4  H   UNL     1       2.838   6.282  17.310  0.00  0.00    +0.000 HD
ENDROOT
BRANCH   2   5
ATOM      5  C   UNL     1       2.276   7.233  19.564  0.00  0.00    +0.000 A 
ATOM      6  C   UNL     1       1.579   7.399  20.739  0.00  0.00    +0.000 A 
ATOM      7  C   UNL     1       0.888   8.577  20.846  0.00  0.00    +0.000 A 
ATOM      8  C   UNL     1      -0.031   8.842  21.999  0.00  0.00    +0.000 C 
ATOM      9  N   UNL     1       0.971   9.536  19.901  0.00  0.00    +0.000 NA
ATOM     10  C   UNL     1       1.716   9.308  18.810  0.00  0.00    +0.000 A 
ATOM     11  N   UNL     1       1.797  10.273  17.822  0.00  0.00    +0.000 N 
ATOM     12  C   UNL     1       1.730  11.654  18.256  0.00  0.00    +0.000 C 
ATOM     13  N   UNL     1       2.366   8.163  18.580  0.00  0.00    +0.000 NA
ATOM     14  H   UNL     1       2.582  10.051  17.223  0.00  0.00    +0.000 HD
ENDBRANCH   2   5
BRANCH   1  15
ATOM     15  C   UNL     1       3.791   4.354  17.580  0.00  0.00    +0.000 C 
ATOM     16  C   UNL     1       2.629   3.467  17.116  0.00  0.00    +0.000 C 
BRANCH  15  17
ATOM     17  C   UNL     1       4.810   4.463  16.452  0.00  0.00    +0.000 C 
BRANCH  17  18
ATOM     18  S   UNL     1       6.203   5.515  16.792  0.00  0.00    +0.000 S 
ATOM     19  O   UNL     1       5.666   6.865  16.873  0.00  0.00    +0.000 OA
ATOM     20  O   UNL     1       7.261   5.211  15.851  0.00  0.00    +0.000 OA
BRANCH  18  22
ATOM     21  C   UNL     1       7.837   5.982  18.943  0.00  0.00    +0.000 C 
ATOM     22  C   UNL     1       6.745   5.064  18.436  0.00  0.00    +0.000 C 
ENDBRANCH  18  22
ENDBRANCH  17  18
ENDBRANCH  15  17
ENDBRANCH   1  15
TORSDOF 5
ENDMDL
MODEL 8
REMARK VINA RESULT:      -6.4      4.056      6.478
REMARK  Name = 
REMARK  9 active torsions:
REMARK  status: ('A' for Active; 'I' for Inactive)
REMARK    1  A    between atoms: C_1  and  C_2
REMARK    2  A    between atoms: C_2  and  S_3
REMARK    3  A    between atoms: S_3  and  C_6
REMARK    4  A    between atoms: C_6  and  C_7
REMARK    5  A    between atoms: C_7  and  C_8
REMARK    6  A    between atoms: C_7  and  N_9
REMARK    7  A    between atoms: C_10  and  C_12
REMARK    8  A    between atoms: C_14  and  C_15
REMARK    9  A    between atoms: N_18  and  C_19
REMARK                            x       y       z     vdW  Elec       q    Type
REMARK                         _______ _______ _______ _____ _____    ______ ____
ROOT
ATOM      1  N   UNL     1       2.807   5.569  18.659  0.00  0.00    +0.000 N 
ATOM      2  C   UNL     1       2.348   5.980  19.900  0.00  0.00    +0.000 C 
ATOM      3  O   UNL     1       2.291   5.243  20.880  0.00  0.00    +0.000 OA
ATOM      4  H   UNL     1       2.604   6.206  17.892  0.00  0.00    +0.000 HD
ENDROOT
BRANCH   2   5
ATOM      5  C   UNL     1       1.882   7.400  19.979  0.00  0.00    +0.000 A 
ATOM      6  C   UNL     1       1.217   7.810  21.112  0.00  0.00    +0.000 A 
ATOM      7  C   UNL     1       0.710   9.082  21.062  0.00  0.00    +0.000 A 
ATOM      8  C   UNL     1      -0.159   9.619  22.157  0.00  0.00    +0.000 C 
ATOM      9  N   UNL     1       0.936   9.895  20.010  0.00  0.00    +0.000 NA
ATOM     10  C   UNL     1       1.638   9.427  18.968  0.00  0.00    +0.000 A 
ATOM     11  N   UNL     1       1.863  10.240  17.872  0.00  0.00    +0.000 N 
ATOM     12  C   UNL     1       2.003  11.658  18.134  0.00  0.00    +0.000 C 
ATOM     13  N   UNL     1       2.110   8.178  18.891  0.00  0.00    +0.000 NA
ATOM     14  H   UNL     1       2.605   9.832  17.319  0.00  0.00    +0.000 HD
ENDBRANCH   2   5
BRANCH   1  15
ATOM     15  C   UNL     1       3.163   4.176  18.402  0.00  0.00    +0.000 C 
ATOM     16  C   UNL     1       2.129   3.566  17.447  0.00  0.00    +0.000 C 
BRANCH  15  17
ATOM     17  C   UNL     1       4.551   4.024  17.791  0.00  0.00    +0.000 C 
BRANCH  17  18
ATOM     18  S   UNL     1       5.695   5.328  18.183  0.00  0.00    +0.000 S 
ATOM     19  O   UNL     1       5.851   5.294  19.629  0.00  0.00    +0.000 OA
ATOM     20  O   UNL     1       5.261   6.545  17.529  0.00  0.00    +0.000 OA
BRANCH  18  22
ATOM     21  C   UNL     1       7.157   4.617  15.975  0.00  0.00    +0.000 C 
ATOM     22  C   UNL     1       7.255   4.815  17.473  0.00  0.00    +0.000 C 
ENDBRANCH  18  22
ENDBRANCH  17  18
ENDBRANCH  15  17
ENDBRANCH   1  15
TORSDOF 5
ENDMDL
MODEL 9
REMARK VINA RESULT:      -6.3      4.882      6.778
REMARK  Name = 
REMARK  9 active torsions:
REMARK  status: ('A' for Active; 'I' for Inactive)
REMARK    1  A    between atoms: C_1  and  C_2
REMARK    2  A    between atoms: C_2  and  S_3
REMARK    3  A    between atoms: S_3  and  C_6
REMARK    4  A    between atoms: C_6  and  C_7
REMARK    5  A    between atoms: C_7  and  C_8
REMARK    6  A    between atoms: C_7  and  N_9
REMARK    7  A    between atoms: C_10  and  C_12
REMARK    8  A    between atoms: C_14  and  C_15
REMARK    9  A    between atoms: N_18  and  C_19
REMARK                            x       y       z     vdW  Elec       q    Type
REMARK                         _______ _______ _______ _____ _____    ______ ____
ROOT
ATOM      1  N   UNL     1       1.242   9.196  19.355  0.00  0.00    +0.000 N 
ATOM      2  C   UNL     1       2.058   8.788  18.312  0.00  0.00    +0.000 C 
ATOM      3  O   UNL     1       2.289   9.477  17.323  0.00  0.00    +0.000 OA
ATOM      4  H   UNL     1       0.965   8.458  19.999  0.00  0.00    +0.000 HD
ENDROOT
BRANCH   2   5
ATOM      5  C   UNL     1       2.632   7.412  18.441  0.00  0.00    +0.000 A 
ATOM      6  C   UNL     1       2.194   6.612  19.472  0.00  0.00    +0.000 A 
ATOM      7  C   UNL     1       2.853   5.419  19.604  0.00  0.00    +0.000 A 
ATOM      8  C   UNL     1       2.589   4.506  20.761  0.00  0.00    +0.000 C 
ATOM      9  N   UNL     1       3.795   5.027  18.722  0.00  0.00    +0.000 NA
ATOM     10  C   UNL     1       4.124   5.851  17.717  0.00  0.00    +0.000 A 
ATOM     11  N   UNL     1       5.103   5.474  16.814  0.00  0.00    +0.000 N 
ATOM     12  C   UNL     1       5.206   4.058  16.523  0.00  0.00    +0.000 C 
ATOM     13  N   UNL     1       3.592   7.065  17.546  0.00  0.00    +0.000 NA
ATOM     14  H   UNL     1       5.036   6.074  16.002  0.00  0.00    +0.000 HD
ENDBRANCH   2   5
BRANCH   1  15
ATOM     15  C   UNL     1       0.506  10.456  19.297  0.00  0.00    +0.000 C 
ATOM     16  C   UNL     1      -0.734  10.268  18.414  0.00  0.00    +0.000 C 
BRANCH  15  17
ATOM     17  C   UNL     1       0.065  10.945  20.671  0.00  0.00    +0.000 C 
BRANCH  17  18
ATOM     18  S   UNL     1       0.118   9.721  21.961  0.00  0.00    +0.000 S 
ATOM     19  O   UNL     1       1.486   9.731  22.457  0.00  0.00    +0.000 OA
ATOM     20  O   UNL     1      -0.465   8.492  21.465  0.00  0.00    +0.000 OA
BRANCH  18  22
ATOM     21  C   UNL     1      -1.487  11.727  22.918  0.00  0.00    +0.000 C 
ATOM     22  C   UNL     1      -0.920  10.367  23.266  0.00  0.00    +0.000 C 
ENDBRANCH  18  22
ENDBRANCH  17  18
ENDBRANCH  15  17
ENDBRANCH   1  15
TORSDOF 5
ENDMDL
