MODEL 1
REMARK VINA RESULT:      -6.6      0.000      0.000
REMARK  Name = 
REMARK  4 active torsions:
REMARK  status: ('A' for Active; 'I' for Inactive)
REMARK    1  A    between atoms: C_1  and  C_2
REMARK    2  A    between atoms: C_7  and  C_8
REMARK    3  A    between atoms: C_12  and  C_14
REMARK    4  A    between atoms: C_17  and  C_18
REMARK                            x       y       z     vdW  Elec       q    Type
REMARK                         _______ _______ _______ _____ _____    ______ ____
ROOT
ATOM      1  C   UNL     1      -0.139   9.894  19.263  0.00  0.00    +0.000 C 
ATOM      2  C   UNL     1      -0.078   9.172  20.627  0.00  0.00    +0.000 C 
ATOM      3  C   UNL     1       1.276   8.560  21.012  0.00  0.00    +0.000 C 
ATOM      4  N   UNL     1       1.952   7.936  19.875  0.00  0.00    +0.000 N 
ATOM      5  C   UNL     1       2.217   6.559  19.897  0.00  0.00    +0.000 C 
ATOM      6  O   UNL     1       1.847   5.822  20.808  0.00  0.00    +0.000 OA
ATOM      7  C   UNL     1       2.118   8.845  18.745  0.00  0.00    +0.000 C 
ATOM      8  C   UNL     1       0.760   9.252  18.201  0.00  0.00    +0.000 C 
ENDROOT
BRANCH   1  15
ATOM      9  C   UNL     1      -1.797  11.926  17.715  0.00  0.00    +0.000 C 
ATOM     10  C   UNL     1      -0.667  12.306  18.620  0.00  0.00    +0.000 A 
ATOM     11  C   UNL     1      -0.322  13.640  18.764  0.00  0.00    +0.000 A 
ATOM     12  N   UNL     1       0.709  14.074  19.508  0.00  0.00    +0.000 NA
ATOM     13  C   UNL     1       1.406  13.119  20.134  0.00  0.00    +0.000 A 
ATOM     14  N   UNL     1       1.157  11.797  20.096  0.00  0.00    +0.000 NA
ATOM     15  C   UNL     1       0.108  11.395  19.342  0.00  0.00    +0.000 A 
ENDBRANCH   1  15
BRANCH   5  16
ATOM     16  C   UNL     1       2.942   5.914  18.769  0.00  0.00    +0.000 A 
ATOM     17  C   UNL     1       2.438   4.837  18.038  0.00  0.00    +0.000 A 
ATOM     18  C   UNL     1       3.243   4.207  17.087  0.00  0.00    +0.000 A 
ATOM     19  C   UNL     1       4.503   4.735  16.825  0.00  0.00    +0.000 A 
ATOM     20  N   UNL     1       4.976   5.847  17.440  0.00  0.00    +0.000 NA
ATOM     21  C   UNL     1       4.183   6.413  18.391  0.00  0.00    +0.000 A 
BRANCH  19  22
ATOM     22  C   UNL     1       5.379   4.101  15.872  0.00  0.00    +0.000 C 
ATOM     23  N   UNL     1       6.085   3.641  15.076  0.00  0.00    +0.000 NA
ENDBRANCH  19  22
ENDBRANCH   5  16
TORSDOF 3
ENDMDL
MODEL 2
REMARK VINA RESULT:      -6.4      2.657      8.291
REMARK  Name = 
REMARK  4 active torsions:
REMARK  status: ('A' for Active; 'I' for Inactive)
REMARK    1  A    between atoms: C_1  and  C_2
REMARK    2  A    between atoms: C_7  and  C_8
REMARK    3  A    between atoms: C_12  and  C_14
REMARK    4  A    between atoms: C_17  and  C_18
REMARK                            x       y       z     vdW  Elec       q    Type
REMARK                         _______ _______ _______ _____ _____    ______ ____
ROOT
ATOM      1  C   UNL     1       1.770   4.783  19.171  0.00  0.00    +0.000 C 
ATOM      2  C   UNL     1       2.095   5.536  17.862  0.00  0.00    +0.000 C 
ATOM      3  C   UNL     1       2.725   6.927  18.017  0.00  0.00    +0.000 C 
ATOM      4  N   UNL     1       2.136   7.688  19.119  0.00  0.00    +0.000 N 
ATOM      5  C   UNL     1       1.466   8.891  18.850  0.00  0.00    +0.000 C 
ATOM      6  O   UNL     1       1.288   9.316  17.710  0.00  0.00    +0.000 OA
ATOM      7  C   UNL     1       2.182   6.974  20.391  0.00  0.00    +0.000 C 
ATOM      8  C   UNL     1       1.341   5.713  20.311  0.00  0.00    +0.000 C 
ENDROOT
BRANCH   1  15
ATOM      9  C   UNL     1       1.361   2.731  21.384  0.00  0.00    +0.000 C 
ATOM     10  C   UNL     1       2.656   2.903  20.653  0.00  0.00    +0.000 A 
ATOM     11  C   UNL     1       3.746   2.119  20.992  0.00  0.00    +0.000 A 
ATOM     12  N   UNL     1       4.960   2.238  20.432  0.00  0.00    +0.000 NA
ATOM     13  C   UNL     1       5.067   3.180  19.489  0.00  0.00    +0.000 A 
ATOM     14  N   UNL     1       4.081   3.985  19.052  0.00  0.00    +0.000 NA
ATOM     15  C   UNL     1       2.869   3.835  19.634  0.00  0.00    +0.000 A 
ENDBRANCH   1  15
BRANCH   5  16
ATOM     16  C   UNL     1       0.898   9.701  19.960  0.00  0.00    +0.000 A 
ATOM     17  C   UNL     1       0.228   9.155  21.055  0.00  0.00    +0.000 A 
ATOM     18  C   UNL     1      -0.390   9.997  21.981  0.00  0.00    +0.000 A 
ATOM     19  C   UNL     1      -0.240  11.372  21.837  0.00  0.00    +0.000 A 
ATOM     20  N   UNL     1       0.499  11.931  20.845  0.00  0.00    +0.000 NA
ATOM     21  C   UNL     1       1.055  11.083  19.935  0.00  0.00    +0.000 A 
BRANCH  19  22
ATOM     22  C   UNL     1      -0.884  12.280  22.752  0.00  0.00    +0.000 C 
ATOM     23  N   UNL     1      -1.350  13.023  23.510  0.00  0.00    +0.000 NA
ENDBRANCH  19  22
ENDBRANCH   5  16
TORSDOF 3
ENDMDL
MODEL 3
REMARK VINA RESULT:      -6.4      0.762      1.069
REMARK  Name = 
REMARK  4 active torsions:
REMARK  status: ('A' for Active; 'I' for Inactive)
REMARK    1  A    between atoms: C_1  and  C_2
REMARK    2  A    between atoms: C_7  and  C_8
REMARK    3  A    between atoms: C_12  and  C_14
REMARK    4  A    between atoms: C_17  and  C_18
REMARK                            x       y       z     vdW  Elec       q    Type
REMARK                         _______ _______ _______ _____ _____    ______ ____
ROOT
ATOM      1  C   UNL     1       0.059   9.861  18.804  0.00  0.00    +0.000 C 
ATOM      2  C   UNL     1      -0.160   9.225  20.195  0.00  0.00    +0.000 C 
ATOM      3  C   UNL     1       1.081   8.625  20.870  0.00  0.00    +0.000 C 
ATOM      4  N   UNL     1       1.948   7.924  19.923  0.00  0.00    +0.000 N 
ATOM      5  C   UNL     1       2.173   6.548  20.077  0.00  0.00    +0.000 C 
ATOM      6  O   UNL     1       1.619   5.874  20.942  0.00  0.00    +0.000 OA
ATOM      7  C   UNL     1       2.349   8.759  18.795  0.00  0.00    +0.000 C 
ATOM      8  C   UNL     1       1.131   9.145  17.975  0.00  0.00    +0.000 C 
ENDROOT
BRANCH   1  15
ATOM      9  C   UNL     1      -2.020  11.921  17.961  0.00  0.00    +0.000 C 
ATOM     10  C   UNL     1      -0.652  12.286  18.446  0.00  0.00    +0.000 A 
ATOM     11  C   UNL     1      -0.277  13.618  18.505  0.00  0.00    +0.000 A 
ATOM     12  N   UNL     1       0.944  14.040  18.873  0.00  0.00    +0.000 NA
ATOM     13  C   UNL     1       1.809  13.075  19.200  0.00  0.00    +0.000 A 
ATOM     14  N   UNL     1       1.560  11.752  19.210  0.00  0.00    +0.000 NA
ATOM     15  C   UNL     1       0.319  11.362  18.839  0.00  0.00    +0.000 A 
ENDBRANCH   1  15
BRANCH   5  16
ATOM     16  C   UNL     1       3.086   5.826  19.152  0.00  0.00    +0.000 A 
ATOM     17  C   UNL     1       4.462   5.708  19.355  0.00  0.00    +0.000 A 
ATOM     18  C   UNL     1       5.262   5.130  18.367  0.00  0.00    +0.000 A 
ATOM     19  C   UNL     1       4.648   4.597  17.239  0.00  0.00    +0.000 A 
ATOM     20  N   UNL     1       3.303   4.598  17.065  0.00  0.00    +0.000 NA
ATOM     21  C   UNL     1       2.554   5.205  18.027  0.00  0.00    +0.000 A 
BRANCH  19  22
ATOM     22  C   UNL     1       5.436   4.017  16.181  0.00  0.00    +0.000 C 
ATOM     23  N   UNL     1       6.022   3.547  15.298  0.00  0.00    +0.000 NA
ENDBRANCH  19  22
ENDBRANCH   5  16
TORSDOF 3
ENDMDL
MODEL 4
REMARK VINA RESULT:      -6.4      5.052      7.545
REMARK  Name = 
REMARK  4 active torsions:
REMARK  status: ('A' for Active; 'I' for Inactive)
REMARK    1  A    between atoms: C_1  and  C_2
REMARK    2  A    between atoms: C_7  and  C_8
REMARK    3  A    between atoms: C_12  and  C_14
REMARK    4  A    between atoms: C_17  and  C_18
REMARK                            x       y       z     vdW  Elec       q    Type
REMARK                         _______ _______ _______ _____ _____    ______ ____
ROOT
ATOM      1  C   UNL     1       2.990   4.937  17.838  0.00  0.00    +0.000 C 
ATOM      2  C   UNL     1       3.852   4.211  16.781  0.00  0.00    +0.000 C 
ATOM      3  C   UNL     1       5.354   4.113  17.081  0.00  0.00    +0.000 C 
ATOM      4  N   UNL     1       5.887   5.337  17.677  0.00  0.00    +0.000 N 
ATOM      5  C   UNL     1       6.875   6.066  16.998  0.00  0.00    +0.000 C 
ATOM      6  O   UNL     1       7.279   5.760  15.879  0.00  0.00    +0.000 OA
ATOM      7  C   UNL     1       5.164   5.745  18.878  0.00  0.00    +0.000 C 
ATOM      8  C   UNL     1       3.727   6.090  18.528  0.00  0.00    +0.000 C 
ENDROOT
BRANCH   1  15
ATOM      9  C   UNL     1       1.707   5.950  20.407  0.00  0.00    +0.000 C 
ATOM     10  C   UNL     1       1.774   4.501  20.039  0.00  0.00    +0.000 A 
ATOM     11  C   UNL     1       1.254   3.548  20.899  0.00  0.00    +0.000 A 
ATOM     12  N   UNL     1       1.316   2.225  20.682  0.00  0.00    +0.000 NA
ATOM     13  C   UNL     1       1.920   1.858  19.547  0.00  0.00    +0.000 A 
ATOM     14  N   UNL     1       2.440   2.683  18.619  0.00  0.00    +0.000 NA
ATOM     15  C   UNL     1       2.355   4.010  18.867  0.00  0.00    +0.000 A 
ENDBRANCH   1  15
BRANCH   5  16
ATOM     16  C   UNL     1       7.461   7.290  17.608  0.00  0.00    +0.000 A 
ATOM     17  C   UNL     1       7.181   8.584  17.169  0.00  0.00    +0.000 A 
ATOM     18  C   UNL     1       7.879   9.666  17.709  0.00  0.00    +0.000 A 
ATOM     19  C   UNL     1       8.774   9.431  18.748  0.00  0.00    +0.000 A 
ATOM     20  N   UNL     1       8.985   8.197  19.271  0.00  0.00    +0.000 NA
ATOM     21  C   UNL     1       8.319   7.158  18.694  0.00  0.00    +0.000 A 
BRANCH  19  22
ATOM     22  C   UNL     1       9.538  10.512  19.316  0.00  0.00    +0.000 C 
ATOM     23  N   UNL     1      10.178  11.390  19.722  0.00  0.00    +0.000 NA
ENDBRANCH  19  22
ENDBRANCH   5  16
TORSDOF 3
ENDMDL
MODEL 5
REMARK VINA RESULT:      -6.2      2.232      3.578
REMARK  Name = 
REMARK  4 active torsions:
REMARK  status: ('A' for Active; 'I' for Inactive)
REMARK    1  A    between atoms: C_1  and  C_2
REMARK    2  A    between atoms: C_7  and  C_8
REMARK    3  A    between atoms: C_12  and  C_14
REMARK    4  A    between atoms: C_17  and  C_18
REMARK                            x       y       z     vdW  Elec       q    Type
REMARK                         _______ _______ _______ _____ _____    ______ ____
ROOT
ATOM      1  C   UNL     1       1.381   6.900  19.408  0.00  0.00    +0.000 C 
ATOM      2  C   UNL     1       1.577   5.619  20.249  0.00  0.00    +0.000 C 
ATOM      3  C   UNL     1       3.027   5.165  20.469  0.00  0.00    +0.000 C 
ATOM      4  N   UNL     1       3.853   5.334  19.274  0.00  0.00    +0.000 N 
ATOM      5  C   UNL     1       4.427   4.210  18.664  0.00  0.00    +0.000 C 
ATOM      6  O   UNL     1       4.218   3.061  19.048  0.00  0.00    +0.000 OA
ATOM      7  C   UNL     1       3.830   6.699  18.756  0.00  0.00    +0.000 C 
ATOM      8  C   UNL     1       2.427   7.059  18.299  0.00  0.00    +0.000 C 
ENDROOT
BRANCH   1  15
ATOM      9  C   UNL     1       0.807   9.624  18.174  0.00  0.00    +0.000 C 
ATOM     10  C   UNL     1       1.010   9.414  19.642  0.00  0.00    +0.000 A 
ATOM     11  C   UNL     1       0.961  10.497  20.505  0.00  0.00    +0.000 A 
ATOM     12  N   UNL     1       1.185  10.416  21.826  0.00  0.00    +0.000 NA
ATOM     13  C   UNL     1       1.459   9.191  22.287  0.00  0.00    +0.000 A 
ATOM     14  N   UNL     1       1.510   8.060  21.561  0.00  0.00    +0.000 NA
ATOM     15  C   UNL     1       1.273   8.176  20.234  0.00  0.00    +0.000 A 
ENDBRANCH   1  15
BRANCH   5  16
ATOM     16  C   UNL     1       5.306   4.365  17.474  0.00  0.00    +0.000 A 
ATOM     17  C   UNL     1       6.676   4.621  17.549  0.00  0.00    +0.000 A 
ATOM     18  C   UNL     1       7.397   4.887  16.384  0.00  0.00    +0.000 A 
ATOM     19  C   UNL     1       6.744   4.794  15.159  0.00  0.00    +0.000 A 
ATOM     20  N   UNL     1       5.440   4.438  15.047  0.00  0.00    +0.000 NA
ATOM     21  C   UNL     1       4.754   4.225  16.205  0.00  0.00    +0.000 A 
BRANCH  19  22
ATOM     22  C   UNL     1       7.441   5.088  13.933  0.00  0.00    +0.000 C 
ATOM     23  N   UNL     1       7.952   5.346  12.925  0.00  0.00    +0.000 NA
ENDBRANCH  19  22
ENDBRANCH   5  16
TORSDOF 3
ENDMDL
MODEL 6
REMARK VINA RESULT:      -6.0      2.284      3.547
REMARK  Name = 
REMARK  4 active torsions:
REMARK  status: ('A' for Active; 'I' for Inactive)
REMARK    1  A    between atoms: C_1  and  C_2
REMARK    2  A    between atoms: C_7  and  C_8
REMARK    3  A    between atoms: C_12  and  C_14
REMARK    4  A    between atoms: C_17  and  C_18
REMARK                            x       y       z     vdW  Elec       q    Type
REMARK                         _______ _______ _______ _____ _____    ______ ____
ROOT
ATOM      1  C   UNL     1       1.433   6.923  19.389  0.00  0.00    +0.000 C 
ATOM      2  C   UNL     1       1.878   5.685  20.199  0.00  0.00    +0.000 C 
ATOM      3  C   UNL     1       3.385   5.398  20.229  0.00  0.00    +0.000 C 
ATOM      4  N   UNL     1       4.026   5.638  18.936  0.00  0.00    +0.000 N 
ATOM      5  C   UNL     1       4.638   4.574  18.258  0.00  0.00    +0.000 C 
ATOM      6  O   UNL     1       4.610   3.416  18.667  0.00  0.00    +0.000 OA
ATOM      7  C   UNL     1       3.784   6.983  18.424  0.00  0.00    +0.000 C 
ATOM      8  C   UNL     1       2.302   7.179  18.153  0.00  0.00    +0.000 C 
ENDROOT
BRANCH   1  15
ATOM      9  C   UNL     1       0.755   9.630  18.170  0.00  0.00    +0.000 C 
ATOM     10  C   UNL     1       0.981   9.423  19.635  0.00  0.00    +0.000 A 
ATOM     11  C   UNL     1       0.904  10.500  20.502  0.00  0.00    +0.000 A 
ATOM     12  N   UNL     1       1.145  10.423  21.821  0.00  0.00    +0.000 NA
ATOM     13  C   UNL     1       1.464   9.207  22.275  0.00  0.00    +0.000 A 
ATOM     14  N   UNL     1       1.545   8.080  21.544  0.00  0.00    +0.000 NA
ATOM     15  C   UNL     1       1.291   8.192  20.220  0.00  0.00    +0.000 A 
ENDBRANCH   1  15
BRANCH   5  16
ATOM     16  C   UNL     1       5.333   4.806  16.963  0.00  0.00    +0.000 A 
ATOM     17  C   UNL     1       4.873   4.321  15.738  0.00  0.00    +0.000 A 
ATOM     18  C   UNL     1       5.658   4.471  14.594  0.00  0.00    +0.000 A 
ATOM     19  C   UNL     1       6.845   5.190  14.688  0.00  0.00    +0.000 A 
ATOM     20  N   UNL     1       7.263   5.769  15.841  0.00  0.00    +0.000 NA
ATOM     21  C   UNL     1       6.495   5.570  16.948  0.00  0.00    +0.000 A 
BRANCH  19  22
ATOM     22  C   UNL     1       7.701   5.346  13.540  0.00  0.00    +0.000 C 
ATOM     23  N   UNL     1       8.347   5.499  12.589  0.00  0.00    +0.000 NA
ENDBRANCH  19  22
ENDBRANCH   5  16
TORSDOF 3
ENDMDL
MODEL 7
REMARK VINA RESULT:      -6.0      2.594      4.674
REMARK  Name = 
REMARK  4 active torsions:
REMARK  status: ('A' for Active; 'I' for Inactive)
REMARK    1  A    between atoms: C_1  and  C_2
REMARK    2  A    between atoms: C_7  and  C_8
REMARK    3  A    between atoms: C_12  and  C_14
REMARK    4  A    between atoms: C_17  and  C_18
REMARK                            x       y       z     vdW  Elec       q    Type
REMARK                         _______ _______ _______ _____ _____    ______ ____
ROOT
ATOM      1  C   UNL     1       1.201  14.455  18.575  0.00  0.00    +0.000 C 
ATOM      2  C   UNL     1      -0.296  14.094  18.700  0.00  0.00    +0.000 C 
ATOM      3  C   UNL     1      -0.641  12.953  19.666  0.00  0.00    +0.000 C 
ATOM      4  N   UNL     1       0.327  11.857  19.607  0.00  0.00    +0.000 N 
ATOM      5  C   UNL     1      -0.094  10.582  19.201  0.00  0.00    +0.000 C 
ATOM      6  O   UNL     1      -1.239  10.345  18.824  0.00  0.00    +0.000 OA
ATOM      7  C   UNL     1       1.700  12.300  19.827  0.00  0.00    +0.000 C 
ATOM      8  C   UNL     1       2.128  13.243  18.717  0.00  0.00    +0.000 C 
ENDROOT
BRANCH   1  15
ATOM      9  C   UNL     1       3.037  16.707  17.660  0.00  0.00    +0.000 C 
ATOM     10  C   UNL     1       2.492  16.605  19.050  0.00  0.00    +0.000 A 
ATOM     11  C   UNL     1       2.839  17.556  19.995  0.00  0.00    +0.000 A 
ATOM     12  N   UNL     1       2.446  17.520  21.279  0.00  0.00    +0.000 NA
ATOM     13  C   UNL     1       1.666  16.485  21.610  0.00  0.00    +0.000 A 
ATOM     14  N   UNL     1       1.238  15.514  20.783  0.00  0.00    +0.000 NA
ATOM     15  C   UNL     1       1.648  15.585  19.495  0.00  0.00    +0.000 A 
ENDBRANCH   1  15
BRANCH   5  16
ATOM     16  C   UNL     1       0.865   9.445  19.176  0.00  0.00    +0.000 A 
ATOM     17  C   UNL     1       1.570   9.051  18.039  0.00  0.00    +0.000 A 
ATOM     18  C   UNL     1       2.345   7.890  18.071  0.00  0.00    +0.000 A 
ATOM     19  C   UNL     1       2.471   7.204  19.275  0.00  0.00    +0.000 A 
ATOM     20  N   UNL     1       1.887   7.626  20.425  0.00  0.00    +0.000 NA
ATOM     21  C   UNL     1       1.104   8.739  20.350  0.00  0.00    +0.000 A 
BRANCH  19  22
ATOM     22  C   UNL     1       3.237   5.986  19.348  0.00  0.00    +0.000 C 
ATOM     23  N   UNL     1       3.856   5.013  19.466  0.00  0.00    +0.000 NA
ENDBRANCH  19  22
ENDBRANCH   5  16
TORSDOF 3
ENDMDL
MODEL 8
REMARK VINA RESULT:      -5.9      2.714      8.248
REMARK  Name = 
REMARK  4 active torsions:
REMARK  status: ('A' for Active; 'I' for Inactive)
REMARK    1  A    between atoms: C_1  and  C_2
REMARK    2  A    between atoms: C_7  and  C_8
REMARK    3  A    between atoms: C_12  and  C_14
REMARK    4  A    between atoms: C_17  and  C_18
REMARK                            x       y       z     vdW  Elec       q    Type
REMARK                         _______ _______ _______ _____ _____    ______ ____
ROOT
ATOM      1  C   UNL     1       2.063   4.497  18.945  0.00  0.00    +0.000 C 
ATOM      2  C   UNL     1       2.673   5.227  17.728  0.00  0.00    +0.000 C 
ATOM      3  C   UNL     1       3.270   6.615  17.999  0.00  0.00    +0.000 C 
ATOM      4  N   UNL     1       2.465   7.397  18.937  0.00  0.00    +0.000 N 
ATOM      5  C   UNL     1       1.883   8.602  18.513  0.00  0.00    +0.000 C 
ATOM      6  O   UNL     1       1.962   9.011  17.357  0.00  0.00    +0.000 OA
ATOM      7  C   UNL     1       2.226   6.702  20.198  0.00  0.00    +0.000 C 
ATOM      8  C   UNL     1       1.407   5.447  19.953  0.00  0.00    +0.000 C 
ENDROOT
BRANCH   1  15
ATOM      9  C   UNL     1       1.242   2.764  21.311  0.00  0.00    +0.000 C 
ATOM     10  C   UNL     1       2.623   2.763  20.732  0.00  0.00    +0.000 A 
ATOM     11  C   UNL     1       3.603   1.960  21.292  0.00  0.00    +0.000 A 
ATOM     12  N   UNL     1       4.880   1.933  20.878  0.00  0.00    +0.000 NA
ATOM     13  C   UNL     1       5.168   2.742  19.854  0.00  0.00    +0.000 A 
ATOM     14  N   UNL     1       4.304   3.547  19.208  0.00  0.00    +0.000 NA
ATOM     15  C   UNL     1       3.024   3.546  19.647  0.00  0.00    +0.000 A 
ENDBRANCH   1  15
BRANCH   5  16
ATOM     16  C   UNL     1       1.097   9.433  19.464  0.00  0.00    +0.000 A 
ATOM     17  C   UNL     1       0.111  10.338  19.069  0.00  0.00    +0.000 A 
ATOM     18  C   UNL     1      -0.481  11.175  20.017  0.00  0.00    +0.000 A 
ATOM     19  C   UNL     1      -0.137  11.017  21.355  0.00  0.00    +0.000 A 
ATOM     20  N   UNL     1       0.736  10.070  21.782  0.00  0.00    +0.000 NA
ATOM     21  C   UNL     1       1.327   9.298  20.828  0.00  0.00    +0.000 A 
BRANCH  19  22
ATOM     22  C   UNL     1      -0.701  11.877  22.364  0.00  0.00    +0.000 C 
ATOM     23  N   UNL     1      -1.113  12.552  23.212  0.00  0.00    +0.000 NA
ENDBRANCH  19  22
ENDBRANCH   5  16
TORSDOF 3
ENDMDL
MODEL 9
REMARK VINA RESULT:      -5.9      5.196      7.658
REMARK  Name = 
REMARK  4 active torsions:
REMARK  status: ('A' for Active; 'I' for Inactive)
REMARK    1  A    between atoms: C_1  and  C_2
REMARK    2  A    between atoms: C_7  and  C_8
REMARK    3  A    between atoms: C_12  and  C_14
REMARK    4  A    between atoms: C_17  and  C_18
REMARK                            x       y       z     vdW  Elec       q    Type
REMARK                         _______ _______ _______ _____ _____    ______ ____
ROOT
ATOM      1  C   UNL     1       3.078   4.984  17.798  0.00  0.00    +0.000 C 
ATOM      2  C   UNL     1       4.001   4.200  16.839  0.00  0.00    +0.000 C 
ATOM      3  C   UNL     1       5.485   4.139  17.224  0.00  0.00    +0.000 C 
ATOM      4  N   UNL     1       5.975   5.407  17.765  0.00  0.00    +0.000 N 
ATOM      5  C   UNL     1       6.993   6.100  17.093  0.00  0.00    +0.000 C 
ATOM      6  O   UNL     1       7.459   5.726  16.019  0.00  0.00    +0.000 OA
ATOM      7  C   UNL     1       5.186   5.885  18.896  0.00  0.00    +0.000 C 
ATOM      8  C   UNL     1       3.767   6.189  18.449  0.00  0.00    +0.000 C 
ENDROOT
BRANCH   1  15
ATOM      9  C   UNL     1       2.532   2.015  17.401  0.00  0.00    +0.000 C 
ATOM     10  C   UNL     1       2.156   2.760  18.643  0.00  0.00    +0.000 A 
ATOM     11  C   UNL     1       1.507   2.097  19.672  0.00  0.00    +0.000 A 
ATOM     12  N   UNL     1       1.082   2.691  20.799  0.00  0.00    +0.000 NA
ATOM     13  C   UNL     1       1.333   4.001  20.886  0.00  0.00    +0.000 A 
ATOM     14  N   UNL     1       1.976   4.751  19.972  0.00  0.00    +0.000 NA
ATOM     15  C   UNL     1       2.396   4.120  18.851  0.00  0.00    +0.000 A 
ENDBRANCH   1  15
BRANCH   5  16
ATOM     16  C   UNL     1       7.535   7.368  17.650  0.00  0.00    +0.000 A 
ATOM     17  C   UNL     1       7.215   8.632  17.154  0.00  0.00    +0.000 A 
ATOM     18  C   UNL     1       7.874   9.759  17.649  0.00  0.00    +0.000 A 
ATOM     19  C   UNL     1       8.772   9.599  18.699  0.00  0.00    +0.000 A 
ATOM     20  N   UNL     1       9.021   8.397  19.276  0.00  0.00    +0.000 NA
ATOM     21  C   UNL     1       8.392   7.313  18.743  0.00  0.00    +0.000 A 
BRANCH  19  22
ATOM     22  C   UNL     1       9.497  10.729  19.222  0.00  0.00    +0.000 C 
ATOM     23  N   UNL     1      10.069  11.619  19.697  0.00  0.00    +0.000 NA
ENDBRANCH  19  22
ENDBRANCH   5  16
TORSDOF 3
ENDMDL
