MODEL 1
REMARK VINA RESULT:      -9.1      0.000      0.000
REMARK  Name = 
REMARK  8 active torsions:
REMARK  status: ('A' for Active; 'I' for Inactive)
REMARK    1  A    between atoms: C_1  and  C_2
REMARK    2  A    between atoms: C_2  and  C_3
REMARK    3  A    between atoms: C_2  and  C_4
REMARK    4  A    between atoms: C_2  and  C_5
REMARK    5  A    between atoms: C_8  and  C_9
REMARK    6  A    between atoms: C_9  and  N_10
REMARK    7  A    between atoms: C_13  and  O_14
REMARK    8  A    between atoms: O_14  and  C_15
REMARK                            x       y       z     vdW  Elec       q    Type
REMARK                         _______ _______ _______ _____ _____    ______ ____
ROOT
ATOM      1  N   UNL     1       1.994   2.369  20.438  0.00  0.00    +0.000 NA
ATOM      2  C   UNL     1       0.808   2.779  19.680  0.00  0.00    +0.000 C 
ATOM      3  C   UNL     1       0.893   4.285  19.486  0.00  0.00    +0.000 C 
ATOM      4  C   UNL     1       1.617   4.808  20.713  0.00  0.00    +0.000 C 
ATOM      5  C   UNL     1       2.406   3.567  21.208  0.00  0.00    +0.000 C 
ENDROOT
BRANCH   1   6
ATOM      6  C   UNL     1       3.078   1.830  19.595  0.00  0.00    +0.000 C 
BRANCH   6  10
ATOM      7  C   UNL     1       5.347   4.740  17.197  0.00  0.00    +0.000 A 
ATOM      8  C   UNL     1       5.659   4.500  18.548  0.00  0.00    +0.000 A 
ATOM      9  C   UNL     1       4.918   3.588  19.329  0.00  0.00    +0.000 A 
ATOM     10  C   UNL     1       3.833   2.885  18.788  0.00  0.00    +0.000 A 
ATOM     11  C   UNL     1       3.513   3.120  17.447  0.00  0.00    +0.000 A 
ATOM     12  C   UNL     1       4.256   4.026  16.671  0.00  0.00    +0.000 A 
BRANCH   7  14
ATOM     13  C   UNL     1       7.019   5.047  15.240  0.00  0.00    +0.000 C 
ATOM     14  C   UNL     1       6.131   5.728  16.308  0.00  0.00    +0.000 C 
ATOM     15  C   UNL     1       7.060   6.601  17.183  0.00  0.00    +0.000 C 
ATOM     16  C   UNL     1       5.157   6.661  15.553  0.00  0.00    +0.000 C 
ENDBRANCH   7  14
ENDBRANCH   6  10
ENDBRANCH   1   6
BRANCH   4  17
ATOM     17  O   UNL     1       2.556   5.824  20.371  0.00  0.00    +0.000 OA
BRANCH  17  18
ATOM     18  C   UNL     1       2.207   7.009  19.767  0.00  0.00    +0.000 A 
ATOM     19  C   UNL     1       2.782   7.062  18.478  0.00  0.00    +0.000 A 
ATOM     20  C   UNL     1       2.621   8.165  17.650  0.00  0.00    +0.000 A 
ATOM     21  C   UNL     1       1.913   9.250  18.120  0.00  0.00    +0.000 A 
ATOM     22  C   UNL     1       1.360   9.232  19.406  0.00  0.00    +0.000 A 
ATOM     23  C   UNL     1       0.721  10.396  19.843  0.00  0.00    +0.000 A 
ATOM     24  C   UNL     1       0.163  10.429  21.106  0.00  0.00    +0.000 A 
ATOM     25  C   UNL     1       0.213   9.283  21.876  0.00  0.00    +0.000 A 
ATOM     26  N   UNL     1      -0.381   9.311  23.137  0.00  0.00    +0.000 N 
ATOM     27  N   UNL     1       0.854   8.154  21.495  0.00  0.00    +0.000 NA
ATOM     28  C   UNL     1       1.456   8.104  20.270  0.00  0.00    +0.000 A 
ATOM     29  H   UNL     1      -1.325   9.683  23.100  0.00  0.00    +0.000 HD
ATOM     30  H   UNL     1      -0.349   8.376  23.530  0.00  0.00    +0.000 HD
ENDBRANCH  17  18
ENDBRANCH   4  17
TORSDOF 5
ENDMDL
MODEL 2
REMARK VINA RESULT:      -8.8      0.575      1.073
REMARK  Name = 
REMARK  8 active torsions:
REMARK  status: ('A' for Active; 'I' for Inactive)
REMARK    1  A    between atoms: C_1  and  C_2
REMARK    2  A    between atoms: C_2  and  C_3
REMARK    3  A    between atoms: C_2  and  C_4
REMARK    4  A    between atoms: C_2  and  C_5
REMARK    5  A    between atoms: C_8  and  C_9
REMARK    6  A    between atoms: C_9  and  N_10
REMARK    7  A    between atoms: C_13  and  O_14
REMARK    8  A    between atoms: O_14  and  C_15
REMARK                            x       y       z     vdW  Elec       q    Type
REMARK                         _______ _______ _______ _____ _____    ______ ____
ROOT
ATOM      1  N   UNL     1       2.170   2.667  20.919  0.00  0.00    +0.000 NA
ATOM      2  C   UNL     1       1.063   2.849  19.976  0.00  0.00    +0.000 C 
ATOM      3  C   UNL     1       1.055   4.313  19.563  0.00  0.00    +0.000 C 
ATOM      4  C   UNL     1       1.575   5.073  20.770  0.00  0.00    +0.000 C 
ATOM      5  C   UNL     1       2.387   3.997  21.538  0.00  0.00    +0.000 C 
ENDROOT
BRANCH   1   6
ATOM      6  C   UNL     1       3.392   2.119  20.298  0.00  0.00    +0.000 C 
BRANCH   6  10
ATOM      7  C   UNL     1       5.126   4.427  16.978  0.00  0.00    +0.000 A 
ATOM      8  C   UNL     1       5.462   4.702  18.316  0.00  0.00    +0.000 A 
ATOM      9  C   UNL     1       4.889   3.982  19.386  0.00  0.00    +0.000 A 
ATOM     10  C   UNL     1       3.953   2.964  19.157  0.00  0.00    +0.000 A 
ATOM     11  C   UNL     1       3.611   2.688  17.830  0.00  0.00    +0.000 A 
ATOM     12  C   UNL     1       4.187   3.403  16.766  0.00  0.00    +0.000 A 
BRANCH   7  14
ATOM     13  C   UNL     1       5.148   6.607  15.574  0.00  0.00    +0.000 C 
ATOM     14  C   UNL     1       5.729   5.189  15.778  0.00  0.00    +0.000 C 
ATOM     15  C   UNL     1       5.475   4.401  14.472  0.00  0.00    +0.000 C 
ATOM     16  C   UNL     1       7.256   5.351  15.958  0.00  0.00    +0.000 C 
ENDBRANCH   7  14
ENDBRANCH   6  10
ENDBRANCH   1   6
BRANCH   4  17
ATOM     17  O   UNL     1       2.468   6.114  20.386  0.00  0.00    +0.000 OA
BRANCH  17  18
ATOM     18  C   UNL     1       2.057   7.298  19.818  0.00  0.00    +0.000 A 
ATOM     19  C   UNL     1       2.555   7.380  18.499  0.00  0.00    +0.000 A 
ATOM     20  C   UNL     1       2.320   8.488  17.696  0.00  0.00    +0.000 A 
ATOM     21  C   UNL     1       1.615   9.549  18.219  0.00  0.00    +0.000 A 
ATOM     22  C   UNL     1       1.139   9.504  19.535  0.00  0.00    +0.000 A 
ATOM     23  C   UNL     1       0.499  10.646  20.022  0.00  0.00    +0.000 A 
ATOM     24  C   UNL     1       0.014  10.652  21.316  0.00  0.00    +0.000 A 
ATOM     25  C   UNL     1       0.136   9.498  22.068  0.00  0.00    +0.000 A 
ATOM     26  N   UNL     1      -0.385   9.498  23.361  0.00  0.00    +0.000 N 
ATOM     27  N   UNL     1       0.780   8.390  21.636  0.00  0.00    +0.000 NA
ATOM     28  C   UNL     1       1.311   8.368  20.377  0.00  0.00    +0.000 A 
ATOM     29  H   UNL     1      -1.338   9.848  23.383  0.00  0.00    +0.000 HD
ATOM     30  H   UNL     1      -0.308   8.560  23.739  0.00  0.00    +0.000 HD
ENDBRANCH  17  18
ENDBRANCH   4  17
TORSDOF 5
ENDMDL
MODEL 3
REMARK VINA RESULT:      -8.8      0.296      1.265
REMARK  Name = 
REMARK  8 active torsions:
REMARK  status: ('A' for Active; 'I' for Inactive)
REMARK    1  A    between atoms: C_1  and  C_2
REMARK    2  A    between atoms: C_2  and  C_3
REMARK    3  A    between atoms: C_2  and  C_4
REMARK    4  A    between atoms: C_2  and  C_5
REMARK    5  A    between atoms: C_8  and  C_9
REMARK    6  A    between atoms: C_9  and  N_10
REMARK    7  A    between atoms: C_13  and  O_14
REMARK    8  A    between atoms: O_14  and  C_15
REMARK                            x       y       z     vdW  Elec       q    Type
REMARK                         _______ _______ _______ _____ _____    ______ ____
ROOT
ATOM      1  N   UNL     1       2.079   2.499  20.550  0.00  0.00    +0.000 NA
ATOM      2  C   UNL     1       1.056   2.741  19.528  0.00  0.00    +0.000 C 
ATOM      3  C   UNL     1       1.093   4.224  19.194  0.00  0.00    +0.000 C 
ATOM      4  C   UNL     1       1.512   4.915  20.479  0.00  0.00    +0.000 C 
ATOM      5  C   UNL     1       2.250   3.791  21.255  0.00  0.00    +0.000 C 
ENDROOT
BRANCH   1   6
ATOM      6  C   UNL     1       3.345   1.971  20.007  0.00  0.00    +0.000 C 
BRANCH   6  10
ATOM      7  C   UNL     1       5.345   4.862  17.361  0.00  0.00    +0.000 A 
ATOM      8  C   UNL     1       4.440   3.911  16.857  0.00  0.00    +0.000 A 
ATOM      9  C   UNL     1       3.816   2.965  17.697  0.00  0.00    +0.000 A 
ATOM     10  C   UNL     1       4.079   2.931  19.073  0.00  0.00    +0.000 A 
ATOM     11  C   UNL     1       4.981   3.870  19.582  0.00  0.00    +0.000 A 
ATOM     12  C   UNL     1       5.597   4.815  18.744  0.00  0.00    +0.000 A 
BRANCH   7  14
ATOM     13  C   UNL     1       6.830   6.986  17.275  0.00  0.00    +0.000 C 
ATOM     14  C   UNL     1       6.048   5.916  16.478  0.00  0.00    +0.000 C 
ATOM     15  C   UNL     1       5.004   6.662  15.616  0.00  0.00    +0.000 C 
ATOM     16  C   UNL     1       7.061   5.233  15.531  0.00  0.00    +0.000 C 
ENDBRANCH   7  14
ENDBRANCH   6  10
ENDBRANCH   1   6
BRANCH   4  17
ATOM     17  O   UNL     1       2.441   5.966  20.228  0.00  0.00    +0.000 OA
BRANCH  17  18
ATOM     18  C   UNL     1       2.086   7.183  19.695  0.00  0.00    +0.000 A 
ATOM     19  C   UNL     1       2.618   7.293  18.391  0.00  0.00    +0.000 A 
ATOM     20  C   UNL     1       2.442   8.437  17.623  0.00  0.00    +0.000 A 
ATOM     21  C   UNL     1       1.763   9.504  18.169  0.00  0.00    +0.000 A 
ATOM     22  C   UNL     1       1.255   9.429  19.472  0.00  0.00    +0.000 A 
ATOM     23  C   UNL     1       0.645  10.577  19.986  0.00  0.00    +0.000 A 
ATOM     24  C   UNL     1       0.130  10.554  21.267  0.00  0.00    +0.000 A 
ATOM     25  C   UNL     1       0.192   9.371  21.979  0.00  0.00    +0.000 A 
ATOM     26  N   UNL     1      -0.358   9.344  23.260  0.00  0.00    +0.000 N 
ATOM     27  N   UNL     1       0.807   8.256  21.522  0.00  0.00    +0.000 NA
ATOM     28  C   UNL     1       1.366   8.259  20.276  0.00  0.00    +0.000 A 
ATOM     29  H   UNL     1      -1.298   9.727  23.273  0.00  0.00    +0.000 HD
ATOM     30  H   UNL     1      -0.324   8.391  23.605  0.00  0.00    +0.000 HD
ENDBRANCH  17  18
ENDBRANCH   4  17
TORSDOF 5
ENDMDL
MODEL 4
REMARK VINA RESULT:      -8.5      2.253      6.388
REMARK  Name = 
REMARK  8 active torsions:
REMARK  status: ('A' for Active; 'I' for Inactive)
REMARK    1  A    between atoms: C_1  and  C_2
REMARK    2  A    between atoms: C_2  and  C_3
REMARK    3  A    between atoms: C_2  and  C_4
REMARK    4  A    between atoms: C_2  and  C_5
REMARK    5  A    between atoms: C_8  and  C_9
REMARK    6  A    between atoms: C_9  and  N_10
REMARK    7  A    between atoms: C_13  and  O_14
REMARK    8  A    between atoms: O_14  and  C_15
REMARK                            x       y       z     vdW  Elec       q    Type
REMARK                         _______ _______ _______ _____ _____    ______ ____
ROOT
ATOM      1  N   UNL     1       2.395   4.452  19.339  0.00  0.00    +0.000 NA
ATOM      2  C   UNL     1       2.612   3.250  20.149  0.00  0.00    +0.000 C 
ATOM      3  C   UNL     1       3.698   2.434  19.466  0.00  0.00    +0.000 C 
ATOM      4  C   UNL     1       3.540   2.716  17.983  0.00  0.00    +0.000 C 
ATOM      5  C   UNL     1       2.808   4.084  17.964  0.00  0.00    +0.000 C 
ENDROOT
BRANCH   1   6
ATOM      6  C   UNL     1       3.100   5.644  19.849  0.00  0.00    +0.000 C 
BRANCH   6  10
ATOM      7  C   UNL     1       0.994   9.489  19.465  0.00  0.00    +0.000 A 
ATOM      8  C   UNL     1       0.949   8.744  20.657  0.00  0.00    +0.000 A 
ATOM      9  C   UNL     1       1.601   7.498  20.777  0.00  0.00    +0.000 A 
ATOM     10  C   UNL     1       2.317   6.948  19.705  0.00  0.00    +0.000 A 
ATOM     11  C   UNL     1       2.363   7.680  18.515  0.00  0.00    +0.000 A 
ATOM     12  C   UNL     1       1.718   8.923  18.400  0.00  0.00    +0.000 A 
BRANCH   7  14
ATOM     13  C   UNL     1       1.210  11.960  18.710  0.00  0.00    +0.000 C 
ATOM     14  C   UNL     1       0.297  10.855  19.291  0.00  0.00    +0.000 C 
ATOM     15  C   UNL     1      -0.217  11.362  20.659  0.00  0.00    +0.000 C 
ATOM     16  C   UNL     1      -0.912  10.724  18.337  0.00  0.00    +0.000 C 
ENDBRANCH   7  14
ENDBRANCH   6  10
ENDBRANCH   1   6
BRANCH   4  17
ATOM     17  O   UNL     1       4.803   2.878  17.344  0.00  0.00    +0.000 OA
BRANCH  17  18
ATOM     18  C   UNL     1       5.310   4.098  16.962  0.00  0.00    +0.000 A 
ATOM     19  C   UNL     1       4.832   4.418  15.673  0.00  0.00    +0.000 A 
ATOM     20  C   UNL     1       5.209   5.584  15.020  0.00  0.00    +0.000 A 
ATOM     21  C   UNL     1       6.106   6.429  15.638  0.00  0.00    +0.000 A 
ATOM     22  C   UNL     1       6.618   6.117  16.903  0.00  0.00    +0.000 A 
ATOM     23  C   UNL     1       7.580   6.981  17.433  0.00  0.00    +0.000 A 
ATOM     24  C   UNL     1       8.118   6.713  18.677  0.00  0.00    +0.000 A 
ATOM     25  C   UNL     1       7.643   5.621  19.378  0.00  0.00    +0.000 A 
ATOM     26  N   UNL     1       8.165   5.375  20.647  0.00  0.00    +0.000 N 
ATOM     27  N   UNL     1       6.738   4.749  18.876  0.00  0.00    +0.000 NA
ATOM     28  C   UNL     1       6.220   4.959  17.630  0.00  0.00    +0.000 A 
ATOM     29  H   UNL     1       8.157   6.210  21.225  0.00  0.00    +0.000 HD
ATOM     30  H   UNL     1       7.648   4.610  21.065  0.00  0.00    +0.000 HD
ENDBRANCH  17  18
ENDBRANCH   4  17
TORSDOF 5
ENDMDL
MODEL 5
REMARK VINA RESULT:      -8.2      2.271      6.619
REMARK  Name = 
REMARK  8 active torsions:
REMARK  status: ('A' for Active; 'I' for Inactive)
REMARK    1  A    between atoms: C_1  and  C_2
REMARK    2  A    between atoms: C_2  and  C_3
REMARK    3  A    between atoms: C_2  and  C_4
REMARK    4  A    between atoms: C_2  and  C_5
REMARK    5  A    between atoms: C_8  and  C_9
REMARK    6  A    between atoms: C_9  and  N_10
REMARK    7  A    between atoms: C_13  and  O_14
REMARK    8  A    between atoms: O_14  and  C_15
REMARK                            x       y       z     vdW  Elec       q    Type
REMARK                         _______ _______ _______ _____ _____    ______ ____
ROOT
ATOM      1  N   UNL     1       2.216   5.085  19.586  0.00  0.00    +0.000 NA
ATOM      2  C   UNL     1       2.518   4.125  20.651  0.00  0.00    +0.000 C 
ATOM      3  C   UNL     1       3.530   3.135  20.096  0.00  0.00    +0.000 C 
ATOM      4  C   UNL     1       3.218   3.032  18.614  0.00  0.00    +0.000 C 
ATOM      5  C   UNL     1       2.486   4.368  18.317  0.00  0.00    +0.000 C 
ENDROOT
BRANCH   1   6
ATOM      6  C   UNL     1       2.967   6.351  19.698  0.00  0.00    +0.000 C 
BRANCH   6  10
ATOM      7  C   UNL     1       0.616  10.065  19.514  0.00  0.00    +0.000 A 
ATOM      8  C   UNL     1       0.708   9.314  20.700  0.00  0.00    +0.000 A 
ATOM      9  C   UNL     1       1.440   8.109  20.757  0.00  0.00    +0.000 A 
ATOM     10  C   UNL     1       2.101   7.606  19.628  0.00  0.00    +0.000 A 
ATOM     11  C   UNL     1       2.010   8.345  18.444  0.00  0.00    +0.000 A 
ATOM     12  C   UNL     1       1.285   9.548  18.391  0.00  0.00    +0.000 A 
BRANCH   7  14
ATOM     13  C   UNL     1      -1.495  11.274  18.615  0.00  0.00    +0.000 C 
ATOM     14  C   UNL     1      -0.172  11.389  19.407  0.00  0.00    +0.000 C 
ATOM     15  C   UNL     1       0.691  12.459  18.700  0.00  0.00    +0.000 C 
ATOM     16  C   UNL     1      -0.536  11.912  20.815  0.00  0.00    +0.000 C 
ENDBRANCH   7  14
ENDBRANCH   6  10
ENDBRANCH   1   6
BRANCH   4  17
ATOM     17  O   UNL     1       4.409   2.995  17.831  0.00  0.00    +0.000 OA
BRANCH  17  18
ATOM     18  C   UNL     1       5.036   4.119  17.348  0.00  0.00    +0.000 A 
ATOM     19  C   UNL     1       4.557   4.399  16.050  0.00  0.00    +0.000 A 
ATOM     20  C   UNL     1       5.042   5.466  15.305  0.00  0.00    +0.000 A 
ATOM     21  C   UNL     1       6.046   6.245  15.838  0.00  0.00    +0.000 A 
ATOM     22  C   UNL     1       6.558   5.967  17.110  0.00  0.00    +0.000 A 
ATOM     23  C   UNL     1       7.626   6.752  17.553  0.00  0.00    +0.000 A 
ATOM     24  C   UNL     1       8.169   6.515  18.801  0.00  0.00    +0.000 A 
ATOM     25  C   UNL     1       7.597   5.536  19.592  0.00  0.00    +0.000 A 
ATOM     26  N   UNL     1       8.127   5.323  20.863  0.00  0.00    +0.000 N 
ATOM     27  N   UNL     1       6.586   4.738  19.177  0.00  0.00    +0.000 NA
ATOM     28  C   UNL     1       6.056   4.917  17.930  0.00  0.00    +0.000 A 
ATOM     29  H   UNL     1       8.230   6.192  21.378  0.00  0.00    +0.000 HD
ATOM     30  H   UNL     1       7.541   4.653  21.349  0.00  0.00    +0.000 HD
ENDBRANCH  17  18
ENDBRANCH   4  17
TORSDOF 5
ENDMDL
MODEL 6
REMARK VINA RESULT:      -7.7      2.490      7.062
REMARK  Name = 
REMARK  8 active torsions:
REMARK  status: ('A' for Active; 'I' for Inactive)
REMARK    1  A    between atoms: C_1  and  C_2
REMARK    2  A    between atoms: C_2  and  C_3
REMARK    3  A    between atoms: C_2  and  C_4
REMARK    4  A    between atoms: C_2  and  C_5
REMARK    5  A    between atoms: C_8  and  C_9
REMARK    6  A    between atoms: C_9  and  N_10
REMARK    7  A    between atoms: C_13  and  O_14
REMARK    8  A    between atoms: O_14  and  C_15
REMARK                            x       y       z     vdW  Elec       q    Type
REMARK                         _______ _______ _______ _____ _____    ______ ____
ROOT
ATOM      1  N   UNL     1       1.573   4.853  19.053  0.00  0.00    +0.000 NA
ATOM      2  C   UNL     1       1.066   3.663  19.741  0.00  0.00    +0.000 C 
ATOM      3  C   UNL     1       2.034   2.526  19.454  0.00  0.00    +0.000 C 
ATOM      4  C   UNL     1       2.589   2.812  18.070  0.00  0.00    +0.000 C 
ATOM      5  C   UNL     1       2.380   4.342  17.919  0.00  0.00    +0.000 C 
ENDROOT
BRANCH   1   6
ATOM      6  C   UNL     1       2.332   5.766  19.929  0.00  0.00    +0.000 C 
BRANCH   6  10
ATOM      7  C   UNL     1       1.083   9.961  19.473  0.00  0.00    +0.000 A 
ATOM      8  C   UNL     1       1.691   9.257  18.417  0.00  0.00    +0.000 A 
ATOM      9  C   UNL     1       2.117   7.921  18.566  0.00  0.00    +0.000 A 
ATOM     10  C   UNL     1       1.956   7.239  19.780  0.00  0.00    +0.000 A 
ATOM     11  C   UNL     1       1.357   7.932  20.836  0.00  0.00    +0.000 A 
ATOM     12  C   UNL     1       0.928   9.262  20.684  0.00  0.00    +0.000 A 
BRANCH   7  14
ATOM     13  C   UNL     1       1.621  12.369  18.679  0.00  0.00    +0.000 C 
ATOM     14  C   UNL     1       0.601  11.422  19.353  0.00  0.00    +0.000 C 
ATOM     15  C   UNL     1       0.306  11.997  20.758  0.00  0.00    +0.000 C 
ATOM     16  C   UNL     1      -0.697  11.493  18.517  0.00  0.00    +0.000 C 
ENDBRANCH   7  14
ENDBRANCH   6  10
ENDBRANCH   1   6
BRANCH   4  17
ATOM     17  O   UNL     1       3.987   2.545  18.003  0.00  0.00    +0.000 OA
BRANCH  17  18
ATOM     18  C   UNL     1       4.942   3.526  17.872  0.00  0.00    +0.000 A 
ATOM     19  C   UNL     1       5.117   4.175  19.114  0.00  0.00    +0.000 A 
ATOM     20  C   UNL     1       6.001   5.234  19.269  0.00  0.00    +0.000 A 
ATOM     21  C   UNL     1       6.696   5.685  18.167  0.00  0.00    +0.000 A 
ATOM     22  C   UNL     1       6.515   5.077  16.919  0.00  0.00    +0.000 A 
ATOM     23  C   UNL     1       7.194   5.636  15.833  0.00  0.00    +0.000 A 
ATOM     24  C   UNL     1       7.046   5.075  14.580  0.00  0.00    +0.000 A 
ATOM     25  C   UNL     1       6.266   3.941  14.456  0.00  0.00    +0.000 A 
ATOM     26  N   UNL     1       6.146   3.358  13.195  0.00  0.00    +0.000 N 
ATOM     27  N   UNL     1       5.570   3.398  15.481  0.00  0.00    +0.000 NA
ATOM     28  C   UNL     1       5.658   3.956  16.724  0.00  0.00    +0.000 A 
ATOM     29  H   UNL     1       7.052   3.227  12.754  0.00  0.00    +0.000 HD
ATOM     30  H   UNL     1       5.632   2.490  13.288  0.00  0.00    +0.000 HD
ENDBRANCH  17  18
ENDBRANCH   4  17
TORSDOF 5
ENDMDL
MODEL 7
REMARK VINA RESULT:      -7.6      2.502      7.321
REMARK  Name = 
REMARK  8 active torsions:
REMARK  status: ('A' for Active; 'I' for Inactive)
REMARK    1  A    between atoms: C_1  and  C_2
REMARK    2  A    between atoms: C_2  and  C_3
REMARK    3  A    between atoms: C_2  and  C_4
REMARK    4  A    between atoms: C_2  and  C_5
REMARK    5  A    between atoms: C_8  and  C_9
REMARK    6  A    between atoms: C_9  and  N_10
REMARK    7  A    between atoms: C_13  and  O_14
REMARK    8  A    between atoms: O_14  and  C_15
REMARK                            x       y       z     vdW  Elec       q    Type
REMARK                         _______ _______ _______ _____ _____    ______ ____
ROOT
ATOM      1  N   UNL     1       1.900   5.353  18.829  0.00  0.00    +0.000 NA
ATOM      2  C   UNL     1       1.460   4.429  19.878  0.00  0.00    +0.000 C 
ATOM      3  C   UNL     1       2.396   3.231  19.849  0.00  0.00    +0.000 C 
ATOM      4  C   UNL     1       2.817   3.086  18.398  0.00  0.00    +0.000 C 
ATOM      5  C   UNL     1       2.596   4.511  17.826  0.00  0.00    +0.000 C 
ENDROOT
BRANCH   1   6
ATOM      6  C   UNL     1       2.739   6.460  19.328  0.00  0.00    +0.000 C 
BRANCH   6  10
ATOM      7  C   UNL     1       0.581  10.295  19.348  0.00  0.00    +0.000 A 
ATOM      8  C   UNL     1       1.258   9.840  18.201  0.00  0.00    +0.000 A 
ATOM      9  C   UNL     1       1.973   8.624  18.197  0.00  0.00    +0.000 A 
ATOM     10  C   UNL     1       2.043   7.819  19.343  0.00  0.00    +0.000 A 
ATOM     11  C   UNL     1       1.377   8.266  20.488  0.00  0.00    +0.000 A 
ATOM     12  C   UNL     1       0.661   9.476  20.488  0.00  0.00    +0.000 A 
BRANCH   7  14
ATOM     13  C   UNL     1      -1.599  11.545  18.712  0.00  0.00    +0.000 C 
ATOM     14  C   UNL     1      -0.213  11.617  19.396  0.00  0.00    +0.000 C 
ATOM     15  C   UNL     1       0.585  12.737  18.689  0.00  0.00    +0.000 C 
ATOM     16  C   UNL     1      -0.458  12.045  20.861  0.00  0.00    +0.000 C 
ENDBRANCH   7  14
ENDBRANCH   6  10
ENDBRANCH   1   6
BRANCH   4  17
ATOM     17  O   UNL     1       4.203   2.772  18.285  0.00  0.00    +0.000 OA
BRANCH  17  18
ATOM     18  C   UNL     1       5.177   3.712  18.041  0.00  0.00    +0.000 A 
ATOM     19  C   UNL     1       5.475   4.397  19.240  0.00  0.00    +0.000 A 
ATOM     20  C   UNL     1       6.405   5.428  19.283  0.00  0.00    +0.000 A 
ATOM     21  C   UNL     1       7.022   5.813  18.112  0.00  0.00    +0.000 A 
ATOM     22  C   UNL     1       6.720   5.169  16.907  0.00  0.00    +0.000 A 
ATOM     23  C   UNL     1       7.327   5.664  15.749  0.00  0.00    +0.000 A 
ATOM     24  C   UNL     1       7.058   5.064  14.534  0.00  0.00    +0.000 A 
ATOM     25  C   UNL     1       6.232   3.956  14.517  0.00  0.00    +0.000 A 
ATOM     26  N   UNL     1       5.990   3.334  13.293  0.00  0.00    +0.000 N 
ATOM     27  N   UNL     1       5.603   3.476  15.615  0.00  0.00    +0.000 NA
ATOM     28  C   UNL     1       5.812   4.075  16.824  0.00  0.00    +0.000 A 
ATOM     29  H   UNL     1       6.852   3.154  12.786  0.00  0.00    +0.000 HD
ATOM     30  H   UNL     1       5.456   2.489  13.460  0.00  0.00    +0.000 HD
ENDBRANCH  17  18
ENDBRANCH   4  17
TORSDOF 5
ENDMDL
MODEL 8
REMARK VINA RESULT:      -7.5      2.519      7.365
REMARK  Name = 
REMARK  8 active torsions:
REMARK  status: ('A' for Active; 'I' for Inactive)
REMARK    1  A    between atoms: C_1  and  C_2
REMARK    2  A    between atoms: C_2  and  C_3
REMARK    3  A    between atoms: C_2  and  C_4
REMARK    4  A    between atoms: C_2  and  C_5
REMARK    5  A    between atoms: C_8  and  C_9
REMARK    6  A    between atoms: C_9  and  N_10
REMARK    7  A    between atoms: C_13  and  O_14
REMARK    8  A    between atoms: O_14  and  C_15
REMARK                            x       y       z     vdW  Elec       q    Type
REMARK                         _______ _______ _______ _____ _____    ______ ____
ROOT
ATOM      1  N   UNL     1       2.061   5.471  18.510  0.00  0.00    +0.000 NA
ATOM      2  C   UNL     1       1.618   4.673  19.657  0.00  0.00    +0.000 C 
ATOM      3  C   UNL     1       2.592   3.515  19.806  0.00  0.00    +0.000 C 
ATOM      4  C   UNL     1       3.061   3.201  18.397  0.00  0.00    +0.000 C 
ATOM      5  C   UNL     1       2.812   4.533  17.641  0.00  0.00    +0.000 C 
ENDROOT
BRANCH   1   6
ATOM      6  C   UNL     1       2.849   6.661  18.883  0.00  0.00    +0.000 C 
BRANCH   6  10
ATOM      7  C   UNL     1       0.605  10.390  19.529  0.00  0.00    +0.000 A 
ATOM      8  C   UNL     1       0.836   9.482  20.579  0.00  0.00    +0.000 A 
ATOM      9  C   UNL     1       1.533   8.273  20.372  0.00  0.00    +0.000 A 
ATOM     10  C   UNL     1       2.018   7.923  19.104  0.00  0.00    +0.000 A 
ATOM     11  C   UNL     1       1.788   8.818  18.055  0.00  0.00    +0.000 A 
ATOM     12  C   UNL     1       1.099  10.024  18.265  0.00  0.00    +0.000 A 
BRANCH   7  14
ATOM     13  C   UNL     1       0.386  12.878  18.835  0.00  0.00    +0.000 C 
ATOM     14  C   UNL     1      -0.151  11.724  19.713  0.00  0.00    +0.000 C 
ATOM     15  C   UNL     1      -0.052  12.187  21.185  0.00  0.00    +0.000 C 
ATOM     16  C   UNL     1      -1.645  11.548  19.358  0.00  0.00    +0.000 C 
ENDBRANCH   7  14
ENDBRANCH   6  10
ENDBRANCH   1   6
BRANCH   4  17
ATOM     17  O   UNL     1       4.458   2.924  18.361  0.00  0.00    +0.000 OA
BRANCH  17  18
ATOM     18  C   UNL     1       5.410   3.860  18.028  0.00  0.00    +0.000 A 
ATOM     19  C   UNL     1       5.758   4.601  19.179  0.00  0.00    +0.000 A 
ATOM     20  C   UNL     1       6.677   5.640  19.130  0.00  0.00    +0.000 A 
ATOM     21  C   UNL     1       7.234   5.977  17.915  0.00  0.00    +0.000 A 
ATOM     22  C   UNL     1       6.881   5.276  16.756  0.00  0.00    +0.000 A 
ATOM     23  C   UNL     1       7.427   5.723  15.549  0.00  0.00    +0.000 A 
ATOM     24  C   UNL     1       7.106   5.067  14.377  0.00  0.00    +0.000 A 
ATOM     25  C   UNL     1       6.292   3.952  14.449  0.00  0.00    +0.000 A 
ATOM     26  N   UNL     1       5.998   3.274  13.267  0.00  0.00    +0.000 N 
ATOM     27  N   UNL     1       5.722   3.518  15.596  0.00  0.00    +0.000 NA
ATOM     28  C   UNL     1       5.982   4.172  16.767  0.00  0.00    +0.000 A 
ATOM     29  H   UNL     1       6.836   3.078  12.728  0.00  0.00    +0.000 HD
ATOM     30  H   UNL     1       5.482   2.433  13.498  0.00  0.00    +0.000 HD
ENDBRANCH  17  18
ENDBRANCH   4  17
TORSDOF 5
ENDMDL
MODEL 9
REMARK VINA RESULT:      -7.3      5.001      7.422
REMARK  Name = 
REMARK  8 active torsions:
REMARK  status: ('A' for Active; 'I' for Inactive)
REMARK    1  A    between atoms: C_1  and  C_2
REMARK    2  A    between atoms: C_2  and  C_3
REMARK    3  A    between atoms: C_2  and  C_4
REMARK    4  A    between atoms: C_2  and  C_5
REMARK    5  A    between atoms: C_8  and  C_9
REMARK    6  A    between atoms: C_9  and  N_10
REMARK    7  A    between atoms: C_13  and  O_14
REMARK    8  A    between atoms: O_14  and  C_15
REMARK                            x       y       z     vdW  Elec       q    Type
REMARK                         _______ _______ _______ _____ _____    ______ ____
ROOT
ATOM      1  N   UNL     1      -0.011  10.954  18.524  0.00  0.00    +0.000 NA
ATOM      2  C   UNL     1      -0.037  12.370  18.901  0.00  0.00    +0.000 C 
ATOM      3  C   UNL     1      -1.482  12.730  19.208  0.00  0.00    +0.000 C 
ATOM      4  C   UNL     1      -2.318  11.844  18.301  0.00  0.00    +0.000 C 
ATOM      5  C   UNL     1      -1.364  10.659  17.996  0.00  0.00    +0.000 C 
ENDROOT
BRANCH   1   6
ATOM      6  C   UNL     1       0.383  10.054  19.625  0.00  0.00    +0.000 C 
BRANCH   6  10
ATOM      7  C   UNL     1       3.160   6.873  18.388  0.00  0.00    +0.000 A 
ATOM      8  C   UNL     1       2.526   6.846  19.644  0.00  0.00    +0.000 A 
ATOM      9  C   UNL     1       1.655   7.876  20.056  0.00  0.00    +0.000 A 
ATOM     10  C   UNL     1       1.391   8.977  19.229  0.00  0.00    +0.000 A 
ATOM     11  C   UNL     1       2.020   9.014  17.981  0.00  0.00    +0.000 A 
ATOM     12  C   UNL     1       2.883   7.983  17.571  0.00  0.00    +0.000 A 
BRANCH   7  14
ATOM     13  C   UNL     1       5.199   5.365  18.928  0.00  0.00    +0.000 C 
ATOM     14  C   UNL     1       4.118   5.767  17.897  0.00  0.00    +0.000 C 
ATOM     15  C   UNL     1       4.858   6.237  16.623  0.00  0.00    +0.000 C 
ATOM     16  C   UNL     1       3.327   4.484  17.554  0.00  0.00    +0.000 C 
ENDBRANCH   7  14
ENDBRANCH   6  10
ENDBRANCH   1   6
BRANCH   4  17
ATOM     17  O   UNL     1      -3.461  11.332  18.981  0.00  0.00    +0.000 OA
BRANCH  17  18
ATOM     18  C   UNL     1      -4.721  11.872  18.861  0.00  0.00    +0.000 A 
ATOM     19  C   UNL     1      -5.029  12.037  17.493  0.00  0.00    +0.000 A 
ATOM     20  C   UNL     1      -6.231  12.594  17.076  0.00  0.00    +0.000 A 
ATOM     21  C   UNL     1      -7.126  13.031  18.029  0.00  0.00    +0.000 A 
ATOM     22  C   UNL     1      -6.828  12.906  19.391  0.00  0.00    +0.000 A 
ATOM     23  C   UNL     1      -7.748  13.440  20.297  0.00  0.00    +0.000 A 
ATOM     24  C   UNL     1      -7.497  13.344  21.652  0.00  0.00    +0.000 A 
ATOM     25  C   UNL     1      -6.361  12.673  22.065  0.00  0.00    +0.000 A 
ATOM     26  N   UNL     1      -6.130  12.551  23.434  0.00  0.00    +0.000 N 
ATOM     27  N   UNL     1      -5.436  12.177  21.211  0.00  0.00    +0.000 NA
ATOM     28  C   UNL     1      -5.631  12.295  19.865  0.00  0.00    +0.000 A 
ATOM     29  H   UNL     1      -6.951  12.212  23.925  0.00  0.00    +0.000 HD
ATOM     30  H   UNL     1      -5.323  11.953  23.572  0.00  0.00    +0.000 HD
ENDBRANCH  17  18
ENDBRANCH   4  17
TORSDOF 5
ENDMDL
