MODEL 1
REMARK VINA RESULT:      -7.8      0.000      0.000
REMARK  Name = 
REMARK  5 active torsions:
REMARK  status: ('A' for Active; 'I' for Inactive)
REMARK    1  A    between atoms: C_1  and  C_2
REMARK    2  A    between atoms: C_2  and  C_3
REMARK    3  A    between atoms: C_12  and  C_13
REMARK    4  A    between atoms: N_19  and  C_20
REMARK    5  A    between atoms: C_20  and  C_21
REMARK                            x       y       z     vdW  Elec       q    Type
REMARK                         _______ _______ _______ _____ _____    ______ ____
ROOT
ATOM      1  C   UNL     1       4.988   4.445  17.118  0.00  0.00    +0.000 C 
ATOM      2  N   UNL     1       5.298   3.440  17.881  0.00  0.00    +0.000 NA
ATOM      3  C   UNL     1       4.894   3.697  19.287  0.00  0.00    +0.000 C 
ATOM      4  C   UNL     1       3.372   3.595  19.353  0.00  0.00    +0.000 A 
ATOM      5  C   UNL     1       2.809   2.512  20.058  0.00  0.00    +0.000 A 
ATOM      6  C   UNL     1       1.537   2.055  19.738  0.00  0.00    +0.000 A 
ATOM      7  C   UNL     1       0.820   2.673  18.720  0.00  0.00    +0.000 A 
ATOM      8  C   UNL     1       1.310   3.841  18.117  0.00  0.00    +0.000 A 
ATOM      9  C   UNL     1       2.573   4.367  18.463  0.00  0.00    +0.000 A 
ATOM     10  C   UNL     1       3.089   5.660  17.746  0.00  0.00    +0.000 C 
ATOM     11  N   UNL     1       4.574   5.684  17.621  0.00  0.00    +0.000 N 
ENDROOT
BRANCH  10  12
ATOM     12  C   UNL     1       2.480   6.929  18.303  0.00  0.00    +0.000 A 
ATOM     13  C   UNL     1       2.202   8.046  17.504  0.00  0.00    +0.000 A 
ATOM     14  C   UNL     1       1.678   9.206  18.076  0.00  0.00    +0.000 A 
ATOM     15  C   UNL     1       1.429   9.266  19.450  0.00  0.00    +0.000 A 
ATOM     16  C   UNL     1       1.714   8.166  20.256  0.00  0.00    +0.000 A 
ATOM     17  C   UNL     1       2.231   7.009  19.687  0.00  0.00    +0.000 A 
ENDBRANCH  10  12
BRANCH   1  19
ATOM     18  C   UNL     1       6.199   4.005  14.896  0.00  0.00    +0.000 C 
ATOM     19  C   UNL     1       4.857   4.220  15.595  0.00  0.00    +0.000 C 
ENDBRANCH   1  19
BRANCH  11  20
ATOM     20  C   UNL     1       5.235   6.824  16.945  0.00  0.00    +0.000 C 
BRANCH  20  21
ATOM     21  C   UNL     1       6.530   7.441  17.455  0.00  0.00    +0.000 A 
ATOM     22  C   UNL     1       6.947   8.766  17.288  0.00  0.00    +0.000 A 
ATOM     23  C   UNL     1       8.109   9.238  17.932  0.00  0.00    +0.000 A 
ATOM     24  C   UNL     1       8.846   8.400  18.766  0.00  0.00    +0.000 A 
ATOM     25  C   UNL     1       8.438   7.090  18.974  0.00  0.00    +0.000 A 
ATOM     26  C   UNL     1       7.294   6.621  18.320  0.00  0.00    +0.000 A 
ENDBRANCH  20  21
ENDBRANCH  11  20
TORSDOF 4
ENDMDL
MODEL 2
REMARK VINA RESULT:      -7.3      0.223      1.348
REMARK  Name = 
REMARK  5 active torsions:
REMARK  status: ('A' for Active; 'I' for Inactive)
REMARK    1  A    between atoms: C_1  and  C_2
REMARK    2  A    between atoms: C_2  and  C_3
REMARK    3  A    between atoms: C_12  and  C_13
REMARK    4  A    between atoms: N_19  and  C_20
REMARK    5  A    between atoms: C_20  and  C_21
REMARK                            x       y       z     vdW  Elec       q    Type
REMARK                         _______ _______ _______ _____ _____    ______ ____
ROOT
ATOM      1  C   UNL     1       5.005   4.350  17.193  0.00  0.00    +0.000 C 
ATOM      2  N   UNL     1       5.255   3.325  17.950  0.00  0.00    +0.000 NA
ATOM      3  C   UNL     1       4.832   3.584  19.351  0.00  0.00    +0.000 C 
ATOM      4  C   UNL     1       3.306   3.548  19.384  0.00  0.00    +0.000 A 
ATOM      5  C   UNL     1       2.682   2.483  20.064  0.00  0.00    +0.000 A 
ATOM      6  C   UNL     1       1.398   2.085  19.713  0.00  0.00    +0.000 A 
ATOM      7  C   UNL     1       0.731   2.745  18.687  0.00  0.00    +0.000 A 
ATOM      8  C   UNL     1       1.284   3.897  18.108  0.00  0.00    +0.000 A 
ATOM      9  C   UNL     1       2.561   4.363  18.487  0.00  0.00    +0.000 A 
ATOM     10  C   UNL     1       3.147   5.640  17.796  0.00  0.00    +0.000 C 
ATOM     11  N   UNL     1       4.634   5.601  17.703  0.00  0.00    +0.000 N 
ENDROOT
BRANCH  10  12
ATOM     12  C   UNL     1       2.583   6.929  18.355  0.00  0.00    +0.000 A 
ATOM     13  C   UNL     1       2.235   7.077  19.705  0.00  0.00    +0.000 A 
ATOM     14  C   UNL     1       1.681   8.274  20.161  0.00  0.00    +0.000 A 
ATOM     15  C   UNL     1       1.464   9.334  19.275  0.00  0.00    +0.000 A 
ATOM     16  C   UNL     1       1.794   9.193  17.929  0.00  0.00    +0.000 A 
ATOM     17  C   UNL     1       2.350   8.004  17.475  0.00  0.00    +0.000 A 
ENDBRANCH  10  12
BRANCH   1  19
ATOM     18  C   UNL     1       6.253   4.001  14.976  0.00  0.00    +0.000 C 
ATOM     19  C   UNL     1       4.896   4.148  15.665  0.00  0.00    +0.000 C 
ENDBRANCH   1  19
BRANCH  11  20
ATOM     20  C   UNL     1       5.358   6.718  17.053  0.00  0.00    +0.000 C 
BRANCH  20  21
ATOM     21  C   UNL     1       6.549   7.410  17.702  0.00  0.00    +0.000 A 
ATOM     22  C   UNL     1       7.546   6.809  18.478  0.00  0.00    +0.000 A 
ATOM     23  C   UNL     1       8.668   7.548  18.903  0.00  0.00    +0.000 A 
ATOM     24  C   UNL     1       8.815   8.884  18.536  0.00  0.00    +0.000 A 
ATOM     25  C   UNL     1       7.858   9.498  17.741  0.00  0.00    +0.000 A 
ATOM     26  C   UNL     1       6.738   8.765  17.336  0.00  0.00    +0.000 A 
ENDBRANCH  20  21
ENDBRANCH  11  20
TORSDOF 4
ENDMDL
MODEL 3
REMARK VINA RESULT:      -7.2      5.197      9.449
REMARK  Name = 
REMARK  5 active torsions:
REMARK  status: ('A' for Active; 'I' for Inactive)
REMARK    1  A    between atoms: C_1  and  C_2
REMARK    2  A    between atoms: C_2  and  C_3
REMARK    3  A    between atoms: C_12  and  C_13
REMARK    4  A    between atoms: N_19  and  C_20
REMARK    5  A    between atoms: C_20  and  C_21
REMARK                            x       y       z     vdW  Elec       q    Type
REMARK                         _______ _______ _______ _____ _____    ______ ____
ROOT
ATOM      1  C   UNL     1       0.221  12.025  20.889  0.00  0.00    +0.000 C 
ATOM      2  N   UNL     1       0.773  11.150  21.674  0.00  0.00    +0.000 NA
ATOM      3  C   UNL     1       0.149   9.813  21.501  0.00  0.00    +0.000 C 
ATOM      4  C   UNL     1       0.611   9.262  20.154  0.00  0.00    +0.000 A 
ATOM      5  C   UNL     1       1.480   8.152  20.154  0.00  0.00    +0.000 A 
ATOM      6  C   UNL     1       2.334   7.932  19.081  0.00  0.00    +0.000 A 
ATOM      7  C   UNL     1       2.325   8.811  18.004  0.00  0.00    +0.000 A 
ATOM      8  C   UNL     1       1.362   9.829  17.929  0.00  0.00    +0.000 A 
ATOM      9  C   UNL     1       0.440  10.040  18.976  0.00  0.00    +0.000 A 
ATOM     10  C   UNL     1      -0.602  11.204  18.857  0.00  0.00    +0.000 C 
ATOM     11  N   UNL     1      -0.964  11.777  20.184  0.00  0.00    +0.000 N 
ENDROOT
BRANCH  10  12
ATOM     12  C   UNL     1      -1.782  10.855  17.976  0.00  0.00    +0.000 A 
ATOM     13  C   UNL     1      -2.645   9.788  18.258  0.00  0.00    +0.000 A 
ATOM     14  C   UNL     1      -3.695   9.485  17.390  0.00  0.00    +0.000 A 
ATOM     15  C   UNL     1      -3.893  10.239  16.231  0.00  0.00    +0.000 A 
ATOM     16  C   UNL     1      -3.034  11.295  15.934  0.00  0.00    +0.000 A 
ATOM     17  C   UNL     1      -1.992  11.601  16.799  0.00  0.00    +0.000 A 
ENDBRANCH  10  12
BRANCH   1  19
ATOM     18  C   UNL     1       2.385  13.047  19.956  0.00  0.00    +0.000 C 
ATOM     19  C   UNL     1       0.997  13.314  20.536  0.00  0.00    +0.000 C 
ENDBRANCH   1  19
BRANCH  11  20
ATOM     20  C   UNL     1      -1.919  12.906  20.261  0.00  0.00    +0.000 C 
BRANCH  20  21
ATOM     21  C   UNL     1      -3.325  12.754  20.826  0.00  0.00    +0.000 A 
ATOM     22  C   UNL     1      -3.708  12.890  22.164  0.00  0.00    +0.000 A 
ATOM     23  C   UNL     1      -5.069  12.857  22.527  0.00  0.00    +0.000 A 
ATOM     24  C   UNL     1      -6.058  12.715  21.556  0.00  0.00    +0.000 A 
ATOM     25  C   UNL     1      -5.708  12.609  20.217  0.00  0.00    +0.000 A 
ATOM     26  C   UNL     1      -4.355  12.625  19.863  0.00  0.00    +0.000 A 
ENDBRANCH  20  21
ENDBRANCH  11  20
TORSDOF 4
ENDMDL
MODEL 4
REMARK VINA RESULT:      -6.9      5.292      9.466
REMARK  Name = 
REMARK  5 active torsions:
REMARK  status: ('A' for Active; 'I' for Inactive)
REMARK    1  A    between atoms: C_1  and  C_2
REMARK    2  A    between atoms: C_2  and  C_3
REMARK    3  A    between atoms: C_12  and  C_13
REMARK    4  A    between atoms: N_19  and  C_20
REMARK    5  A    between atoms: C_20  and  C_21
REMARK                            x       y       z     vdW  Elec       q    Type
REMARK                         _______ _______ _______ _____ _____    ______ ____
ROOT
ATOM      1  C   UNL     1       0.165  11.824  21.283  0.00  0.00    +0.000 C 
ATOM      2  N   UNL     1       0.765  10.880  21.943  0.00  0.00    +0.000 NA
ATOM      3  C   UNL     1       0.165   9.556  21.638  0.00  0.00    +0.000 C 
ATOM      4  C   UNL     1       0.589   9.174  20.222  0.00  0.00    +0.000 A 
ATOM      5  C   UNL     1       1.482   8.095  20.065  0.00  0.00    +0.000 A 
ATOM      6  C   UNL     1       2.300   8.022  18.944  0.00  0.00    +0.000 A 
ATOM      7  C   UNL     1       2.232   9.018  17.977  0.00  0.00    +0.000 A 
ATOM      8  C   UNL     1       1.245  10.011  18.052  0.00  0.00    +0.000 A 
ATOM      9  C   UNL     1       0.357  10.078  19.148  0.00  0.00    +0.000 A 
ATOM     10  C   UNL     1      -0.714  11.219  19.200  0.00  0.00    +0.000 C 
ATOM     11  N   UNL     1      -1.039  11.627  20.596  0.00  0.00    +0.000 N 
ENDROOT
BRANCH  10  12
ATOM     12  C   UNL     1      -1.918  10.943  18.325  0.00  0.00    +0.000 A 
ATOM     13  C   UNL     1      -1.925   9.939  17.347  0.00  0.00    +0.000 A 
ATOM     14  C   UNL     1      -3.048   9.752  16.540  0.00  0.00    +0.000 A 
ATOM     15  C   UNL     1      -4.174  10.567  16.697  0.00  0.00    +0.000 A 
ATOM     16  C   UNL     1      -4.173  11.576  17.657  0.00  0.00    +0.000 A 
ATOM     17  C   UNL     1      -3.057  11.759  18.465  0.00  0.00    +0.000 A 
ENDBRANCH  10  12
BRANCH   1  19
ATOM     18  C   UNL     1       2.201  13.018  20.269  0.00  0.00    +0.000 C 
ATOM     19  C   UNL     1       0.898  13.165  21.055  0.00  0.00    +0.000 C 
ENDBRANCH   1  19
BRANCH  11  20
ATOM     20  C   UNL     1      -2.016  12.714  20.834  0.00  0.00    +0.000 C 
BRANCH  20  21
ATOM     21  C   UNL     1      -3.055  12.654  21.946  0.00  0.00    +0.000 A 
ATOM     22  C   UNL     1      -2.839  12.267  23.272  0.00  0.00    +0.000 A 
ATOM     23  C   UNL     1      -3.865  12.390  24.231  0.00  0.00    +0.000 A 
ATOM     24  C   UNL     1      -5.104  12.922  23.878  0.00  0.00    +0.000 A 
ATOM     25  C   UNL     1      -5.335  13.342  22.576  0.00  0.00    +0.000 A 
ATOM     26  C   UNL     1      -4.320  13.203  21.625  0.00  0.00    +0.000 A 
ENDBRANCH  20  21
ENDBRANCH  11  20
TORSDOF 4
ENDMDL
MODEL 5
REMARK VINA RESULT:      -6.9      8.807     11.301
REMARK  Name = 
REMARK  5 active torsions:
REMARK  status: ('A' for Active; 'I' for Inactive)
REMARK    1  A    between atoms: C_1  and  C_2
REMARK    2  A    between atoms: C_2  and  C_3
REMARK    3  A    between atoms: C_12  and  C_13
REMARK    4  A    between atoms: N_19  and  C_20
REMARK    5  A    between atoms: C_20  and  C_21
REMARK                            x       y       z     vdW  Elec       q    Type
REMARK                         _______ _______ _______ _____ _____    ______ ____
ROOT
ATOM      1  C   UNL     1       9.239  15.888  22.719  0.00  0.00    +0.000 C 
ATOM      2  N   UNL     1       7.991  16.118  22.993  0.00  0.00    +0.000 NA
ATOM      3  C   UNL     1       7.100  15.434  22.020  0.00  0.00    +0.000 C 
ATOM      4  C   UNL     1       7.147  13.939  22.327  0.00  0.00    +0.000 A 
ATOM      5  C   UNL     1       5.988  13.332  22.849  0.00  0.00    +0.000 A 
ATOM      6  C   UNL     1       6.088  12.181  23.621  0.00  0.00    +0.000 A 
ATOM      7  C   UNL     1       7.339  11.630  23.874  0.00  0.00    +0.000 A 
ATOM      8  C   UNL     1       8.480  12.141  23.237  0.00  0.00    +0.000 A 
ATOM      9  C   UNL     1       8.402  13.272  22.397  0.00  0.00    +0.000 A 
ATOM     10  C   UNL     1       9.707  13.821  21.727  0.00  0.00    +0.000 C 
ATOM     11  N   UNL     1       9.661  15.296  21.522  0.00  0.00    +0.000 N 
ENDROOT
BRANCH  10  12
ATOM     12  C   UNL     1      10.126  13.026  20.508  0.00  0.00    +0.000 A 
ATOM     13  C   UNL     1      11.363  12.374  20.422  0.00  0.00    +0.000 A 
ATOM     14  C   UNL     1      11.717  11.688  19.259  0.00  0.00    +0.000 A 
ATOM     15  C   UNL     1      10.842  11.649  18.169  0.00  0.00    +0.000 A 
ATOM     16  C   UNL     1       9.615  12.304  18.239  0.00  0.00    +0.000 A 
ATOM     17  C   UNL     1       9.260  12.983  19.398  0.00  0.00    +0.000 A 
ENDBRANCH  10  12
BRANCH   1  19
ATOM     18  C   UNL     1       9.749  15.824  25.236  0.00  0.00    +0.000 C 
ATOM     19  C   UNL     1      10.298  16.068  23.831  0.00  0.00    +0.000 C 
ENDBRANCH   1  19
BRANCH  11  20
ATOM     20  C   UNL     1      10.823  15.990  20.922  0.00  0.00    +0.000 C 
BRANCH  20  21
ATOM     21  C   UNL     1      11.064  16.038  19.419  0.00  0.00    +0.000 A 
ATOM     22  C   UNL     1      12.187  15.562  18.736  0.00  0.00    +0.000 A 
ATOM     23  C   UNL     1      12.217  15.547  17.327  0.00  0.00    +0.000 A 
ATOM     24  C   UNL     1      11.117  15.985  16.591  0.00  0.00    +0.000 A 
ATOM     25  C   UNL     1       9.978  16.434  17.243  0.00  0.00    +0.000 A 
ATOM     26  C   UNL     1       9.959  16.462  18.641  0.00  0.00    +0.000 A 
ENDBRANCH  20  21
ENDBRANCH  11  20
TORSDOF 4
ENDMDL
MODEL 6
REMARK VINA RESULT:      -6.9      5.504      9.716
REMARK  Name = 
REMARK  5 active torsions:
REMARK  status: ('A' for Active; 'I' for Inactive)
REMARK    1  A    between atoms: C_1  and  C_2
REMARK    2  A    between atoms: C_2  and  C_3
REMARK    3  A    between atoms: C_12  and  C_13
REMARK    4  A    between atoms: N_19  and  C_20
REMARK    5  A    between atoms: C_20  and  C_21
REMARK                            x       y       z     vdW  Elec       q    Type
REMARK                         _______ _______ _______ _____ _____    ______ ____
ROOT
ATOM      1  C   UNL     1      -0.089  11.894  21.531  0.00  0.00    +0.000 C 
ATOM      2  N   UNL     1       0.511  10.927  22.157  0.00  0.00    +0.000 NA
ATOM      3  C   UNL     1      -0.073   9.612  21.788  0.00  0.00    +0.000 C 
ATOM      4  C   UNL     1       0.373   9.296  20.363  0.00  0.00    +0.000 A 
ATOM      5  C   UNL     1       1.278   8.232  20.171  0.00  0.00    +0.000 A 
ATOM      6  C   UNL     1       2.112   8.214  19.060  0.00  0.00    +0.000 A 
ATOM      7  C   UNL     1       2.047   9.251  18.135  0.00  0.00    +0.000 A 
ATOM      8  C   UNL     1       1.050  10.232  18.240  0.00  0.00    +0.000 A 
ATOM      9  C   UNL     1       0.147  10.243  19.325  0.00  0.00    +0.000 A 
ATOM     10  C   UNL     1      -0.935  11.372  19.412  0.00  0.00    +0.000 C 
ATOM     11  N   UNL     1      -1.283  11.716  20.819  0.00  0.00    +0.000 N 
ENDROOT
BRANCH  10  12
ATOM     12  C   UNL     1      -2.125  11.123  18.509  0.00  0.00    +0.000 A 
ATOM     13  C   UNL     1      -3.284  11.908  18.557  0.00  0.00    +0.000 A 
ATOM     14  C   UNL     1      -4.369  11.611  17.730  0.00  0.00    +0.000 A 
ATOM     15  C   UNL     1      -4.310  10.526  16.851  0.00  0.00    +0.000 A 
ATOM     16  C   UNL     1      -3.167   9.731  16.804  0.00  0.00    +0.000 A 
ATOM     17  C   UNL     1      -2.085  10.029  17.623  0.00  0.00    +0.000 A 
ENDBRANCH  10  12
BRANCH   1  19
ATOM     18  C   UNL     1       1.981  13.138  20.656  0.00  0.00    +0.000 C 
ATOM     19  C   UNL     1       0.634  13.250  21.371  0.00  0.00    +0.000 C 
ENDBRANCH   1  19
BRANCH  11  20
ATOM     20  C   UNL     1      -2.272  12.784  21.091  0.00  0.00    +0.000 C 
BRANCH  20  21
ATOM     21  C   UNL     1      -3.320  12.670  22.190  0.00  0.00    +0.000 A 
ATOM     22  C   UNL     1      -3.083  12.472  23.554  0.00  0.00    +0.000 A 
ATOM     23  C   UNL     1      -4.144  12.523  24.481  0.00  0.00    +0.000 A 
ATOM     24  C   UNL     1      -5.443  12.797  24.056  0.00  0.00    +0.000 A 
ATOM     25  C   UNL     1      -5.701  13.028  22.713  0.00  0.00    +0.000 A 
ATOM     26  C   UNL     1      -4.649  12.960  21.794  0.00  0.00    +0.000 A 
ENDBRANCH  20  21
ENDBRANCH  11  20
TORSDOF 4
ENDMDL
MODEL 7
REMARK VINA RESULT:      -6.9      1.433      6.793
REMARK  Name = 
REMARK  5 active torsions:
REMARK  status: ('A' for Active; 'I' for Inactive)
REMARK    1  A    between atoms: C_1  and  C_2
REMARK    2  A    between atoms: C_2  and  C_3
REMARK    3  A    between atoms: C_12  and  C_13
REMARK    4  A    between atoms: N_19  and  C_20
REMARK    5  A    between atoms: C_20  and  C_21
REMARK                            x       y       z     vdW  Elec       q    Type
REMARK                         _______ _______ _______ _____ _____    ______ ____
ROOT
ATOM      1  C   UNL     1       4.332   5.485  18.544  0.00  0.00    +0.000 C 
ATOM      2  N   UNL     1       5.073   5.526  19.610  0.00  0.00    +0.000 NA
ATOM      3  C   UNL     1       6.436   5.006  19.330  0.00  0.00    +0.000 C 
ATOM      4  C   UNL     1       7.162   6.049  18.485  0.00  0.00    +0.000 A 
ATOM      5  C   UNL     1       8.239   6.745  19.070  0.00  0.00    +0.000 A 
ATOM      6  C   UNL     1       8.589   8.008  18.610  0.00  0.00    +0.000 A 
ATOM      7  C   UNL     1       7.872   8.582  17.567  0.00  0.00    +0.000 A 
ATOM      8  C   UNL     1       6.899   7.839  16.882  0.00  0.00    +0.000 A 
ATOM      9  C   UNL     1       6.563   6.529  17.286  0.00  0.00    +0.000 A 
ATOM     10  C   UNL     1       5.454   5.746  16.506  0.00  0.00    +0.000 C 
ATOM     11  N   UNL     1       4.707   4.799  17.382  0.00  0.00    +0.000 N 
ENDROOT
BRANCH  10  12
ATOM     12  C   UNL     1       5.953   5.147  15.208  0.00  0.00    +0.000 A 
ATOM     13  C   UNL     1       7.249   5.367  14.725  0.00  0.00    +0.000 A 
ATOM     14  C   UNL     1       7.646   4.824  13.502  0.00  0.00    +0.000 A 
ATOM     15  C   UNL     1       6.753   4.060  12.747  0.00  0.00    +0.000 A 
ATOM     16  C   UNL     1       5.457   3.844  13.211  0.00  0.00    +0.000 A 
ATOM     17  C   UNL     1       5.063   4.380  14.431  0.00  0.00    +0.000 A 
ENDBRANCH  10  12
BRANCH   1  19
ATOM     18  C   UNL     1       2.371   6.574  19.795  0.00  0.00    +0.000 C 
ATOM     19  C   UNL     1       3.088   6.397  18.457  0.00  0.00    +0.000 C 
ENDBRANCH   1  19
BRANCH  11  20
ATOM     20  C   UNL     1       3.602   3.991  16.816  0.00  0.00    +0.000 C 
BRANCH  20  21
ATOM     21  C   UNL     1       2.686   3.135  17.680  0.00  0.00    +0.000 A 
ATOM     22  C   UNL     1       3.059   2.037  18.461  0.00  0.00    +0.000 A 
ATOM     23  C   UNL     1       2.129   1.419  19.320  0.00  0.00    +0.000 A 
ATOM     24  C   UNL     1       0.828   1.907  19.424  0.00  0.00    +0.000 A 
ATOM     25  C   UNL     1       0.439   3.014  18.684  0.00  0.00    +0.000 A 
ATOM     26  C   UNL     1       1.361   3.614  17.820  0.00  0.00    +0.000 A 
ENDBRANCH  20  21
ENDBRANCH  11  20
TORSDOF 4
ENDMDL
MODEL 8
REMARK VINA RESULT:      -6.9      0.800      1.249
REMARK  Name = 
REMARK  5 active torsions:
REMARK  status: ('A' for Active; 'I' for Inactive)
REMARK    1  A    between atoms: C_1  and  C_2
REMARK    2  A    between atoms: C_2  and  C_3
REMARK    3  A    between atoms: C_12  and  C_13
REMARK    4  A    between atoms: N_19  and  C_20
REMARK    5  A    between atoms: C_20  and  C_21
REMARK                            x       y       z     vdW  Elec       q    Type
REMARK                         _______ _______ _______ _____ _____    ______ ____
ROOT
ATOM      1  C   UNL     1       5.645   5.067  16.722  0.00  0.00    +0.000 C 
ATOM      2  N   UNL     1       6.094   4.012  17.331  0.00  0.00    +0.000 NA
ATOM      3  C   UNL     1       5.690   4.011  18.760  0.00  0.00    +0.000 C 
ATOM      4  C   UNL     1       4.195   3.709  18.814  0.00  0.00    +0.000 A 
ATOM      5  C   UNL     1       3.787   2.474  19.357  0.00  0.00    +0.000 A 
ATOM      6  C   UNL     1       2.575   1.909  18.977  0.00  0.00    +0.000 A 
ATOM      7  C   UNL     1       1.766   2.570  18.060  0.00  0.00    +0.000 A 
ATOM      8  C   UNL     1       2.094   3.864  17.631  0.00  0.00    +0.000 A 
ATOM      9  C   UNL     1       3.287   4.492  18.047  0.00  0.00    +0.000 A 
ATOM     10  C   UNL     1       3.622   5.929  17.523  0.00  0.00    +0.000 C 
ATOM     11  N   UNL     1       5.089   6.160  17.400  0.00  0.00    +0.000 N 
ENDROOT
BRANCH  10  12
ATOM     12  C   UNL     1       2.871   7.018  18.258  0.00  0.00    +0.000 A 
ATOM     13  C   UNL     1       2.499   6.901  19.605  0.00  0.00    +0.000 A 
ATOM     14  C   UNL     1       1.772   7.918  20.224  0.00  0.00    +0.000 A 
ATOM     15  C   UNL     1       1.404   9.061  19.507  0.00  0.00    +0.000 A 
ATOM     16  C   UNL     1       1.757   9.182  18.165  0.00  0.00    +0.000 A 
ATOM     17  C   UNL     1       2.486   8.172  17.549  0.00  0.00    +0.000 A 
ENDBRANCH  10  12
BRANCH   1  19
ATOM     18  C   UNL     1       6.076   3.780  14.542  0.00  0.00    +0.000 C 
ATOM     19  C   UNL     1       5.512   5.048  15.182  0.00  0.00    +0.000 C 
ENDBRANCH   1  19
BRANCH  11  20
ATOM     20  C   UNL     1       5.588   7.459  16.893  0.00  0.00    +0.000 C 
BRANCH  20  21
ATOM     21  C   UNL     1       6.833   8.133  17.453  0.00  0.00    +0.000 A 
ATOM     22  C   UNL     1       7.169   9.487  17.350  0.00  0.00    +0.000 A 
ATOM     23  C   UNL     1       8.287  10.003  18.034  0.00  0.00    +0.000 A 
ATOM     24  C   UNL     1       9.063   9.178  18.846  0.00  0.00    +0.000 A 
ATOM     25  C   UNL     1       8.735   7.837  18.991  0.00  0.00    +0.000 A 
ATOM     26  C   UNL     1       7.635   7.326  18.296  0.00  0.00    +0.000 A 
ENDBRANCH  20  21
ENDBRANCH  11  20
TORSDOF 4
ENDMDL
MODEL 9
REMARK VINA RESULT:      -6.8      5.061      9.142
REMARK  Name = 
REMARK  5 active torsions:
REMARK  status: ('A' for Active; 'I' for Inactive)
REMARK    1  A    between atoms: C_1  and  C_2
REMARK    2  A    between atoms: C_2  and  C_3
REMARK    3  A    between atoms: C_12  and  C_13
REMARK    4  A    between atoms: N_19  and  C_20
REMARK    5  A    between atoms: C_20  and  C_21
REMARK                            x       y       z     vdW  Elec       q    Type
REMARK                         _______ _______ _______ _____ _____    ______ ____
ROOT
ATOM      1  C   UNL     1       0.623  11.979  20.804  0.00  0.00    +0.000 C 
ATOM      2  N   UNL     1       1.154  11.104  21.602  0.00  0.00    +0.000 NA
ATOM      3  C   UNL     1       0.440   9.804  21.515  0.00  0.00    +0.000 C 
ATOM      4  C   UNL     1       0.805   9.169  20.175  0.00  0.00    +0.000 A 
ATOM      5  C   UNL     1       1.601   8.006  20.187  0.00  0.00    +0.000 A 
ATOM      6  C   UNL     1       2.390   7.687  19.089  0.00  0.00    +0.000 A 
ATOM      7  C   UNL     1       2.387   8.520  17.976  0.00  0.00    +0.000 A 
ATOM      8  C   UNL     1       1.488   9.594  17.897  0.00  0.00    +0.000 A 
ATOM      9  C   UNL     1       0.629   9.907  18.972  0.00  0.00    +0.000 A 
ATOM     10  C   UNL     1      -0.342  11.130  18.847  0.00  0.00    +0.000 C 
ATOM     11  N   UNL     1      -0.606  11.779  20.162  0.00  0.00    +0.000 N 
ENDROOT
BRANCH  10  12
ATOM     12  C   UNL     1      -1.580  10.823  18.033  0.00  0.00    +0.000 A 
ATOM     13  C   UNL     1      -2.479   9.806  18.382  0.00  0.00    +0.000 A 
ATOM     14  C   UNL     1      -3.585   9.537  17.574  0.00  0.00    +0.000 A 
ATOM     15  C   UNL     1      -3.804  10.277  16.409  0.00  0.00    +0.000 A 
ATOM     16  C   UNL     1      -2.911  11.282  16.046  0.00  0.00    +0.000 A 
ATOM     17  C   UNL     1      -1.812  11.553  16.852  0.00  0.00    +0.000 A 
ENDBRANCH  10  12
BRANCH   1  19
ATOM     18  C   UNL     1       1.625  14.251  21.459  0.00  0.00    +0.000 C 
ATOM     19  C   UNL     1       1.461  13.200  20.362  0.00  0.00    +0.000 C 
ENDBRANCH   1  19
BRANCH  11  20
ATOM     20  C   UNL     1      -1.484  12.970  20.229  0.00  0.00    +0.000 C 
BRANCH  20  21
ATOM     21  C   UNL     1      -2.213  13.381  21.502  0.00  0.00    +0.000 A 
ATOM     22  C   UNL     1      -2.754  14.639  21.787  0.00  0.00    +0.000 A 
ATOM     23  C   UNL     1      -3.524  14.841  22.950  0.00  0.00    +0.000 A 
ATOM     24  C   UNL     1      -3.780  13.785  23.822  0.00  0.00    +0.000 A 
ATOM     25  C   UNL     1      -3.281  12.520  23.548  0.00  0.00    +0.000 A 
ATOM     26  C   UNL     1      -2.504  12.327  22.402  0.00  0.00    +0.000 A 
ENDBRANCH  20  21
ENDBRANCH  11  20
TORSDOF 4
ENDMDL
