MODEL 1
REMARK VINA RESULT:      -8.1      0.000      0.000
REMARK  Name = 
REMARK  10 active torsions:
REMARK  status: ('A' for Active; 'I' for Inactive)
REMARK    1  A    between atoms: C_2  and  C_3
REMARK    2  A    between atoms: C_3  and  N_4
REMARK    3  A    between atoms: N_4  and  C_5
REMARK    4  A    between atoms: N_4  and  C_20
REMARK    5  A    between atoms: C_5  and  C_6
REMARK    6  A    between atoms: C_6  and  C_7
REMARK    7  A    between atoms: N_10  and  C_11
REMARK    8  A    between atoms: C_11  and  C_12
REMARK    9  A    between atoms: C_20  and  C_21
REMARK   10  A    between atoms: C_24  and  O_25
REMARK                            x       y       z     vdW  Elec       q    Type
REMARK                         _______ _______ _______ _____ _____    ______ ____
ROOT
ATOM      1  N   UNL     1       2.653   3.434  18.368  0.00  0.00    +0.000 NA
ENDROOT
BRANCH   1   2
ATOM      2  C   UNL     1       2.214   2.186  19.020  0.00  0.00    +0.000 C 
BRANCH   2   4
ATOM      3  C   UNL     1       1.510   2.667  21.712  0.00  0.00    +0.000 C 
ATOM      4  C   UNL     1       1.835   2.445  20.468  0.00  0.00    +0.000 C 
ENDBRANCH   2   4
ENDBRANCH   1   2
BRANCH   1   5
ATOM      5  C   UNL     1       1.767   4.600  18.679  0.00  0.00    +0.000 C 
BRANCH   5   6
ATOM      6  C   UNL     1       2.057   5.859  17.846  0.00  0.00    +0.000 C 
BRANCH   6   7
ATOM      7  C   UNL     1       3.022   6.917  18.429  0.00  0.00    +0.000 C 
ATOM      8  C   UNL     1       2.634   7.174  19.897  0.00  0.00    +0.000 C 
ATOM      9  C   UNL     1       1.298   7.923  20.020  0.00  0.00    +0.000 C 
ATOM     10  N   UNL     1       1.299   9.195  19.283  0.00  0.00    +0.000 NA
ATOM     11  C   UNL     1       1.712   9.027  17.875  0.00  0.00    +0.000 C 
ATOM     12  C   UNL     1       3.035   8.276  17.720  0.00  0.00    +0.000 C 
BRANCH  10  13
ATOM     13  C   UNL     1      -0.039   9.833  19.308  0.00  0.00    +0.000 C 
BRANCH  13  14
ATOM     14  C   UNL     1      -0.466  10.372  20.655  0.00  0.00    +0.000 A 
ATOM     15  C   UNL     1      -1.181  11.572  20.760  0.00  0.00    +0.000 A 
ATOM     16  C   UNL     1      -1.607  12.045  21.997  0.00  0.00    +0.000 A 
ATOM     17  C   UNL     1      -1.331  11.319  23.158  0.00  0.00    +0.000 A 
ATOM     18  C   UNL     1      -0.619  10.120  23.072  0.00  0.00    +0.000 A 
ATOM     19  C   UNL     1      -0.190   9.652  21.827  0.00  0.00    +0.000 A 
ENDBRANCH  13  14
ENDBRANCH  10  13
ENDBRANCH   6   7
ENDBRANCH   5   6
ENDBRANCH   1   5
BRANCH   1  20
ATOM     20  C   UNL     1       4.050   3.746  18.724  0.00  0.00    +0.000 C 
BRANCH  20  21
ATOM     21  C   UNL     1       5.019   4.053  17.589  0.00  0.00    +0.000 A 
ATOM     22  C   UNL     1       4.694   3.625  16.294  0.00  0.00    +0.000 A 
ATOM     23  C   UNL     1       5.391   4.116  15.193  0.00  0.00    +0.000 A 
ATOM     24  C   UNL     1       6.364   5.094  15.381  0.00  0.00    +0.000 A 
ATOM     25  C   UNL     1       6.720   5.566  16.650  0.00  0.00    +0.000 A 
ATOM     26  N   UNL     1       7.611   6.579  16.779  0.00  0.00    +0.000 NA
ATOM     27  C   UNL     1       7.976   6.982  18.009  0.00  0.00    +0.000 A 
ATOM     28  C   UNL     1       7.562   6.356  19.161  0.00  0.00    +0.000 A 
ATOM     29  C   UNL     1       6.627   5.336  19.036  0.00  0.00    +0.000 A 
ATOM     30  C   UNL     1       6.109   4.962  17.774  0.00  0.00    +0.000 A 
BRANCH  24  31
ATOM     31  O   UNL     1       6.998   5.620  14.277  0.00  0.00    +0.000 OA
ATOM     32  H   UNL     1       6.513   6.396  13.963  0.00  0.00    +0.000 HD
ENDBRANCH  24  31
ENDBRANCH  20  21
ENDBRANCH   1  20
TORSDOF 10
ENDMDL
MODEL 2
REMARK VINA RESULT:      -7.9      0.639      1.058
REMARK  Name = 
REMARK  10 active torsions:
REMARK  status: ('A' for Active; 'I' for Inactive)
REMARK    1  A    between atoms: C_2  and  C_3
REMARK    2  A    between atoms: C_3  and  N_4
REMARK    3  A    between atoms: N_4  and  C_5
REMARK    4  A    between atoms: N_4  and  C_20
REMARK    5  A    between atoms: C_5  and  C_6
REMARK    6  A    between atoms: C_6  and  C_7
REMARK    7  A    between atoms: N_10  and  C_11
REMARK    8  A    between atoms: C_11  and  C_12
REMARK    9  A    between atoms: C_20  and  C_21
REMARK   10  A    between atoms: C_24  and  O_25
REMARK                            x       y       z     vdW  Elec       q    Type
REMARK                         _______ _______ _______ _____ _____    ______ ____
ROOT
ATOM      1  N   UNL     1       2.639   3.419  18.361  0.00  0.00    +0.000 NA
ENDROOT
BRANCH   1   2
ATOM      2  C   UNL     1       2.238   2.147  18.991  0.00  0.00    +0.000 C 
BRANCH   2   4
ATOM      3  C   UNL     1       1.542   2.557  21.697  0.00  0.00    +0.000 C 
ATOM      4  C   UNL     1       1.863   2.368  20.447  0.00  0.00    +0.000 C 
ENDBRANCH   2   4
ENDBRANCH   1   2
BRANCH   1   5
ATOM      5  C   UNL     1       1.717   4.552  18.690  0.00  0.00    +0.000 C 
BRANCH   5   6
ATOM      6  C   UNL     1       1.967   5.832  17.876  0.00  0.00    +0.000 C 
BRANCH   6   7
ATOM      7  C   UNL     1       2.960   6.875  18.438  0.00  0.00    +0.000 C 
ATOM      8  C   UNL     1       2.563   7.191  19.892  0.00  0.00    +0.000 C 
ATOM      9  C   UNL     1       1.252   7.987  19.975  0.00  0.00    +0.000 C 
ATOM     10  N   UNL     1       1.303   9.234  19.199  0.00  0.00    +0.000 NA
ATOM     11  C   UNL     1       1.727   9.008  17.803  0.00  0.00    +0.000 C 
ATOM     12  C   UNL     1       3.026   8.210  17.687  0.00  0.00    +0.000 C 
BRANCH  10  13
ATOM     13  C   UNL     1      -0.012   9.916  19.188  0.00  0.00    +0.000 C 
BRANCH  13  14
ATOM     14  C   UNL     1      -0.181  11.002  20.227  0.00  0.00    +0.000 A 
ATOM     15  C   UNL     1      -0.616  10.700  21.524  0.00  0.00    +0.000 A 
ATOM     16  C   UNL     1      -0.731  11.695  22.489  0.00  0.00    +0.000 A 
ATOM     17  C   UNL     1      -0.404  13.017  22.177  0.00  0.00    +0.000 A 
ATOM     18  C   UNL     1       0.031  13.335  20.888  0.00  0.00    +0.000 A 
ATOM     19  C   UNL     1       0.141  12.332  19.921  0.00  0.00    +0.000 A 
ENDBRANCH  13  14
ENDBRANCH  10  13
ENDBRANCH   6   7
ENDBRANCH   5   6
ENDBRANCH   1   5
BRANCH   1  20
ATOM     20  C   UNL     1       4.025   3.768  18.725  0.00  0.00    +0.000 C 
BRANCH  20  21
ATOM     21  C   UNL     1       5.003   4.061  17.594  0.00  0.00    +0.000 A 
ATOM     22  C   UNL     1       4.680   3.629  16.299  0.00  0.00    +0.000 A 
ATOM     23  C   UNL     1       5.387   4.108  15.199  0.00  0.00    +0.000 A 
ATOM     24  C   UNL     1       6.368   5.079  15.388  0.00  0.00    +0.000 A 
ATOM     25  C   UNL     1       6.721   5.554  16.655  0.00  0.00    +0.000 A 
ATOM     26  N   UNL     1       7.621   6.560  16.784  0.00  0.00    +0.000 NA
ATOM     27  C   UNL     1       7.984   6.966  18.015  0.00  0.00    +0.000 A 
ATOM     28  C   UNL     1       7.557   6.349  19.167  0.00  0.00    +0.000 A 
ATOM     29  C   UNL     1       6.614   5.337  19.043  0.00  0.00    +0.000 A 
ATOM     30  C   UNL     1       6.099   4.961  17.780  0.00  0.00    +0.000 A 
BRANCH  24  31
ATOM     31  O   UNL     1       7.013   5.593  14.284  0.00  0.00    +0.000 OA
ATOM     32  H   UNL     1       7.456   6.420  14.523  0.00  0.00    +0.000 HD
ENDBRANCH  24  31
ENDBRANCH  20  21
ENDBRANCH   1  20
TORSDOF 10
ENDMDL
MODEL 3
REMARK VINA RESULT:      -7.9      5.558      8.953
REMARK  Name = 
REMARK  10 active torsions:
REMARK  status: ('A' for Active; 'I' for Inactive)
REMARK    1  A    between atoms: C_2  and  C_3
REMARK    2  A    between atoms: C_3  and  N_4
REMARK    3  A    between atoms: N_4  and  C_5
REMARK    4  A    between atoms: N_4  and  C_20
REMARK    5  A    between atoms: C_5  and  C_6
REMARK    6  A    between atoms: C_6  and  C_7
REMARK    7  A    between atoms: N_10  and  C_11
REMARK    8  A    between atoms: C_11  and  C_12
REMARK    9  A    between atoms: C_20  and  C_21
REMARK   10  A    between atoms: C_24  and  O_25
REMARK                            x       y       z     vdW  Elec       q    Type
REMARK                         _______ _______ _______ _____ _____    ______ ____
ROOT
ATOM      1  N   UNL     1       9.082  10.253  18.214  0.00  0.00    +0.000 NA
ENDROOT
BRANCH   1   2
ATOM      2  C   UNL     1       9.037   9.899  19.645  0.00  0.00    +0.000 C 
BRANCH   2   4
ATOM      3  C   UNL     1       9.923  12.062  21.230  0.00  0.00    +0.000 C 
ATOM      4  C   UNL     1       9.514  11.063  20.498  0.00  0.00    +0.000 C 
ENDBRANCH   2   4
ENDBRANCH   1   2
BRANCH   1   5
ATOM      5  C   UNL     1       8.289   9.318  17.354  0.00  0.00    +0.000 C 
BRANCH   5   6
ATOM      6  C   UNL     1       7.732   8.090  18.094  0.00  0.00    +0.000 C 
BRANCH   6   7
ATOM      7  C   UNL     1       7.501   6.792  17.287  0.00  0.00    +0.000 C 
ATOM      8  C   UNL     1       6.111   6.869  16.627  0.00  0.00    +0.000 C 
ATOM      9  C   UNL     1       4.975   6.761  17.656  0.00  0.00    +0.000 C 
ATOM     10  N   UNL     1       5.066   5.537  18.464  0.00  0.00    +0.000 NA
ATOM     11  C   UNL     1       6.395   5.375  19.088  0.00  0.00    +0.000 C 
ATOM     12  C   UNL     1       7.548   5.487  18.091  0.00  0.00    +0.000 C 
BRANCH  10  13
ATOM     13  C   UNL     1       4.039   5.520  19.533  0.00  0.00    +0.000 C 
BRANCH  13  14
ATOM     14  C   UNL     1       2.936   4.501  19.345  0.00  0.00    +0.000 A 
ATOM     15  C   UNL     1       3.099   3.410  18.482  0.00  0.00    +0.000 A 
ATOM     16  C   UNL     1       2.098   2.453  18.343  0.00  0.00    +0.000 A 
ATOM     17  C   UNL     1       0.913   2.566  19.073  0.00  0.00    +0.000 A 
ATOM     18  C   UNL     1       0.734   3.648  19.938  0.00  0.00    +0.000 A 
ATOM     19  C   UNL     1       1.741   4.609  20.071  0.00  0.00    +0.000 A 
ENDBRANCH  13  14
ENDBRANCH  10  13
ENDBRANCH   6   7
ENDBRANCH   5   6
ENDBRANCH   1   5
BRANCH   1  20
ATOM     20  C   UNL     1       8.631  11.642  18.005  0.00  0.00    +0.000 C 
BRANCH  20  21
ATOM     21  C   UNL     1       9.698  12.722  17.880  0.00  0.00    +0.000 A 
ATOM     22  C   UNL     1      10.938  12.380  17.321  0.00  0.00    +0.000 A 
ATOM     23  C   UNL     1      11.833  13.372  16.928  0.00  0.00    +0.000 A 
ATOM     24  C   UNL     1      11.455  14.709  17.024  0.00  0.00    +0.000 A 
ATOM     25  C   UNL     1      10.226  15.106  17.562  0.00  0.00    +0.000 A 
ATOM     26  N   UNL     1       9.866  16.413  17.557  0.00  0.00    +0.000 NA
ATOM     27  C   UNL     1       8.703  16.778  18.125  0.00  0.00    +0.000 A 
ATOM     28  C   UNL     1       7.888  15.902  18.801  0.00  0.00    +0.000 A 
ATOM     29  C   UNL     1       8.237  14.557  18.786  0.00  0.00    +0.000 A 
ATOM     30  C   UNL     1       9.381  14.102  18.089  0.00  0.00    +0.000 A 
BRANCH  24  31
ATOM     31  O   UNL     1      12.324  15.677  16.569  0.00  0.00    +0.000 OA
ATOM     32  H   UNL     1      12.165  16.504  17.046  0.00  0.00    +0.000 HD
ENDBRANCH  24  31
ENDBRANCH  20  21
ENDBRANCH   1  20
TORSDOF 10
ENDMDL
MODEL 4
REMARK VINA RESULT:      -7.6      3.024      8.170
REMARK  Name = 
REMARK  10 active torsions:
REMARK  status: ('A' for Active; 'I' for Inactive)
REMARK    1  A    between atoms: C_2  and  C_3
REMARK    2  A    between atoms: C_3  and  N_4
REMARK    3  A    between atoms: N_4  and  C_5
REMARK    4  A    between atoms: N_4  and  C_20
REMARK    5  A    between atoms: C_5  and  C_6
REMARK    6  A    between atoms: C_6  and  C_7
REMARK    7  A    between atoms: N_10  and  C_11
REMARK    8  A    between atoms: C_11  and  C_12
REMARK    9  A    between atoms: C_20  and  C_21
REMARK   10  A    between atoms: C_24  and  O_25
REMARK                            x       y       z     vdW  Elec       q    Type
REMARK                         _______ _______ _______ _____ _____    ______ ____
ROOT
ATOM      1  N   UNL     1       2.516   8.625  18.434  0.00  0.00    +0.000 NA
ENDROOT
BRANCH   1   2
ATOM      2  C   UNL     1       2.234   7.496  19.339  0.00  0.00    +0.000 C 
BRANCH   2   4
ATOM      3  C   UNL     1       0.966   8.405  21.693  0.00  0.00    +0.000 C 
ATOM      4  C   UNL     1       1.552   7.985  20.606  0.00  0.00    +0.000 C 
ENDBRANCH   2   4
ENDBRANCH   1   2
BRANCH   1   5
ATOM      5  C   UNL     1       3.550   8.303  17.400  0.00  0.00    +0.000 C 
BRANCH   5   6
ATOM      6  C   UNL     1       3.752   6.800  17.148  0.00  0.00    +0.000 C 
BRANCH   6   7
ATOM      7  C   UNL     1       5.196   6.273  16.981  0.00  0.00    +0.000 C 
ATOM      8  C   UNL     1       5.132   4.862  16.367  0.00  0.00    +0.000 C 
ATOM      9  C   UNL     1       4.573   3.826  17.354  0.00  0.00    +0.000 C 
ATOM     10  N   UNL     1       5.336   3.779  18.609  0.00  0.00    +0.000 NA
ATOM     11  C   UNL     1       5.479   5.113  19.228  0.00  0.00    +0.000 C 
ATOM     12  C   UNL     1       6.024   6.169  18.267  0.00  0.00    +0.000 C 
BRANCH  10  13
ATOM     13  C   UNL     1       4.701   2.870  19.592  0.00  0.00    +0.000 C 
BRANCH  13  14
ATOM     14  C   UNL     1       3.196   2.990  19.696  0.00  0.00    +0.000 A 
ATOM     15  C   UNL     1       2.351   2.125  18.988  0.00  0.00    +0.000 A 
ATOM     16  C   UNL     1       0.968   2.213  19.117  0.00  0.00    +0.000 A 
ATOM     17  C   UNL     1       0.402   3.166  19.967  0.00  0.00    +0.000 A 
ATOM     18  C   UNL     1       1.231   4.036  20.681  0.00  0.00    +0.000 A 
ATOM     19  C   UNL     1       2.619   3.947  20.544  0.00  0.00    +0.000 A 
ENDBRANCH  13  14
ENDBRANCH  10  13
ENDBRANCH   6   7
ENDBRANCH   5   6
ENDBRANCH   1   5
BRANCH   1  20
ATOM     20  C   UNL     1       1.278   9.098  17.786  0.00  0.00    +0.000 C 
BRANCH  20  21
ATOM     21  C   UNL     1       0.618  10.351  18.347  0.00  0.00    +0.000 A 
ATOM     22  C   UNL     1       1.436  11.408  18.773  0.00  0.00    +0.000 A 
ATOM     23  C   UNL     1       0.891  12.664  19.026  0.00  0.00    +0.000 A 
ATOM     24  C   UNL     1      -0.462  12.884  18.778  0.00  0.00    +0.000 A 
ATOM     25  C   UNL     1      -1.320  11.869  18.341  0.00  0.00    +0.000 A 
ATOM     26  N   UNL     1      -2.611  12.149  18.032  0.00  0.00    +0.000 NA
ATOM     27  C   UNL     1      -3.431  11.149  17.663  0.00  0.00    +0.000 A 
ATOM     28  C   UNL     1      -3.056   9.826  17.669  0.00  0.00    +0.000 A 
ATOM     29  C   UNL     1      -1.729   9.536  17.958  0.00  0.00    +0.000 A 
ATOM     30  C   UNL     1      -0.792  10.562  18.223  0.00  0.00    +0.000 A 
BRANCH  24  31
ATOM     31  O   UNL     1      -0.974  14.149  18.968  0.00  0.00    +0.000 OA
ATOM     32  H   UNL     1      -0.284  14.728  19.322  0.00  0.00    +0.000 HD
ENDBRANCH  24  31
ENDBRANCH  20  21
ENDBRANCH   1  20
TORSDOF 10
ENDMDL
MODEL 5
REMARK VINA RESULT:      -7.5      1.372      2.413
REMARK  Name = 
REMARK  10 active torsions:
REMARK  status: ('A' for Active; 'I' for Inactive)
REMARK    1  A    between atoms: C_2  and  C_3
REMARK    2  A    between atoms: C_3  and  N_4
REMARK    3  A    between atoms: N_4  and  C_5
REMARK    4  A    between atoms: N_4  and  C_20
REMARK    5  A    between atoms: C_5  and  C_6
REMARK    6  A    between atoms: C_6  and  C_7
REMARK    7  A    between atoms: N_10  and  C_11
REMARK    8  A    between atoms: C_11  and  C_12
REMARK    9  A    between atoms: C_20  and  C_21
REMARK   10  A    between atoms: C_24  and  O_25
REMARK                            x       y       z     vdW  Elec       q    Type
REMARK                         _______ _______ _______ _____ _____    ______ ____
ROOT
ATOM      1  N   UNL     1       1.667   3.796  17.954  0.00  0.00    +0.000 NA
ENDROOT
BRANCH   1   2
ATOM      2  C   UNL     1       0.881   2.763  18.653  0.00  0.00    +0.000 C 
BRANCH   2   4
ATOM      3  C   UNL     1       1.494   2.747  21.410  0.00  0.00    +0.000 C 
ATOM      4  C   UNL     1       1.211   2.754  20.136  0.00  0.00    +0.000 C 
ENDBRANCH   2   4
ENDBRANCH   1   2
BRANCH   1   5
ATOM      5  C   UNL     1       1.911   5.014  18.791  0.00  0.00    +0.000 C 
BRANCH   5   6
ATOM      6  C   UNL     1       1.772   6.345  18.033  0.00  0.00    +0.000 C 
BRANCH   6   7
ATOM      7  C   UNL     1       2.625   7.546  18.502  0.00  0.00    +0.000 C 
ATOM      8  C   UNL     1       2.317   7.812  19.988  0.00  0.00    +0.000 C 
ATOM      9  C   UNL     1       0.904   8.379  20.194  0.00  0.00    +0.000 C 
ATOM     10  N   UNL     1       0.674   9.607  19.419  0.00  0.00    +0.000 NA
ATOM     11  C   UNL     1       0.999   9.435  17.988  0.00  0.00    +0.000 C 
ATOM     12  C   UNL     1       2.397   8.863  17.751  0.00  0.00    +0.000 C 
BRANCH  10  13
ATOM     13  C   UNL     1      -0.732  10.059  19.531  0.00  0.00    +0.000 C 
BRANCH  13  14
ATOM     14  C   UNL     1      -0.954  11.238  20.453  0.00  0.00    +0.000 A 
ATOM     15  C   UNL     1      -0.692  11.141  21.826  0.00  0.00    +0.000 A 
ATOM     16  C   UNL     1      -0.860  12.239  22.665  0.00  0.00    +0.000 A 
ATOM     17  C   UNL     1      -1.286  13.462  22.143  0.00  0.00    +0.000 A 
ATOM     18  C   UNL     1      -1.551  13.576  20.776  0.00  0.00    +0.000 A 
ATOM     19  C   UNL     1      -1.386  12.469  19.938  0.00  0.00    +0.000 A 
ENDBRANCH  13  14
ENDBRANCH  10  13
ENDBRANCH   6   7
ENDBRANCH   5   6
ENDBRANCH   1   5
BRANCH   1  20
ATOM     20  C   UNL     1       2.948   3.244  17.474  0.00  0.00    +0.000 C 
BRANCH  20  21
ATOM     21  C   UNL     1       4.219   4.021  17.793  0.00  0.00    +0.000 A 
ATOM     22  C   UNL     1       4.583   4.192  19.136  0.00  0.00    +0.000 A 
ATOM     23  C   UNL     1       5.859   4.640  19.469  0.00  0.00    +0.000 A 
ATOM     24  C   UNL     1       6.797   4.844  18.460  0.00  0.00    +0.000 A 
ATOM     25  C   UNL     1       6.491   4.677  17.105  0.00  0.00    +0.000 A 
ATOM     26  N   UNL     1       7.458   4.804  16.163  0.00  0.00    +0.000 NA
ATOM     27  C   UNL     1       7.130   4.689  14.863  0.00  0.00    +0.000 A 
ATOM     28  C   UNL     1       5.837   4.539  14.423  0.00  0.00    +0.000 A 
ATOM     29  C   UNL     1       4.846   4.380  15.383  0.00  0.00    +0.000 A 
ATOM     30  C   UNL     1       5.155   4.360  16.764  0.00  0.00    +0.000 A 
BRANCH  24  31
ATOM     31  O   UNL     1       8.075   5.222  18.809  0.00  0.00    +0.000 OA
ATOM     32  H   UNL     1       8.385   5.913  18.205  0.00  0.00    +0.000 HD
ENDBRANCH  24  31
ENDBRANCH  20  21
ENDBRANCH   1  20
TORSDOF 10
ENDMDL
MODEL 6
REMARK VINA RESULT:      -7.5      3.806      6.020
REMARK  Name = 
REMARK  10 active torsions:
REMARK  status: ('A' for Active; 'I' for Inactive)
REMARK    1  A    between atoms: C_2  and  C_3
REMARK    2  A    between atoms: C_3  and  N_4
REMARK    3  A    between atoms: N_4  and  C_5
REMARK    4  A    between atoms: N_4  and  C_20
REMARK    5  A    between atoms: C_5  and  C_6
REMARK    6  A    between atoms: C_6  and  C_7
REMARK    7  A    between atoms: N_10  and  C_11
REMARK    8  A    between atoms: C_11  and  C_12
REMARK    9  A    between atoms: C_20  and  C_21
REMARK   10  A    between atoms: C_24  and  O_25
REMARK                            x       y       z     vdW  Elec       q    Type
REMARK                         _______ _______ _______ _____ _____    ______ ____
ROOT
ATOM      1  N   UNL     1       1.097   8.547  20.259  0.00  0.00    +0.000 NA
ENDROOT
BRANCH   1   2
ATOM      2  C   UNL     1       1.504   8.513  21.676  0.00  0.00    +0.000 C 
BRANCH   2   4
ATOM      3  C   UNL     1      -0.431   9.783  23.294  0.00  0.00    +0.000 C 
ATOM      4  C   UNL     1       0.462   9.196  22.547  0.00  0.00    +0.000 C 
ENDBRANCH   2   4
ENDBRANCH   1   2
BRANCH   1   5
ATOM      5  C   UNL     1       0.779   9.927  19.773  0.00  0.00    +0.000 C 
BRANCH   5   6
ATOM      6  C   UNL     1      -0.676  10.121  19.316  0.00  0.00    +0.000 C 
BRANCH   6   7
ATOM      7  C   UNL     1      -0.929  10.716  17.912  0.00  0.00    +0.000 C 
ATOM      8  C   UNL     1      -1.652  12.066  18.078  0.00  0.00    +0.000 C 
ATOM      9  C   UNL     1      -3.098  11.892  18.568  0.00  0.00    +0.000 C 
ATOM     10  N   UNL     1      -3.887  11.019  17.688  0.00  0.00    +0.000 NA
ATOM     11  C   UNL     1      -3.224   9.722  17.446  0.00  0.00    +0.000 C 
ATOM     12  C   UNL     1      -1.780   9.861  16.965  0.00  0.00    +0.000 C 
BRANCH  10  13
ATOM     13  C   UNL     1      -5.234  10.762  18.251  0.00  0.00    +0.000 C 
BRANCH  13  14
ATOM     14  C   UNL     1      -6.145  11.968  18.306  0.00  0.00    +0.000 A 
ATOM     15  C   UNL     1      -6.451  12.698  17.149  0.00  0.00    +0.000 A 
ATOM     16  C   UNL     1      -7.321  13.782  17.197  0.00  0.00    +0.000 A 
ATOM     17  C   UNL     1      -7.911  14.155  18.407  0.00  0.00    +0.000 A 
ATOM     18  C   UNL     1      -7.617  13.439  19.570  0.00  0.00    +0.000 A 
ATOM     19  C   UNL     1      -6.739  12.353  19.517  0.00  0.00    +0.000 A 
ENDBRANCH  13  14
ENDBRANCH  10  13
ENDBRANCH   6   7
ENDBRANCH   5   6
ENDBRANCH   1   5
BRANCH   1  20
ATOM     20  C   UNL     1       2.129   7.931  19.404  0.00  0.00    +0.000 C 
BRANCH  20  21
ATOM     21  C   UNL     1       2.408   6.445  19.587  0.00  0.00    +0.000 A 
ATOM     22  C   UNL     1       1.678   5.739  20.554  0.00  0.00    +0.000 A 
ATOM     23  C   UNL     1       1.690   4.346  20.569  0.00  0.00    +0.000 A 
ATOM     24  C   UNL     1       2.371   3.658  19.569  0.00  0.00    +0.000 A 
ATOM     25  C   UNL     1       3.106   4.312  18.573  0.00  0.00    +0.000 A 
ATOM     26  N   UNL     1       3.683   3.604  17.571  0.00  0.00    +0.000 NA
ATOM     27  C   UNL     1       4.426   4.249  16.653  0.00  0.00    +0.000 A 
ATOM     28  C   UNL     1       4.715   5.591  16.725  0.00  0.00    +0.000 A 
ATOM     29  C   UNL     1       4.104   6.326  17.734  0.00  0.00    +0.000 A 
ATOM     30  C   UNL     1       3.207   5.722  18.646  0.00  0.00    +0.000 A 
BRANCH  24  31
ATOM     31  O   UNL     1       2.319   2.281  19.556  0.00  0.00    +0.000 OA
ATOM     32  H   UNL     1       1.536   1.982  20.041  0.00  0.00    +0.000 HD
ENDBRANCH  24  31
ENDBRANCH  20  21
ENDBRANCH   1  20
TORSDOF 10
ENDMDL
MODEL 7
REMARK VINA RESULT:      -7.5      1.626      2.617
REMARK  Name = 
REMARK  10 active torsions:
REMARK  status: ('A' for Active; 'I' for Inactive)
REMARK    1  A    between atoms: C_2  and  C_3
REMARK    2  A    between atoms: C_3  and  N_4
REMARK    3  A    between atoms: N_4  and  C_5
REMARK    4  A    between atoms: N_4  and  C_20
REMARK    5  A    between atoms: C_5  and  C_6
REMARK    6  A    between atoms: C_6  and  C_7
REMARK    7  A    between atoms: N_10  and  C_11
REMARK    8  A    between atoms: C_11  and  C_12
REMARK    9  A    between atoms: C_20  and  C_21
REMARK   10  A    between atoms: C_24  and  O_25
REMARK                            x       y       z     vdW  Elec       q    Type
REMARK                         _______ _______ _______ _____ _____    ______ ____
ROOT
ATOM      1  N   UNL     1       1.630   3.550  17.896  0.00  0.00    +0.000 NA
ENDROOT
BRANCH   1   2
ATOM      2  C   UNL     1       0.982   2.453  18.639  0.00  0.00    +0.000 C 
BRANCH   2   4
ATOM      3  C   UNL     1       1.411   2.747  21.415  0.00  0.00    +0.000 C 
ATOM      4  C   UNL     1       1.213   2.611  20.133  0.00  0.00    +0.000 C 
ENDBRANCH   2   4
ENDBRANCH   1   2
BRANCH   1   5
ATOM      5  C   UNL     1       1.837   4.778  18.727  0.00  0.00    +0.000 C 
BRANCH   5   6
ATOM      6  C   UNL     1       1.759   6.098  17.942  0.00  0.00    +0.000 C 
BRANCH   6   7
ATOM      7  C   UNL     1       2.722   7.242  18.336  0.00  0.00    +0.000 C 
ATOM      8  C   UNL     1       2.523   7.554  19.831  0.00  0.00    +0.000 C 
ATOM      9  C   UNL     1       1.169   8.226  20.107  0.00  0.00    +0.000 C 
ATOM     10  N   UNL     1       0.983   9.454  19.321  0.00  0.00    +0.000 NA
ATOM     11  C   UNL     1       1.209   9.235  17.878  0.00  0.00    +0.000 C 
ATOM     12  C   UNL     1       2.545   8.559  17.571  0.00  0.00    +0.000 C 
BRANCH  10  13
ATOM     13  C   UNL     1      -0.378  10.010  19.506  0.00  0.00    +0.000 C 
BRANCH  13  14
ATOM     14  C   UNL     1      -0.452  11.520  19.558  0.00  0.00    +0.000 A 
ATOM     15  C   UNL     1      -1.559  12.172  20.116  0.00  0.00    +0.000 A 
ATOM     16  C   UNL     1      -1.606  13.560  20.198  0.00  0.00    +0.000 A 
ATOM     17  C   UNL     1      -0.537  14.326  19.729  0.00  0.00    +0.000 A 
ATOM     18  C   UNL     1       0.576  13.693  19.169  0.00  0.00    +0.000 A 
ATOM     19  C   UNL     1       0.615  12.298  19.085  0.00  0.00    +0.000 A 
ENDBRANCH  13  14
ENDBRANCH  10  13
ENDBRANCH   6   7
ENDBRANCH   5   6
ENDBRANCH   1   5
BRANCH   1  20
ATOM     20  C   UNL     1       2.911   3.105  17.317  0.00  0.00    +0.000 C 
BRANCH  20  21
ATOM     21  C   UNL     1       4.167   3.881  17.694  0.00  0.00    +0.000 A 
ATOM     22  C   UNL     1       4.516   3.978  19.049  0.00  0.00    +0.000 A 
ATOM     23  C   UNL     1       5.781   4.424  19.421  0.00  0.00    +0.000 A 
ATOM     24  C   UNL     1       6.725   4.701  18.436  0.00  0.00    +0.000 A 
ATOM     25  C   UNL     1       6.435   4.609  17.070  0.00  0.00    +0.000 A 
ATOM     26  N   UNL     1       7.409   4.806  16.148  0.00  0.00    +0.000 NA
ATOM     27  C   UNL     1       7.096   4.763  14.840  0.00  0.00    +0.000 A 
ATOM     28  C   UNL     1       5.809   4.620  14.378  0.00  0.00    +0.000 A 
ATOM     29  C   UNL     1       4.811   4.390  15.317  0.00  0.00    +0.000 A 
ATOM     30  C   UNL     1       5.107   4.293  16.697  0.00  0.00    +0.000 A 
BRANCH  24  31
ATOM     31  O   UNL     1       7.994   5.077  18.820  0.00  0.00    +0.000 OA
ATOM     32  H   UNL     1       8.542   4.289  18.944  0.00  0.00    +0.000 HD
ENDBRANCH  24  31
ENDBRANCH  20  21
ENDBRANCH   1  20
TORSDOF 10
ENDMDL
MODEL 8
REMARK VINA RESULT:      -7.4      1.771      3.277
REMARK  Name = 
REMARK  10 active torsions:
REMARK  status: ('A' for Active; 'I' for Inactive)
REMARK    1  A    between atoms: C_2  and  C_3
REMARK    2  A    between atoms: C_3  and  N_4
REMARK    3  A    between atoms: N_4  and  C_5
REMARK    4  A    between atoms: N_4  and  C_20
REMARK    5  A    between atoms: C_5  and  C_6
REMARK    6  A    between atoms: C_6  and  C_7
REMARK    7  A    between atoms: N_10  and  C_11
REMARK    8  A    between atoms: C_11  and  C_12
REMARK    9  A    between atoms: C_20  and  C_21
REMARK   10  A    between atoms: C_24  and  O_25
REMARK                            x       y       z     vdW  Elec       q    Type
REMARK                         _______ _______ _______ _____ _____    ______ ____
ROOT
ATOM      1  N   UNL     1       2.207   6.194  18.337  0.00  0.00    +0.000 NA
ENDROOT
BRANCH   1   2
ATOM      2  C   UNL     1       2.125   6.102  19.806  0.00  0.00    +0.000 C 
BRANCH   2   4
ATOM      3  C   UNL     1       1.096   3.590  20.586  0.00  0.00    +0.000 C 
ATOM      4  C   UNL     1       1.572   4.750  20.226  0.00  0.00    +0.000 C 
ENDBRANCH   2   4
ENDBRANCH   1   2
BRANCH   1   5
ATOM      5  C   UNL     1       2.698   7.526  17.859  0.00  0.00    +0.000 C 
BRANCH   5   6
ATOM      6  C   UNL     1       2.151   8.726  18.649  0.00  0.00    +0.000 C 
BRANCH   6   7
ATOM      7  C   UNL     1       1.281   9.761  17.898  0.00  0.00    +0.000 C 
ATOM      8  C   UNL     1       1.840  11.167  18.186  0.00  0.00    +0.000 C 
ATOM      9  C   UNL     1       1.594  11.602  19.638  0.00  0.00    +0.000 C 
ATOM     10  N   UNL     1       0.171  11.557  20.003  0.00  0.00    +0.000 NA
ATOM     11  C   UNL     1      -0.442  10.247  19.706  0.00  0.00    +0.000 C 
ATOM     12  C   UNL     1      -0.206   9.782  18.269  0.00  0.00    +0.000 C 
BRANCH  10  13
ATOM     13  C   UNL     1      -0.026  11.853  21.442  0.00  0.00    +0.000 C 
BRANCH  13  14
ATOM     14  C   UNL     1      -1.446  12.192  21.837  0.00  0.00    +0.000 A 
ATOM     15  C   UNL     1      -1.950  11.839  23.096  0.00  0.00    +0.000 A 
ATOM     16  C   UNL     1      -3.244  12.188  23.471  0.00  0.00    +0.000 A 
ATOM     17  C   UNL     1      -4.060  12.906  22.594  0.00  0.00    +0.000 A 
ATOM     18  C   UNL     1      -3.573  13.266  21.335  0.00  0.00    +0.000 A 
ATOM     19  C   UNL     1      -2.274  12.910  20.961  0.00  0.00    +0.000 A 
ENDBRANCH  13  14
ENDBRANCH  10  13
ENDBRANCH   6   7
ENDBRANCH   5   6
ENDBRANCH   1   5
BRANCH   1  20
ATOM     20  C   UNL     1       3.051   5.115  17.791  0.00  0.00    +0.000 C 
BRANCH  20  21
ATOM     21  C   UNL     1       4.561   5.255  17.933  0.00  0.00    +0.000 A 
ATOM     22  C   UNL     1       5.119   5.245  19.219  0.00  0.00    +0.000 A 
ATOM     23  C   UNL     1       6.492   5.088  19.392  0.00  0.00    +0.000 A 
ATOM     24  C   UNL     1       7.299   4.863  18.279  0.00  0.00    +0.000 A 
ATOM     25  C   UNL     1       6.794   4.851  16.974  0.00  0.00    +0.000 A 
ATOM     26  N   UNL     1       7.601   4.544  15.929  0.00  0.00    +0.000 NA
ATOM     27  C   UNL     1       7.106   4.588  14.679  0.00  0.00    +0.000 A 
ATOM     28  C   UNL     1       5.834   5.021  14.388  0.00  0.00    +0.000 A 
ATOM     29  C   UNL     1       4.993   5.310  15.455  0.00  0.00    +0.000 A 
ATOM     30  C   UNL     1       5.423   5.153  16.794  0.00  0.00    +0.000 A 
BRANCH  24  31
ATOM     31  O   UNL     1       8.645   4.642  18.470  0.00  0.00    +0.000 OA
ATOM     32  H   UNL     1       8.918   3.856  17.975  0.00  0.00    +0.000 HD
ENDBRANCH  24  31
ENDBRANCH  20  21
ENDBRANCH   1  20
TORSDOF 10
ENDMDL
MODEL 9
REMARK VINA RESULT:      -7.3      1.416      2.524
REMARK  Name = 
REMARK  10 active torsions:
REMARK  status: ('A' for Active; 'I' for Inactive)
REMARK    1  A    between atoms: C_2  and  C_3
REMARK    2  A    between atoms: C_3  and  N_4
REMARK    3  A    between atoms: N_4  and  C_5
REMARK    4  A    between atoms: N_4  and  C_20
REMARK    5  A    between atoms: C_5  and  C_6
REMARK    6  A    between atoms: C_6  and  C_7
REMARK    7  A    between atoms: N_10  and  C_11
REMARK    8  A    between atoms: C_11  and  C_12
REMARK    9  A    between atoms: C_20  and  C_21
REMARK   10  A    between atoms: C_24  and  O_25
REMARK                            x       y       z     vdW  Elec       q    Type
REMARK                         _______ _______ _______ _____ _____    ______ ____
ROOT
ATOM      1  N   UNL     1       2.981   3.696  18.684  0.00  0.00    +0.000 NA
ENDROOT
BRANCH   1   2
ATOM      2  C   UNL     1       3.090   4.088  20.101  0.00  0.00    +0.000 C 
BRANCH   2   4
ATOM      3  C   UNL     1       1.321   2.565  21.690  0.00  0.00    +0.000 C 
ATOM      4  C   UNL     1       2.138   3.269  20.956  0.00  0.00    +0.000 C 
ENDBRANCH   2   4
ENDBRANCH   1   2
BRANCH   1   5
ATOM      5  C   UNL     1       2.253   4.704  17.850  0.00  0.00    +0.000 C 
BRANCH   5   6
ATOM      6  C   UNL     1       1.687   5.895  18.642  0.00  0.00    +0.000 C 
BRANCH   6   7
ATOM      7  C   UNL     1       2.644   7.052  19.009  0.00  0.00    +0.000 C 
ATOM      8  C   UNL     1       2.097   7.758  20.263  0.00  0.00    +0.000 C 
ATOM      9  C   UNL     1       0.812   8.546  19.969  0.00  0.00    +0.000 C 
ATOM     10  N   UNL     1       0.992   9.531  18.893  0.00  0.00    +0.000 NA
ATOM     11  C   UNL     1       1.563   8.927  17.672  0.00  0.00    +0.000 C 
ATOM     12  C   UNL     1       2.839   8.127  17.933  0.00  0.00    +0.000 C 
BRANCH  10  13
ATOM     13  C   UNL     1      -0.291  10.184  18.540  0.00  0.00    +0.000 C 
BRANCH  13  14
ATOM     14  C   UNL     1      -0.532  11.522  19.201  0.00  0.00    +0.000 A 
ATOM     15  C   UNL     1      -0.180  12.719  18.562  0.00  0.00    +0.000 A 
ATOM     16  C   UNL     1      -0.439  13.949  19.157  0.00  0.00    +0.000 A 
ATOM     17  C   UNL     1      -1.065  14.008  20.404  0.00  0.00    +0.000 A 
ATOM     18  C   UNL     1      -1.423  12.825  21.055  0.00  0.00    +0.000 A 
ATOM     19  C   UNL     1      -1.156  11.591  20.456  0.00  0.00    +0.000 A 
ENDBRANCH  13  14
ENDBRANCH  10  13
ENDBRANCH   6   7
ENDBRANCH   5   6
ENDBRANCH   1   5
BRANCH   1  20
ATOM     20  C   UNL     1       4.315   3.430  18.111  0.00  0.00    +0.000 C 
BRANCH  20  21
ATOM     21  C   UNL     1       5.144   4.625  17.660  0.00  0.00    +0.000 A 
ATOM     22  C   UNL     1       5.625   5.514  18.633  0.00  0.00    +0.000 A 
ATOM     23  C   UNL     1       6.608   6.447  18.311  0.00  0.00    +0.000 A 
ATOM     24  C   UNL     1       7.164   6.440  17.035  0.00  0.00    +0.000 A 
ATOM     25  C   UNL     1       6.731   5.568  16.030  0.00  0.00    +0.000 A 
ATOM     26  N   UNL     1       7.359   5.540  14.829  0.00  0.00    +0.000 NA
ATOM     27  C   UNL     1       6.893   4.729  13.862  0.00  0.00    +0.000 A 
ATOM     28  C   UNL     1       5.745   3.985  13.990  0.00  0.00    +0.000 A 
ATOM     29  C   UNL     1       5.113   3.988  15.227  0.00  0.00    +0.000 A 
ATOM     30  C   UNL     1       5.636   4.719  16.320  0.00  0.00    +0.000 A 
BRANCH  24  31
ATOM     31  O   UNL     1       8.182   7.324  16.750  0.00  0.00    +0.000 OA
ATOM     32  H   UNL     1       8.468   7.763  17.564  0.00  0.00    +0.000 HD
ENDBRANCH  24  31
ENDBRANCH  20  21
ENDBRANCH   1  20
TORSDOF 10
ENDMDL
