MODEL 1
REMARK VINA RESULT:      -8.2      0.000      0.000
REMARK  Name = 
REMARK  8 active torsions:
REMARK  status: ('A' for Active; 'I' for Inactive)
REMARK    1  A    between atoms: C_1  and  C_2
REMARK    2  A    between atoms: C_2  and  C_3
REMARK    3  A    between atoms: C_2  and  N_7
REMARK    4  A    between atoms: C_3  and  C_4
REMARK    5  A    between atoms: C_4  and  O_6
REMARK    6  A    between atoms: C_12  and  N_13
REMARK    7  A    between atoms: C_14  and  C_16
REMARK    8  A    between atoms: C_20  and  N_21
REMARK                            x       y       z     vdW  Elec       q    Type
REMARK                         _______ _______ _______ _____ _____    ______ ____
ROOT
ATOM      1  N   UNL     1      -0.885  11.724  22.266  0.00  0.00    +0.000 N 
ATOM      2  C   UNL     1      -0.819  12.069  20.846  0.00  0.00    +0.000 C 
ATOM      3  C   UNL     1      -0.061  10.924  20.269  0.00  0.00    +0.000 A 
ATOM      4  C   UNL     1       0.314  10.683  18.966  0.00  0.00    +0.000 A 
ATOM      5  C   UNL     1       1.044   9.517  18.690  0.00  0.00    +0.000 A 
ATOM      6  C   UNL     1       1.412   8.609  19.709  0.00  0.00    +0.000 A 
ATOM      7  C   UNL     1       0.997   8.850  21.021  0.00  0.00    +0.000 A 
ATOM      8  C   UNL     1       0.283  10.017  21.262  0.00  0.00    +0.000 A 
ATOM      9  C   UNL     1      -0.223  10.532  22.536  0.00  0.00    +0.000 C 
ATOM     10  O   UNL     1      -0.073   9.976  23.610  0.00  0.00    +0.000 OA
ENDROOT
BRANCH   6  11
ATOM     11  N   UNL     1       2.199   7.455  19.449  0.00  0.00    +0.000 N 
ATOM     12  C   UNL     1       1.961   6.207  20.019  0.00  0.00    +0.000 C 
ATOM     13  O   UNL     1       1.019   5.929  20.751  0.00  0.00    +0.000 OA
ATOM     14  H   UNL     1       2.854   7.504  18.684  0.00  0.00    +0.000 HD
BRANCH  12  15
ATOM     15  C   UNL     1       2.887   5.100  19.667  0.00  0.00    +0.000 A 
ATOM     16  C   UNL     1       2.769   3.920  20.406  0.00  0.00    +0.000 A 
ATOM     17  C   UNL     1       3.688   2.897  20.233  0.00  0.00    +0.000 A 
ATOM     18  C   UNL     1       4.729   3.056  19.320  0.00  0.00    +0.000 A 
ATOM     19  C   UNL     1       4.882   4.225  18.552  0.00  0.00    +0.000 A 
ATOM     20  C   UNL     1       3.929   5.245  18.741  0.00  0.00    +0.000 A 
BRANCH  19  21
ATOM     21  N   UNL     1       5.937   4.357  17.675  0.00  0.00    +0.000 N 
ATOM     22  C   UNL     1       5.881   3.941  16.268  0.00  0.00    +0.000 C 
ATOM     23  C   UNL     1       6.142   5.147  15.341  0.00  0.00    +0.000 C 
ATOM     24  N   UNL     1       7.409   5.842  15.637  0.00  0.00    +0.000 NA
ATOM     25  C   UNL     1       7.429   6.239  17.059  0.00  0.00    +0.000 C 
ATOM     26  C   UNL     1       7.176   5.069  18.041  0.00  0.00    +0.000 C 
ATOM     27  H   UNL     1       7.473   6.679  15.059  0.00  0.00    +0.000 HD
ENDBRANCH  19  21
ENDBRANCH  12  15
ENDBRANCH   6  11
BRANCH   1  29
ATOM     28  C   UNL     1      -1.430  14.069  22.955  0.00  0.00    +0.000 C 
ATOM     29  C   UNL     1      -1.513  12.575  23.298  0.00  0.00    +0.000 C 
BRANCH  29  30
ATOM     30  C   UNL     1      -2.965  12.136  23.543  0.00  0.00    +0.000 C 
BRANCH  30  31
ATOM     31  C   UNL     1      -3.962  12.995  22.817  0.00  0.00    +0.000 C 
ATOM     32  O   UNL     1      -4.540  13.942  23.328  0.00  0.00    +0.000 OA
BRANCH  31  33
ATOM     33  O   UNL     1      -4.188  12.611  21.541  0.00  0.00    +0.000 OA
ATOM     34  H   UNL     1      -5.020  12.955  21.160  0.00  0.00    +0.000 HD
ENDBRANCH  31  33
ENDBRANCH  30  31
ENDBRANCH  29  30
ENDBRANCH   1  29
TORSDOF 7
ENDMDL
MODEL 2
REMARK VINA RESULT:      -8.1      3.347     10.785
REMARK  Name = 
REMARK  8 active torsions:
REMARK  status: ('A' for Active; 'I' for Inactive)
REMARK    1  A    between atoms: C_1  and  C_2
REMARK    2  A    between atoms: C_2  and  C_3
REMARK    3  A    between atoms: C_2  and  N_7
REMARK    4  A    between atoms: C_3  and  C_4
REMARK    5  A    between atoms: C_4  and  O_6
REMARK    6  A    between atoms: C_12  and  N_13
REMARK    7  A    between atoms: C_14  and  C_16
REMARK    8  A    between atoms: C_20  and  N_21
REMARK                            x       y       z     vdW  Elec       q    Type
REMARK                         _______ _______ _______ _____ _____    ______ ____
ROOT
ATOM      1  N   UNL     1       5.293   5.028  15.854  0.00  0.00    +0.000 N 
ATOM      2  C   UNL     1       4.813   3.910  16.666  0.00  0.00    +0.000 C 
ATOM      3  C   UNL     1       3.969   4.591  17.688  0.00  0.00    +0.000 A 
ATOM      4  C   UNL     1       3.246   4.056  18.731  0.00  0.00    +0.000 A 
ATOM      5  C   UNL     1       2.536   4.933  19.565  0.00  0.00    +0.000 A 
ATOM      6  C   UNL     1       2.564   6.332  19.371  0.00  0.00    +0.000 A 
ATOM      7  C   UNL     1       3.275   6.858  18.290  0.00  0.00    +0.000 A 
ATOM      8  C   UNL     1       3.973   5.965  17.487  0.00  0.00    +0.000 A 
ATOM      9  C   UNL     1       4.829   6.247  16.334  0.00  0.00    +0.000 C 
ATOM     10  O   UNL     1       5.057   7.365  15.906  0.00  0.00    +0.000 OA
ENDROOT
BRANCH   6  11
ATOM     11  N   UNL     1       1.894   7.233  20.243  0.00  0.00    +0.000 N 
ATOM     12  C   UNL     1       1.422   8.484  19.856  0.00  0.00    +0.000 C 
ATOM     13  O   UNL     1       1.459   8.936  18.718  0.00  0.00    +0.000 OA
ATOM     14  H   UNL     1       1.597   6.875  21.138  0.00  0.00    +0.000 HD
BRANCH  12  15
ATOM     15  C   UNL     1       0.763   9.322  20.890  0.00  0.00    +0.000 A 
ATOM     16  C   UNL     1       0.885   8.900  22.217  0.00  0.00    +0.000 A 
ATOM     17  C   UNL     1       0.182   9.548  23.220  0.00  0.00    +0.000 A 
ATOM     18  C   UNL     1      -0.646  10.621  22.895  0.00  0.00    +0.000 A 
ATOM     19  C   UNL     1      -0.794  11.081  21.574  0.00  0.00    +0.000 A 
ATOM     20  C   UNL     1      -0.062  10.411  20.575  0.00  0.00    +0.000 A 
BRANCH  19  21
ATOM     21  N   UNL     1      -1.641  12.131  21.286  0.00  0.00    +0.000 N 
ATOM     22  C   UNL     1      -2.035  12.506  19.922  0.00  0.00    +0.000 C 
ATOM     23  C   UNL     1      -3.567  12.415  19.763  0.00  0.00    +0.000 C 
ATOM     24  N   UNL     1      -4.302  13.212  20.764  0.00  0.00    +0.000 NA
ATOM     25  C   UNL     1      -3.875  12.809  22.119  0.00  0.00    +0.000 C 
ATOM     26  C   UNL     1      -2.345  12.882  22.342  0.00  0.00    +0.000 C 
ATOM     27  H   UNL     1      -5.301  13.033  20.665  0.00  0.00    +0.000 HD
ENDBRANCH  19  21
ENDBRANCH  12  15
ENDBRANCH   6  11
BRANCH   1  29
ATOM     28  C   UNL     1       7.681   5.132  15.107  0.00  0.00    +0.000 C 
ATOM     29  C   UNL     1       6.218   4.886  14.711  0.00  0.00    +0.000 C 
BRANCH  29  30
ATOM     30  C   UNL     1       6.040   3.512  14.047  0.00  0.00    +0.000 C 
BRANCH  30  31
ATOM     31  C   UNL     1       5.923   3.600  12.550  0.00  0.00    +0.000 C 
ATOM     32  O   UNL     1       4.904   3.332  11.933  0.00  0.00    +0.000 OA
BRANCH  31  33
ATOM     33  O   UNL     1       7.064   3.982  11.935  0.00  0.00    +0.000 OA
ATOM     34  H   UNL     1       7.036   4.886  11.563  0.00  0.00    +0.000 HD
ENDBRANCH  31  33
ENDBRANCH  30  31
ENDBRANCH  29  30
ENDBRANCH   1  29
TORSDOF 7
ENDMDL
MODEL 3
REMARK VINA RESULT:      -8.1      2.108      2.649
REMARK  Name = 
REMARK  8 active torsions:
REMARK  status: ('A' for Active; 'I' for Inactive)
REMARK    1  A    between atoms: C_1  and  C_2
REMARK    2  A    between atoms: C_2  and  C_3
REMARK    3  A    between atoms: C_2  and  N_7
REMARK    4  A    between atoms: C_3  and  C_4
REMARK    5  A    between atoms: C_4  and  O_6
REMARK    6  A    between atoms: C_12  and  N_13
REMARK    7  A    between atoms: C_14  and  C_16
REMARK    8  A    between atoms: C_20  and  N_21
REMARK                            x       y       z     vdW  Elec       q    Type
REMARK                         _______ _______ _______ _____ _____    ______ ____
ROOT
ATOM      1  N   UNL     1      -0.622  12.222  20.798  0.00  0.00    +0.000 N 
ATOM      2  C   UNL     1      -0.315  11.553  22.062  0.00  0.00    +0.000 C 
ATOM      3  C   UNL     1       0.389  10.319  21.614  0.00  0.00    +0.000 A 
ATOM      4  C   UNL     1       0.924   9.291  22.357  0.00  0.00    +0.000 A 
ATOM      5  C   UNL     1       1.531   8.225  21.676  0.00  0.00    +0.000 A 
ATOM      6  C   UNL     1       1.587   8.178  20.264  0.00  0.00    +0.000 A 
ATOM      7  C   UNL     1       1.069   9.244  19.524  0.00  0.00    +0.000 A 
ATOM      8  C   UNL     1       0.469  10.280  20.228  0.00  0.00    +0.000 A 
ATOM      9  C   UNL     1      -0.191  11.478  19.706  0.00  0.00    +0.000 C 
ATOM     10  O   UNL     1      -0.307  11.737  18.521  0.00  0.00    +0.000 OA
ENDROOT
BRANCH   6  11
ATOM     11  N   UNL     1       2.150   7.077  19.563  0.00  0.00    +0.000 N 
ATOM     12  C   UNL     1       1.868   5.745  19.854  0.00  0.00    +0.000 C 
ATOM     13  O   UNL     1       1.062   5.355  20.689  0.00  0.00    +0.000 OA
ATOM     14  H   UNL     1       2.640   7.277  18.706  0.00  0.00    +0.000 HD
BRANCH  12  15
ATOM     15  C   UNL     1       2.554   4.704  19.046  0.00  0.00    +0.000 A 
ATOM     16  C   UNL     1       2.030   3.409  19.111  0.00  0.00    +0.000 A 
ATOM     17  C   UNL     1       2.697   2.359  18.500  0.00  0.00    +0.000 A 
ATOM     18  C   UNL     1       3.891   2.604  17.823  0.00  0.00    +0.000 A 
ATOM     19  C   UNL     1       4.450   3.892  17.730  0.00  0.00    +0.000 A 
ATOM     20  C   UNL     1       3.748   4.943  18.351  0.00  0.00    +0.000 A 
BRANCH  19  21
ATOM     21  N   UNL     1       5.645   4.094  17.072  0.00  0.00    +0.000 N 
ATOM     22  C   UNL     1       5.846   3.809  15.646  0.00  0.00    +0.000 C 
ATOM     23  C   UNL     1       6.260   5.093  14.896  0.00  0.00    +0.000 C 
ATOM     24  N   UNL     1       7.449   5.745  15.478  0.00  0.00    +0.000 NA
ATOM     25  C   UNL     1       7.210   6.010  16.911  0.00  0.00    +0.000 C 
ATOM     26  C   UNL     1       6.793   4.757  17.719  0.00  0.00    +0.000 C 
ATOM     27  H   UNL     1       7.610   6.631  15.000  0.00  0.00    +0.000 HD
ENDBRANCH  19  21
ENDBRANCH  12  15
ENDBRANCH   6  11
BRANCH   1  29
ATOM     28  C   UNL     1      -2.443  13.634  21.777  0.00  0.00    +0.000 C 
ATOM     29  C   UNL     1      -1.367  13.494  20.691  0.00  0.00    +0.000 C 
BRANCH  29  30
ATOM     30  C   UNL     1      -0.396  14.684  20.707  0.00  0.00    +0.000 C 
BRANCH  30  31
ATOM     31  C   UNL     1      -0.436  15.485  19.435  0.00  0.00    +0.000 C 
ATOM     32  O   UNL     1      -0.407  16.705  19.401  0.00  0.00    +0.000 OA
BRANCH  31  33
ATOM     33  O   UNL     1      -0.531  14.730  18.318  0.00  0.00    +0.000 OA
ATOM     34  H   UNL     1       0.316  14.600  17.848  0.00  0.00    +0.000 HD
ENDBRANCH  31  33
ENDBRANCH  30  31
ENDBRANCH  29  30
ENDBRANCH   1  29
TORSDOF 7
ENDMDL
MODEL 4
REMARK VINA RESULT:      -8.0      6.157     10.122
REMARK  Name = 
REMARK  8 active torsions:
REMARK  status: ('A' for Active; 'I' for Inactive)
REMARK    1  A    between atoms: C_1  and  C_2
REMARK    2  A    between atoms: C_2  and  C_3
REMARK    3  A    between atoms: C_2  and  N_7
REMARK    4  A    between atoms: C_3  and  C_4
REMARK    5  A    between atoms: C_4  and  O_6
REMARK    6  A    between atoms: C_12  and  N_13
REMARK    7  A    between atoms: C_14  and  C_16
REMARK    8  A    between atoms: C_20  and  N_21
REMARK                            x       y       z     vdW  Elec       q    Type
REMARK                         _______ _______ _______ _____ _____    ______ ____
ROOT
ATOM      1  N   UNL     1       4.281   4.986  17.865  0.00  0.00    +0.000 N 
ATOM      2  C   UNL     1       5.480   4.512  18.555  0.00  0.00    +0.000 C 
ATOM      3  C   UNL     1       6.398   5.681  18.451  0.00  0.00    +0.000 A 
ATOM      4  C   UNL     1       7.683   5.835  18.921  0.00  0.00    +0.000 A 
ATOM      5  C   UNL     1       8.338   7.052  18.675  0.00  0.00    +0.000 A 
ATOM      6  C   UNL     1       7.722   8.097  17.950  0.00  0.00    +0.000 A 
ATOM      7  C   UNL     1       6.406   7.937  17.507  0.00  0.00    +0.000 A 
ATOM      8  C   UNL     1       5.788   6.720  17.761  0.00  0.00    +0.000 A 
ATOM      9  C   UNL     1       4.450   6.274  17.370  0.00  0.00    +0.000 C 
ATOM     10  O   UNL     1       3.660   6.949  16.733  0.00  0.00    +0.000 OA
ENDROOT
BRANCH   6  11
ATOM     11  N   UNL     1       8.396   9.310  17.646  0.00  0.00    +0.000 N 
ATOM     12  C   UNL     1       8.991  10.129  18.601  0.00  0.00    +0.000 C 
ATOM     13  O   UNL     1       9.071   9.882  19.799  0.00  0.00    +0.000 OA
ATOM     14  H   UNL     1       8.600   9.495  16.676  0.00  0.00    +0.000 HD
BRANCH  12  15
ATOM     15  C   UNL     1       9.639  11.380  18.130  0.00  0.00    +0.000 A 
ATOM     16  C   UNL     1      11.019  11.332  17.910  0.00  0.00    +0.000 A 
ATOM     17  C   UNL     1      11.715  12.492  17.607  0.00  0.00    +0.000 A 
ATOM     18  C   UNL     1      11.029  13.703  17.526  0.00  0.00    +0.000 A 
ATOM     19  C   UNL     1       9.641  13.795  17.736  0.00  0.00    +0.000 A 
ATOM     20  C   UNL     1       8.956  12.601  18.032  0.00  0.00    +0.000 A 
BRANCH  19  21
ATOM     21  N   UNL     1       8.999  15.014  17.670  0.00  0.00    +0.000 N 
ATOM     22  C   UNL     1       7.546  15.176  17.809  0.00  0.00    +0.000 C 
ATOM     23  C   UNL     1       7.222  16.093  19.007  0.00  0.00    +0.000 C 
ATOM     24  N   UNL     1       7.896  17.403  18.933  0.00  0.00    +0.000 NA
ATOM     25  C   UNL     1       9.351  17.198  18.790  0.00  0.00    +0.000 C 
ATOM     26  C   UNL     1       9.741  16.287  17.600  0.00  0.00    +0.000 C 
ATOM     27  H   UNL     1       7.718  17.918  19.795  0.00  0.00    +0.000 HD
ENDBRANCH  19  21
ENDBRANCH  12  15
ENDBRANCH   6  11
BRANCH   1  29
ATOM     28  C   UNL     1       3.285   2.694  18.014  0.00  0.00    +0.000 C 
ATOM     29  C   UNL     1       3.068   4.170  17.653  0.00  0.00    +0.000 C 
BRANCH  29  30
ATOM     30  C   UNL     1       1.881   4.767  18.426  0.00  0.00    +0.000 C 
BRANCH  30  31
ATOM     31  C   UNL     1       1.766   4.226  19.824  0.00  0.00    +0.000 C 
ATOM     32  O   UNL     1       2.581   4.448  20.706  0.00  0.00    +0.000 OA
BRANCH  31  33
ATOM     33  O   UNL     1       0.682   3.444  20.018  0.00  0.00    +0.000 OA
ATOM     34  H   UNL     1       0.838   2.493  19.851  0.00  0.00    +0.000 HD
ENDBRANCH  31  33
ENDBRANCH  30  31
ENDBRANCH  29  30
ENDBRANCH   1  29
TORSDOF 7
ENDMDL
MODEL 5
REMARK VINA RESULT:      -8.0      2.834     10.624
REMARK  Name = 
REMARK  8 active torsions:
REMARK  status: ('A' for Active; 'I' for Inactive)
REMARK    1  A    between atoms: C_1  and  C_2
REMARK    2  A    between atoms: C_2  and  C_3
REMARK    3  A    between atoms: C_2  and  N_7
REMARK    4  A    between atoms: C_3  and  C_4
REMARK    5  A    between atoms: C_4  and  O_6
REMARK    6  A    between atoms: C_12  and  N_13
REMARK    7  A    between atoms: C_14  and  C_16
REMARK    8  A    between atoms: C_20  and  N_21
REMARK                            x       y       z     vdW  Elec       q    Type
REMARK                         _______ _______ _______ _____ _____    ______ ____
ROOT
ATOM      1  N   UNL     1       3.469   5.934  18.903  0.00  0.00    +0.000 N 
ATOM      2  C   UNL     1       3.573   6.916  17.826  0.00  0.00    +0.000 C 
ATOM      3  C   UNL     1       2.611   7.971  18.253  0.00  0.00    +0.000 A 
ATOM      4  C   UNL     1       2.276   9.157  17.640  0.00  0.00    +0.000 A 
ATOM      5  C   UNL     1       1.317   9.975  18.258  0.00  0.00    +0.000 A 
ATOM      6  C   UNL     1       0.687   9.603  19.467  0.00  0.00    +0.000 A 
ATOM      7  C   UNL     1       1.062   8.412  20.094  0.00  0.00    +0.000 A 
ATOM      8  C   UNL     1       2.007   7.622  19.453  0.00  0.00    +0.000 A 
ATOM      9  C   UNL     1       2.536   6.318  19.860  0.00  0.00    +0.000 C 
ATOM     10  O   UNL     1       2.195   5.722  20.866  0.00  0.00    +0.000 OA
ENDROOT
BRANCH   6  11
ATOM     11  N   UNL     1      -0.325  10.397  20.071  0.00  0.00    +0.000 N 
ATOM     12  C   UNL     1      -0.083  11.339  21.067  0.00  0.00    +0.000 C 
ATOM     13  O   UNL     1       1.022  11.651  21.497  0.00  0.00    +0.000 OA
ATOM     14  H   UNL     1      -1.233  10.399  19.634  0.00  0.00    +0.000 HD
BRANCH  12  15
ATOM     15  C   UNL     1      -1.249  12.075  21.618  0.00  0.00    +0.000 A 
ATOM     16  C   UNL     1      -1.142  12.532  22.935  0.00  0.00    +0.000 A 
ATOM     17  C   UNL     1      -2.239  13.101  23.564  0.00  0.00    +0.000 A 
ATOM     18  C   UNL     1      -3.445  13.212  22.875  0.00  0.00    +0.000 A 
ATOM     19  C   UNL     1      -3.594  12.770  21.548  0.00  0.00    +0.000 A 
ATOM     20  C   UNL     1      -2.463  12.204  20.929  0.00  0.00    +0.000 A 
BRANCH  19  21
ATOM     21  N   UNL     1      -4.809  12.874  20.904  0.00  0.00    +0.000 N 
ATOM     22  C   UNL     1      -5.001  12.584  19.477  0.00  0.00    +0.000 C 
ATOM     23  C   UNL     1      -6.029  11.448  19.295  0.00  0.00    +0.000 C 
ATOM     24  N   UNL     1      -7.319  11.721  19.958  0.00  0.00    +0.000 NA
ATOM     25  C   UNL     1      -7.084  12.012  21.386  0.00  0.00    +0.000 C 
ATOM     26  C   UNL     1      -6.061  13.148  21.634  0.00  0.00    +0.000 C 
ATOM     27  H   UNL     1      -7.914  10.897  19.882  0.00  0.00    +0.000 HD
ENDBRANCH  19  21
ENDBRANCH  12  15
ENDBRANCH   6  11
BRANCH   1  29
ATOM     28  C   UNL     1       3.286   3.442  18.728  0.00  0.00    +0.000 C 
ATOM     29  C   UNL     1       4.207   4.654  18.935  0.00  0.00    +0.000 C 
BRANCH  29  30
ATOM     30  C   UNL     1       5.350   4.671  17.908  0.00  0.00    +0.000 C 
BRANCH  30  31
ATOM     31  C   UNL     1       6.686   4.966  18.530  0.00  0.00    +0.000 C 
ATOM     32  O   UNL     1       7.746   4.892  17.928  0.00  0.00    +0.000 OA
BRANCH  31  33
ATOM     33  O   UNL     1       6.618   5.300  19.838  0.00  0.00    +0.000 OA
ATOM     34  H   UNL     1       6.821   4.565  20.451  0.00  0.00    +0.000 HD
ENDBRANCH  31  33
ENDBRANCH  30  31
ENDBRANCH  29  30
ENDBRANCH   1  29
TORSDOF 7
ENDMDL
MODEL 6
REMARK VINA RESULT:      -8.0      2.651     10.927
REMARK  Name = 
REMARK  8 active torsions:
REMARK  status: ('A' for Active; 'I' for Inactive)
REMARK    1  A    between atoms: C_1  and  C_2
REMARK    2  A    between atoms: C_2  and  C_3
REMARK    3  A    between atoms: C_2  and  N_7
REMARK    4  A    between atoms: C_3  and  C_4
REMARK    5  A    between atoms: C_4  and  O_6
REMARK    6  A    between atoms: C_12  and  N_13
REMARK    7  A    between atoms: C_14  and  C_16
REMARK    8  A    between atoms: C_20  and  N_21
REMARK                            x       y       z     vdW  Elec       q    Type
REMARK                         _______ _______ _______ _____ _____    ______ ____
ROOT
ATOM      1  N   UNL     1       2.773   6.858  19.041  0.00  0.00    +0.000 N 
ATOM      2  C   UNL     1       2.821   7.874  17.991  0.00  0.00    +0.000 C 
ATOM      3  C   UNL     1       1.913   8.930  18.519  0.00  0.00    +0.000 A 
ATOM      4  C   UNL     1       1.559  10.142  17.970  0.00  0.00    +0.000 A 
ATOM      5  C   UNL     1       0.663  10.956  18.680  0.00  0.00    +0.000 A 
ATOM      6  C   UNL     1       0.111  10.554  19.918  0.00  0.00    +0.000 A 
ATOM      7  C   UNL     1       0.505   9.337  20.478  0.00  0.00    +0.000 A 
ATOM      8  C   UNL     1       1.388   8.552  19.747  0.00  0.00    +0.000 A 
ATOM      9  C   UNL     1       1.917   7.226  20.072  0.00  0.00    +0.000 C 
ATOM     10  O   UNL     1       1.636   6.603  21.081  0.00  0.00    +0.000 OA
ENDROOT
BRANCH   6  11
ATOM     11  N   UNL     1      -0.839  11.345  20.618  0.00  0.00    +0.000 N 
ATOM     12  C   UNL     1      -0.502  12.334  21.538  0.00  0.00    +0.000 C 
ATOM     13  O   UNL     1       0.637  12.693  21.809  0.00  0.00    +0.000 OA
ATOM     14  H   UNL     1      -1.797  11.304  20.303  0.00  0.00    +0.000 HD
BRANCH  12  15
ATOM     15  C   UNL     1      -1.612  13.061  22.207  0.00  0.00    +0.000 A 
ATOM     16  C   UNL     1      -1.301  13.733  23.392  0.00  0.00    +0.000 A 
ATOM     17  C   UNL     1      -2.309  14.313  24.147  0.00  0.00    +0.000 A 
ATOM     18  C   UNL     1      -3.631  14.220  23.715  0.00  0.00    +0.000 A 
ATOM     19  C   UNL     1      -3.986  13.557  22.525  0.00  0.00    +0.000 A 
ATOM     20  C   UNL     1      -2.943  12.984  21.773  0.00  0.00    +0.000 A 
BRANCH  19  21
ATOM     21  N   UNL     1      -5.307  13.464  22.140  0.00  0.00    +0.000 N 
ATOM     22  C   UNL     1      -5.735  13.058  20.795  0.00  0.00    +0.000 C 
ATOM     23  C   UNL     1      -6.613  11.791  20.872  0.00  0.00    +0.000 C 
ATOM     24  N   UNL     1      -7.771  11.943  21.773  0.00  0.00    +0.000 NA
ATOM     25  C   UNL     1      -7.301  12.356  23.111  0.00  0.00    +0.000 C 
ATOM     26  C   UNL     1      -6.416  13.626  23.099  0.00  0.00    +0.000 C 
ATOM     27  H   UNL     1      -8.251  11.047  21.853  0.00  0.00    +0.000 HD
ENDBRANCH  19  21
ENDBRANCH  12  15
ENDBRANCH   6  11
BRANCH   1  29
ATOM     28  C   UNL     1       2.656   4.472  18.290  0.00  0.00    +0.000 C 
ATOM     29  C   UNL     1       3.486   5.565  18.978  0.00  0.00    +0.000 C 
BRANCH  29  30
ATOM     30  C   UNL     1       4.853   5.741  18.301  0.00  0.00    +0.000 C 
BRANCH  30  31
ATOM     31  C   UNL     1       5.940   4.944  18.967  0.00  0.00    +0.000 C 
ATOM     32  O   UNL     1       6.680   5.393  19.829  0.00  0.00    +0.000 OA
BRANCH  31  33
ATOM     33  O   UNL     1       6.047   3.677  18.508  0.00  0.00    +0.000 OA
ATOM     34  H   UNL     1       6.684   3.124  19.002  0.00  0.00    +0.000 HD
ENDBRANCH  31  33
ENDBRANCH  30  31
ENDBRANCH  29  30
ENDBRANCH   1  29
TORSDOF 7
ENDMDL
MODEL 7
REMARK VINA RESULT:      -8.0      2.767     10.437
REMARK  Name = 
REMARK  8 active torsions:
REMARK  status: ('A' for Active; 'I' for Inactive)
REMARK    1  A    between atoms: C_1  and  C_2
REMARK    2  A    between atoms: C_2  and  C_3
REMARK    3  A    between atoms: C_2  and  N_7
REMARK    4  A    between atoms: C_3  and  C_4
REMARK    5  A    between atoms: C_4  and  O_6
REMARK    6  A    between atoms: C_12  and  N_13
REMARK    7  A    between atoms: C_14  and  C_16
REMARK    8  A    between atoms: C_20  and  N_21
REMARK                            x       y       z     vdW  Elec       q    Type
REMARK                         _______ _______ _______ _____ _____    ______ ____
ROOT
ATOM      1  N   UNL     1       5.034   4.298  16.360  0.00  0.00    +0.000 N 
ATOM      2  C   UNL     1       4.626   3.301  17.349  0.00  0.00    +0.000 C 
ATOM      3  C   UNL     1       3.797   4.100  18.294  0.00  0.00    +0.000 A 
ATOM      4  C   UNL     1       3.133   3.705  19.434  0.00  0.00    +0.000 A 
ATOM      5  C   UNL     1       2.423   4.675  20.158  0.00  0.00    +0.000 A 
ATOM      6  C   UNL     1       2.392   6.030  19.758  0.00  0.00    +0.000 A 
ATOM      7  C   UNL     1       3.043   6.410  18.581  0.00  0.00    +0.000 A 
ATOM      8  C   UNL     1       3.742   5.428  17.891  0.00  0.00    +0.000 A 
ATOM      9  C   UNL     1       4.544   5.561  16.673  0.00  0.00    +0.000 C 
ATOM     10  O   UNL     1       4.714   6.608  16.074  0.00  0.00    +0.000 OA
ENDROOT
BRANCH   6  11
ATOM     11  N   UNL     1       1.724   7.030  20.514  0.00  0.00    +0.000 N 
ATOM     12  C   UNL     1       1.443   8.308  20.038  0.00  0.00    +0.000 C 
ATOM     13  O   UNL     1       1.668   8.708  18.902  0.00  0.00    +0.000 OA
ATOM     14  H   UNL     1       1.281   6.741  21.373  0.00  0.00    +0.000 HD
BRANCH  12  15
ATOM     15  C   UNL     1       0.758   9.251  20.958  0.00  0.00    +0.000 A 
ATOM     16  C   UNL     1       0.798   8.944  22.321  0.00  0.00    +0.000 A 
ATOM     17  C   UNL     1       0.064   9.697  23.225  0.00  0.00    +0.000 A 
ATOM     18  C   UNL     1      -0.712  10.758  22.764  0.00  0.00    +0.000 A 
ATOM     19  C   UNL     1      -0.777  11.105  21.401  0.00  0.00    +0.000 A 
ATOM     20  C   UNL     1      -0.015  10.330  20.506  0.00  0.00    +0.000 A 
BRANCH  19  21
ATOM     21  N   UNL     1      -1.574  12.147  20.978  0.00  0.00    +0.000 N 
ATOM     22  C   UNL     1      -1.927  12.381  19.571  0.00  0.00    +0.000 C 
ATOM     23  C   UNL     1      -3.459  12.332  19.389  0.00  0.00    +0.000 C 
ATOM     24  N   UNL     1      -4.179  13.264  20.277  0.00  0.00    +0.000 NA
ATOM     25  C   UNL     1      -3.794  13.001  21.678  0.00  0.00    +0.000 C 
ATOM     26  C   UNL     1      -2.266  13.040  21.926  0.00  0.00    +0.000 C 
ATOM     27  H   UNL     1      -5.182  13.114  20.176  0.00  0.00    +0.000 HD
ENDBRANCH  19  21
ENDBRANCH  12  15
ENDBRANCH   6  11
BRANCH   1  29
ATOM     28  C   UNL     1       5.163   4.018  13.875  0.00  0.00    +0.000 C 
ATOM     29  C   UNL     1       5.919   4.016  15.212  0.00  0.00    +0.000 C 
BRANCH  29  30
ATOM     30  C   UNL     1       7.098   5.001  15.191  0.00  0.00    +0.000 C 
BRANCH  30  31
ATOM     31  C   UNL     1       7.674   5.248  16.558  0.00  0.00    +0.000 C 
ATOM     32  O   UNL     1       8.055   4.359  17.304  0.00  0.00    +0.000 OA
BRANCH  31  33
ATOM     33  O   UNL     1       7.714   6.553  16.905  0.00  0.00    +0.000 OA
ATOM     34  H   UNL     1       8.063   7.143  16.208  0.00  0.00    +0.000 HD
ENDBRANCH  31  33
ENDBRANCH  30  31
ENDBRANCH  29  30
ENDBRANCH   1  29
TORSDOF 7
ENDMDL
MODEL 8
REMARK VINA RESULT:      -8.0      2.168      3.488
REMARK  Name = 
REMARK  8 active torsions:
REMARK  status: ('A' for Active; 'I' for Inactive)
REMARK    1  A    between atoms: C_1  and  C_2
REMARK    2  A    between atoms: C_2  and  C_3
REMARK    3  A    between atoms: C_2  and  N_7
REMARK    4  A    between atoms: C_3  and  C_4
REMARK    5  A    between atoms: C_4  and  O_6
REMARK    6  A    between atoms: C_12  and  N_13
REMARK    7  A    between atoms: C_14  and  C_16
REMARK    8  A    between atoms: C_20  and  N_21
REMARK                            x       y       z     vdW  Elec       q    Type
REMARK                         _______ _______ _______ _____ _____    ______ ____
ROOT
ATOM      1  N   UNL     1      -2.200  12.903  21.998  0.00  0.00    +0.000 N 
ATOM      2  C   UNL     1      -2.149  13.219  20.571  0.00  0.00    +0.000 C 
ATOM      3  C   UNL     1      -1.281  12.136  20.029  0.00  0.00    +0.000 A 
ATOM      4  C   UNL     1      -0.870  11.901  18.736  0.00  0.00    +0.000 A 
ATOM      5  C   UNL     1      -0.031  10.802  18.496  0.00  0.00    +0.000 A 
ATOM      6  C   UNL     1       0.407   9.956  19.540  0.00  0.00    +0.000 A 
ATOM      7  C   UNL     1      -0.044  10.188  20.842  0.00  0.00    +0.000 A 
ATOM      8  C   UNL     1      -0.867  11.288  21.048  0.00  0.00    +0.000 A 
ATOM      9  C   UNL     1      -1.434  11.784  22.303  0.00  0.00    +0.000 C 
ATOM     10  O   UNL     1      -1.246  11.270  23.392  0.00  0.00    +0.000 OA
ENDROOT
BRANCH   6  11
ATOM     11  N   UNL     1       1.301   8.875  19.317  0.00  0.00    +0.000 N 
ATOM     12  C   UNL     1       2.106   8.752  18.188  0.00  0.00    +0.000 C 
ATOM     13  O   UNL     1       2.200   9.579  17.289  0.00  0.00    +0.000 OA
ATOM     14  H   UNL     1       1.485   8.259  20.093  0.00  0.00    +0.000 HD
BRANCH  12  15
ATOM     15  C   UNL     1       2.973   7.550  18.086  0.00  0.00    +0.000 A 
ATOM     16  C   UNL     1       4.056   7.626  17.205  0.00  0.00    +0.000 A 
ATOM     17  C   UNL     1       4.824   6.500  16.950  0.00  0.00    +0.000 A 
ATOM     18  C   UNL     1       4.507   5.296  17.576  0.00  0.00    +0.000 A 
ATOM     19  C   UNL     1       3.429   5.178  18.473  0.00  0.00    +0.000 A 
ATOM     20  C   UNL     1       2.671   6.338  18.722  0.00  0.00    +0.000 A 
BRANCH  19  21
ATOM     21  N   UNL     1       3.131   3.964  19.057  0.00  0.00    +0.000 N 
ATOM     22  C   UNL     1       1.859   3.680  19.734  0.00  0.00    +0.000 C 
ATOM     23  C   UNL     1       1.140   2.499  19.048  0.00  0.00    +0.000 C 
ATOM     24  N   UNL     1       1.975   1.285  18.958  0.00  0.00    +0.000 NA
ATOM     25  C   UNL     1       3.243   1.614  18.277  0.00  0.00    +0.000 C 
ATOM     26  C   UNL     1       4.014   2.791  18.922  0.00  0.00    +0.000 C 
ATOM     27  H   UNL     1       1.480   0.580  18.414  0.00  0.00    +0.000 HD
ENDBRANCH  19  21
ENDBRANCH  12  15
ENDBRANCH   6  11
BRANCH   1  29
ATOM     28  C   UNL     1      -2.201  15.040  23.302  0.00  0.00    +0.000 C 
ATOM     29  C   UNL     1      -2.916  13.715  23.003  0.00  0.00    +0.000 C 
BRANCH  29  30
ATOM     30  C   UNL     1      -4.370  13.949  22.564  0.00  0.00    +0.000 C 
BRANCH  30  31
ATOM     31  C   UNL     1      -5.366  13.579  23.628  0.00  0.00    +0.000 C 
ATOM     32  O   UNL     1      -5.881  12.476  23.720  0.00  0.00    +0.000 OA
BRANCH  31  33
ATOM     33  O   UNL     1      -5.667  14.592  24.470  0.00  0.00    +0.000 OA
ATOM     34  H   UNL     1      -5.993  15.400  24.025  0.00  0.00    +0.000 HD
ENDBRANCH  31  33
ENDBRANCH  30  31
ENDBRANCH  29  30
ENDBRANCH   1  29
TORSDOF 7
ENDMDL
MODEL 9
REMARK VINA RESULT:      -7.9      2.810     10.913
REMARK  Name = 
REMARK  8 active torsions:
REMARK  status: ('A' for Active; 'I' for Inactive)
REMARK    1  A    between atoms: C_1  and  C_2
REMARK    2  A    between atoms: C_2  and  C_3
REMARK    3  A    between atoms: C_2  and  N_7
REMARK    4  A    between atoms: C_3  and  C_4
REMARK    5  A    between atoms: C_4  and  O_6
REMARK    6  A    between atoms: C_12  and  N_13
REMARK    7  A    between atoms: C_14  and  C_16
REMARK    8  A    between atoms: C_20  and  N_21
REMARK                            x       y       z     vdW  Elec       q    Type
REMARK                         _______ _______ _______ _____ _____    ______ ____
ROOT
ATOM      1  N   UNL     1       3.388   5.672  18.613  0.00  0.00    +0.000 N 
ATOM      2  C   UNL     1       3.322   6.732  17.608  0.00  0.00    +0.000 C 
ATOM      3  C   UNL     1       2.517   7.781  18.294  0.00  0.00    +0.000 A 
ATOM      4  C   UNL     1       2.123   9.022  17.847  0.00  0.00    +0.000 A 
ATOM      5  C   UNL     1       1.349   9.821  18.702  0.00  0.00    +0.000 A 
ATOM      6  C   UNL     1       0.957   9.377  19.986  0.00  0.00    +0.000 A 
ATOM      7  C   UNL     1       1.393   8.129  20.439  0.00  0.00    +0.000 A 
ATOM      8  C   UNL     1       2.151   7.360  19.566  0.00  0.00    +0.000 A 
ATOM      9  C   UNL     1       2.686   6.012  19.764  0.00  0.00    +0.000 C 
ATOM     10  O   UNL     1       2.526   5.351  20.775  0.00  0.00    +0.000 OA
ENDROOT
BRANCH   6  11
ATOM     11  N   UNL     1       0.127  10.154  20.837  0.00  0.00    +0.000 N 
ATOM     12  C   UNL     1       0.460  11.425  21.300  0.00  0.00    +0.000 C 
ATOM     13  O   UNL     1       1.462  12.055  20.984  0.00  0.00    +0.000 OA
ATOM     14  H   UNL     1      -0.822   9.840  20.971  0.00  0.00    +0.000 HD
BRANCH  12  15
ATOM     15  C   UNL     1      -0.503  12.104  22.204  0.00  0.00    +0.000 A 
ATOM     16  C   UNL     1      -1.580  11.341  22.666  0.00  0.00    +0.000 A 
ATOM     17  C   UNL     1      -2.594  11.942  23.396  0.00  0.00    +0.000 A 
ATOM     18  C   UNL     1      -2.530  13.308  23.665  0.00  0.00    +0.000 A 
ATOM     19  C   UNL     1      -1.462  14.111  23.224  0.00  0.00    +0.000 A 
ATOM     20  C   UNL     1      -0.441  13.474  22.492  0.00  0.00    +0.000 A 
BRANCH  19  21
ATOM     21  N   UNL     1      -1.443  15.464  23.488  0.00  0.00    +0.000 N 
ATOM     22  C   UNL     1      -1.203  16.488  22.463  0.00  0.00    +0.000 C 
ATOM     23  C   UNL     1      -2.411  17.445  22.369  0.00  0.00    +0.000 C 
ATOM     24  N   UNL     1      -2.764  18.062  23.663  0.00  0.00    +0.000 NA
ATOM     25  C   UNL     1      -2.992  17.001  24.665  0.00  0.00    +0.000 C 
ATOM     26  C   UNL     1      -1.812  16.010  24.807  0.00  0.00    +0.000 C 
ATOM     27  H   UNL     1      -3.621  18.602  23.551  0.00  0.00    +0.000 HD
ENDBRANCH  19  21
ENDBRANCH  12  15
ENDBRANCH   6  11
BRANCH   1  29
ATOM     28  C   UNL     1       3.150   3.357  17.688  0.00  0.00    +0.000 C 
ATOM     29  C   UNL     1       4.055   4.370  18.405  0.00  0.00    +0.000 C 
BRANCH  29  30
ATOM     30  C   UNL     1       5.382   4.564  17.656  0.00  0.00    +0.000 C 
BRANCH  30  31
ATOM     31  C   UNL     1       6.554   4.734  18.582  0.00  0.00    +0.000 C 
ATOM     32  O   UNL     1       6.471   5.224  19.698  0.00  0.00    +0.000 OA
BRANCH  31  33
ATOM     33  O   UNL     1       7.728   4.316  18.060  0.00  0.00    +0.000 OA
ATOM     34  H   UNL     1       8.514   4.766  18.430  0.00  0.00    +0.000 HD
ENDBRANCH  31  33
ENDBRANCH  30  31
ENDBRANCH  29  30
ENDBRANCH   1  29
TORSDOF 7
ENDMDL
