MODEL 1
REMARK VINA RESULT:      -7.1      0.000      0.000
REMARK  Name = 
REMARK  11 active torsions:
REMARK  status: ('A' for Active; 'I' for Inactive)
REMARK    1  A    between atoms: C_1  and  C_2
REMARK    2  A    between atoms: C_2  and  C_3
REMARK    3  A    between atoms: C_3  and  N_4
REMARK    4  A    between atoms: C_6  and  N_7
REMARK    5  A    between atoms: N_7  and  S_8
REMARK    6  A    between atoms: S_8  and  N_11
REMARK    7  A    between atoms: N_11  and  C_12
REMARK    8  A    between atoms: N_11  and  C_14
REMARK    9  A    between atoms: C_12  and  C_13
REMARK   10  A    between atoms: C_14  and  C_15
REMARK   11  A    between atoms: C_20  and  O_21
REMARK                            x       y       z     vdW  Elec       q    Type
REMARK                         _______ _______ _______ _____ _____    ______ ____
ROOT
ATOM      1  N   UNL     1       0.873   8.711  20.727  0.00  0.00    +0.000 NA
ATOM      2  C   UNL     1       1.419   9.764  19.793  0.00  0.00    +0.000 C 
ATOM      3  C   UNL     1       1.061   9.267  18.423  0.00  0.00    +0.000 C 
ATOM      4  C   UNL     1       2.340   8.678  17.944  0.00  0.00    +0.000 C 
ATOM      5  C   UNL     1       2.307   7.404  18.801  0.00  0.00    +0.000 C 
ATOM      6  C   UNL     1       3.519   6.520  18.639  0.00  0.00    +0.000 C 
ATOM      7  C   UNL     1       2.942   5.139  18.532  0.00  0.00    +0.000 A 
ATOM      8  C   UNL     1       3.340   4.263  17.508  0.00  0.00    +0.000 A 
ATOM      9  C   UNL     1       2.775   3.011  17.363  0.00  0.00    +0.000 A 
ATOM     10  C   UNL     1       1.771   2.631  18.252  0.00  0.00    +0.000 A 
ATOM     11  C   UNL     1       1.323   3.520  19.267  0.00  0.00    +0.000 A 
ATOM     12  C   UNL     1       1.880   4.800  19.427  0.00  0.00    +0.000 A 
ATOM     13  C   UNL     1       1.226   5.881  20.421  0.00  0.00    +0.000 C 
ATOM     14  C   UNL     1       1.798   7.430  20.369  0.00  0.00    +0.000 C 
ENDROOT
BRANCH   3  15
ATOM     15  N   UNL     1       0.212  10.157  17.623  0.00  0.00    +0.000 NA
ATOM     16  H   UNL     1      -0.155   9.640  16.824  0.00  0.00    +0.000 HD
BRANCH  15  17
ATOM     17  S   UNL     1      -1.194  10.485  18.578  0.00  0.00    +0.000 S 
ATOM     18  O   UNL     1      -1.667   9.239  19.156  0.00  0.00    +0.000 OA
ATOM     19  O   UNL     1      -0.935  11.647  19.415  0.00  0.00    +0.000 OA
BRANCH  17  20
ATOM     20  N   UNL     1      -2.243  10.921  17.366  0.00  0.00    +0.000 NA
BRANCH  20  21
ATOM     21  C   UNL     1      -2.497   9.827  16.386  0.00  0.00    +0.000 C 
ATOM     22  C   UNL     1      -2.834  10.337  14.999  0.00  0.00    +0.000 C 
ENDBRANCH  20  21
BRANCH  20  23
ATOM     23  C   UNL     1      -3.418  11.672  17.868  0.00  0.00    +0.000 C 
ATOM     24  C   UNL     1      -4.641  10.794  18.016  0.00  0.00    +0.000 C 
ENDBRANCH  20  23
ENDBRANCH  17  20
ENDBRANCH  15  17
ENDBRANCH   3  15
BRANCH   8  25
ATOM     25  O   UNL     1       4.268   4.585  16.554  0.00  0.00    +0.000 OA
ATOM     26  H   UNL     1       4.453   3.772  16.034  0.00  0.00    +0.000 HD
ENDBRANCH   8  25
BRANCH   1  27
ATOM     27  C   UNL     1       0.894   9.528  22.029  0.00  0.00    +0.000 C 
BRANCH  27  29
ATOM     28  C   UNL     1      -1.145  10.799  23.110  0.00  0.00    +0.000 C 
ATOM     29  C   UNL     1      -0.110   9.701  23.233  0.00  0.00    +0.000 C 
ENDBRANCH  27  29
ENDBRANCH   1  27
TORSDOF 8
ENDMDL
MODEL 2
REMARK VINA RESULT:      -6.7      1.111      1.744
REMARK  Name = 
REMARK  11 active torsions:
REMARK  status: ('A' for Active; 'I' for Inactive)
REMARK    1  A    between atoms: C_1  and  C_2
REMARK    2  A    between atoms: C_2  and  C_3
REMARK    3  A    between atoms: C_3  and  N_4
REMARK    4  A    between atoms: C_6  and  N_7
REMARK    5  A    between atoms: N_7  and  S_8
REMARK    6  A    between atoms: S_8  and  N_11
REMARK    7  A    between atoms: N_11  and  C_12
REMARK    8  A    between atoms: N_11  and  C_14
REMARK    9  A    between atoms: C_12  and  C_13
REMARK   10  A    between atoms: C_14  and  C_15
REMARK   11  A    between atoms: C_20  and  O_21
REMARK                            x       y       z     vdW  Elec       q    Type
REMARK                         _______ _______ _______ _____ _____    ______ ____
ROOT
ATOM      1  N   UNL     1       0.517   9.881  20.511  0.00  0.00    +0.000 NA
ATOM      2  C   UNL     1       0.825  10.630  19.237  0.00  0.00    +0.000 C 
ATOM      3  C   UNL     1       0.327   9.728  18.147  0.00  0.00    +0.000 C 
ATOM      4  C   UNL     1       1.575   9.083  17.658  0.00  0.00    +0.000 C 
ATOM      5  C   UNL     1       1.782   8.126  18.841  0.00  0.00    +0.000 C 
ATOM      6  C   UNL     1       3.037   7.293  18.747  0.00  0.00    +0.000 C 
ATOM      7  C   UNL     1       2.583   5.918  19.139  0.00  0.00    +0.000 A 
ATOM      8  C   UNL     1       2.913   4.794  18.362  0.00  0.00    +0.000 A 
ATOM      9  C   UNL     1       2.453   3.531  18.679  0.00  0.00    +0.000 A 
ATOM     10  C   UNL     1       1.624   3.388  19.791  0.00  0.00    +0.000 A 
ATOM     11  C   UNL     1       1.242   4.519  20.564  0.00  0.00    +0.000 A 
ATOM     12  C   UNL     1       1.694   5.813  20.254  0.00  0.00    +0.000 A 
ATOM     13  C   UNL     1       1.087   7.110  20.985  0.00  0.00    +0.000 C 
ATOM     14  C   UNL     1       1.499   8.598  20.395  0.00  0.00    +0.000 C 
ENDROOT
BRANCH   3  15
ATOM     15  N   UNL     1      -0.706  10.294  17.272  0.00  0.00    +0.000 NA
ATOM     16  H   UNL     1      -0.986   9.593  16.586  0.00  0.00    +0.000 HD
BRANCH  15  17
ATOM     17  S   UNL     1      -2.121  10.496  18.248  0.00  0.00    +0.000 S 
ATOM     18  O   UNL     1      -2.219   9.374  19.166  0.00  0.00    +0.000 OA
ATOM     19  O   UNL     1      -2.166  11.867  18.736  0.00  0.00    +0.000 OA
BRANCH  17  20
ATOM     20  N   UNL     1      -3.283  10.305  17.076  0.00  0.00    +0.000 NA
BRANCH  20  21
ATOM     21  C   UNL     1      -4.206  11.470  16.965  0.00  0.00    +0.000 C 
ATOM     22  C   UNL     1      -5.521  11.258  17.688  0.00  0.00    +0.000 C 
ENDBRANCH  20  21
BRANCH  20  23
ATOM     23  C   UNL     1      -2.737   9.746  15.816  0.00  0.00    +0.000 C 
ATOM     24  C   UNL     1      -3.369  10.368  14.590  0.00  0.00    +0.000 C 
ENDBRANCH  20  23
ENDBRANCH  17  20
ENDBRANCH  15  17
ENDBRANCH   3  15
BRANCH   8  25
ATOM     25  O   UNL     1       3.664   4.859  17.219  0.00  0.00    +0.000 OA
ATOM     26  H   UNL     1       3.390   4.112  16.642  0.00  0.00    +0.000 HD
ENDBRANCH   8  25
BRANCH   1  27
ATOM     27  C   UNL     1       0.644  11.052  21.500  0.00  0.00    +0.000 C 
BRANCH  27  29
ATOM     28  C   UNL     1      -1.481  11.632  22.945  0.00  0.00    +0.000 C 
ATOM     29  C   UNL     1      -0.360  12.131  22.058  0.00  0.00    +0.000 C 
ENDBRANCH  27  29
ENDBRANCH   1  27
TORSDOF 8
ENDMDL
MODEL 3
REMARK VINA RESULT:      -6.5      1.183      1.405
REMARK  Name = 
REMARK  11 active torsions:
REMARK  status: ('A' for Active; 'I' for Inactive)
REMARK    1  A    between atoms: C_1  and  C_2
REMARK    2  A    between atoms: C_2  and  C_3
REMARK    3  A    between atoms: C_3  and  N_4
REMARK    4  A    between atoms: C_6  and  N_7
REMARK    5  A    between atoms: N_7  and  S_8
REMARK    6  A    between atoms: S_8  and  N_11
REMARK    7  A    between atoms: N_11  and  C_12
REMARK    8  A    between atoms: N_11  and  C_14
REMARK    9  A    between atoms: C_12  and  C_13
REMARK   10  A    between atoms: C_14  and  C_15
REMARK   11  A    between atoms: C_20  and  O_21
REMARK                            x       y       z     vdW  Elec       q    Type
REMARK                         _______ _______ _______ _____ _____    ______ ____
ROOT
ATOM      1  N   UNL     1       0.187   9.917  20.708  0.00  0.00    +0.000 NA
ATOM      2  C   UNL     1       0.590  10.784  19.540  0.00  0.00    +0.000 C 
ATOM      3  C   UNL     1       0.212   9.979  18.332  0.00  0.00    +0.000 C 
ATOM      4  C   UNL     1       1.512   9.400  17.902  0.00  0.00    +0.000 C 
ATOM      5  C   UNL     1       1.635   8.341  19.008  0.00  0.00    +0.000 C 
ATOM      6  C   UNL     1       2.913   7.539  18.954  0.00  0.00    +0.000 C 
ATOM      7  C   UNL     1       2.456   6.127  19.178  0.00  0.00    +0.000 A 
ATOM      8  C   UNL     1       2.880   5.084  18.336  0.00  0.00    +0.000 A 
ATOM      9  C   UNL     1       2.423   3.791  18.495  0.00  0.00    +0.000 A 
ATOM     10  C   UNL     1       1.502   3.534  19.510  0.00  0.00    +0.000 A 
ATOM     11  C   UNL     1       1.026   4.584  20.344  0.00  0.00    +0.000 A 
ATOM     12  C   UNL     1       1.474   5.907  20.194  0.00  0.00    +0.000 A 
ATOM     13  C   UNL     1       0.776   7.123  20.980  0.00  0.00    +0.000 C 
ATOM     14  C   UNL     1       1.205   8.664  20.566  0.00  0.00    +0.000 C 
ENDROOT
BRANCH   3  15
ATOM     15  N   UNL     1      -0.752  10.608  17.422  0.00  0.00    +0.000 NA
ATOM     16  H   UNL     1      -0.929   9.982  16.636  0.00  0.00    +0.000 HD
BRANCH  15  17
ATOM     17  S   UNL     1      -2.266  10.648  18.260  0.00  0.00    +0.000 S 
ATOM     18  O   UNL     1      -2.675   9.284  18.550  0.00  0.00    +0.000 OA
ATOM     19  O   UNL     1      -2.195  11.648  19.315  0.00  0.00    +0.000 OA
BRANCH  17  20
ATOM     20  N   UNL     1      -3.231  11.225  17.037  0.00  0.00    +0.000 NA
BRANCH  20  21
ATOM     21  C   UNL     1      -2.677  10.968  15.678  0.00  0.00    +0.000 C 
ATOM     22  C   UNL     1      -3.536  10.031  14.853  0.00  0.00    +0.000 C 
ENDBRANCH  20  21
BRANCH  20  23
ATOM     23  C   UNL     1      -4.667  10.930  17.254  0.00  0.00    +0.000 C 
ATOM     24  C   UNL     1      -5.520  12.179  17.236  0.00  0.00    +0.000 C 
ENDBRANCH  20  23
ENDBRANCH  17  20
ENDBRANCH  15  17
ENDBRANCH   3  15
BRANCH   8  25
ATOM     25  O   UNL     1       3.728   5.264  17.276  0.00  0.00    +0.000 OA
ATOM     26  H   UNL     1       3.928   4.377  16.903  0.00  0.00    +0.000 HD
ENDBRANCH   8  25
BRANCH   1  27
ATOM     27  C   UNL     1       0.200  10.993  21.806  0.00  0.00    +0.000 C 
BRANCH  27  29
ATOM     28  C   UNL     1      -1.263  13.023  22.632  0.00  0.00    +0.000 C 
ATOM     29  C   UNL     1      -0.887  11.566  22.795  0.00  0.00    +0.000 C 
ENDBRANCH  27  29
ENDBRANCH   1  27
TORSDOF 8
ENDMDL
MODEL 4
REMARK VINA RESULT:      -6.5      1.214      1.433
REMARK  Name = 
REMARK  11 active torsions:
REMARK  status: ('A' for Active; 'I' for Inactive)
REMARK    1  A    between atoms: C_1  and  C_2
REMARK    2  A    between atoms: C_2  and  C_3
REMARK    3  A    between atoms: C_3  and  N_4
REMARK    4  A    between atoms: C_6  and  N_7
REMARK    5  A    between atoms: N_7  and  S_8
REMARK    6  A    between atoms: S_8  and  N_11
REMARK    7  A    between atoms: N_11  and  C_12
REMARK    8  A    between atoms: N_11  and  C_14
REMARK    9  A    between atoms: C_12  and  C_13
REMARK   10  A    between atoms: C_14  and  C_15
REMARK   11  A    between atoms: C_20  and  O_21
REMARK                            x       y       z     vdW  Elec       q    Type
REMARK                         _______ _______ _______ _____ _____    ______ ____
ROOT
ATOM      1  N   UNL     1       1.098   8.274  20.933  0.00  0.00    +0.000 NA
ATOM      2  C   UNL     1       1.725   9.304  20.024  0.00  0.00    +0.000 C 
ATOM      3  C   UNL     1       1.340   8.863  18.643  0.00  0.00    +0.000 C 
ATOM      4  C   UNL     1       2.575   8.192  18.156  0.00  0.00    +0.000 C 
ATOM      5  C   UNL     1       2.443   6.906  18.986  0.00  0.00    +0.000 C 
ATOM      6  C   UNL     1       3.588   5.939  18.810  0.00  0.00    +0.000 C 
ATOM      7  C   UNL     1       2.912   4.607  18.671  0.00  0.00    +0.000 A 
ATOM      8  C   UNL     1       3.250   3.725  17.629  0.00  0.00    +0.000 A 
ATOM      9  C   UNL     1       2.596   2.522  17.455  0.00  0.00    +0.000 A 
ATOM     10  C   UNL     1       1.561   2.198  18.332  0.00  0.00    +0.000 A 
ATOM     11  C   UNL     1       1.174   3.096  19.364  0.00  0.00    +0.000 A 
ATOM     12  C   UNL     1       1.823   4.328  19.554  0.00  0.00    +0.000 A 
ATOM     13  C   UNL     1       1.244   5.433  20.568  0.00  0.00    +0.000 C 
ATOM     14  C   UNL     1       1.929   6.936  20.552  0.00  0.00    +0.000 C 
ENDROOT
BRANCH   3  15
ATOM     15  N   UNL     1       0.563   9.830  17.858  0.00  0.00    +0.000 NA
ATOM     16  H   UNL     1      -0.214   9.347  17.407  0.00  0.00    +0.000 HD
BRANCH  15  17
ATOM     17  S   UNL     1      -0.213  10.878  18.998  0.00  0.00    +0.000 S 
ATOM     18  O   UNL     1      -1.271  10.139  19.665  0.00  0.00    +0.000 OA
ATOM     19  O   UNL     1       0.807  11.580  19.762  0.00  0.00    +0.000 OA
BRANCH  17  20
ATOM     20  N   UNL     1      -0.919  11.945  17.938  0.00  0.00    +0.000 NA
BRANCH  20  21
ATOM     21  C   UNL     1      -2.352  11.639  17.662  0.00  0.00    +0.000 C 
ATOM     22  C   UNL     1      -2.569  10.967  16.321  0.00  0.00    +0.000 C 
ENDBRANCH  20  21
BRANCH  20  23
ATOM     23  C   UNL     1      -0.568  13.355  18.227  0.00  0.00    +0.000 C 
ATOM     24  C   UNL     1      -1.250  13.874  19.473  0.00  0.00    +0.000 C 
ENDBRANCH  20  23
ENDBRANCH  17  20
ENDBRANCH  15  17
ENDBRANCH   3  15
BRANCH   8  25
ATOM     25  O   UNL     1       4.205   3.998  16.687  0.00  0.00    +0.000 OA
ATOM     26  H   UNL     1       4.095   4.936  16.416  0.00  0.00    +0.000 HD
ENDBRANCH   8  25
BRANCH   1  27
ATOM     27  C   UNL     1       1.172   9.059  22.253  0.00  0.00    +0.000 C 
BRANCH  27  29
ATOM     28  C   UNL     1      -0.795  10.648  22.992  0.00  0.00    +0.000 C 
ATOM     29  C   UNL     1       0.110   9.485  23.338  0.00  0.00    +0.000 C 
ENDBRANCH  27  29
ENDBRANCH   1  27
TORSDOF 8
ENDMDL
MODEL 5
REMARK VINA RESULT:      -6.4      3.759      7.642
REMARK  Name = 
REMARK  11 active torsions:
REMARK  status: ('A' for Active; 'I' for Inactive)
REMARK    1  A    between atoms: C_1  and  C_2
REMARK    2  A    between atoms: C_2  and  C_3
REMARK    3  A    between atoms: C_3  and  N_4
REMARK    4  A    between atoms: C_6  and  N_7
REMARK    5  A    between atoms: N_7  and  S_8
REMARK    6  A    between atoms: S_8  and  N_11
REMARK    7  A    between atoms: N_11  and  C_12
REMARK    8  A    between atoms: N_11  and  C_14
REMARK    9  A    between atoms: C_12  and  C_13
REMARK   10  A    between atoms: C_14  and  C_15
REMARK   11  A    between atoms: C_20  and  O_21
REMARK                            x       y       z     vdW  Elec       q    Type
REMARK                         _______ _______ _______ _____ _____    ______ ____
ROOT
ATOM      1  N   UNL     1       1.828   5.564  20.244  0.00  0.00    +0.000 NA
ATOM      2  C   UNL     1       2.766   5.160  19.132  0.00  0.00    +0.000 C 
ATOM      3  C   UNL     1       3.872   6.172  19.193  0.00  0.00    +0.000 C 
ATOM      4  C   UNL     1       3.523   7.105  18.088  0.00  0.00    +0.000 C 
ATOM      5  C   UNL     1       2.355   7.815  18.787  0.00  0.00    +0.000 C 
ATOM      6  C   UNL     1       1.662   8.849  17.933  0.00  0.00    +0.000 C 
ATOM      7  C   UNL     1       1.483  10.016  18.859  0.00  0.00    +0.000 A 
ATOM      8  C   UNL     1       1.848  11.316  18.469  0.00  0.00    +0.000 A 
ATOM      9  C   UNL     1       1.743  12.389  19.331  0.00  0.00    +0.000 A 
ATOM     10  C   UNL     1       1.279  12.156  20.625  0.00  0.00    +0.000 A 
ATOM     11  C   UNL     1       0.948  10.841  21.054  0.00  0.00    +0.000 A 
ATOM     12  C   UNL     1       1.054   9.735  20.194  0.00  0.00    +0.000 A 
ATOM     13  C   UNL     1       0.896   8.231  20.739  0.00  0.00    +0.000 C 
ATOM     14  C   UNL     1       1.271   6.990  19.715  0.00  0.00    +0.000 C 
ENDROOT
BRANCH   3  15
ATOM     15  N   UNL     1       5.217   5.635  19.425  0.00  0.00    +0.000 NA
ATOM     16  H   UNL     1       5.177   4.941  20.171  0.00  0.00    +0.000 HD
BRANCH  15  17
ATOM     17  S   UNL     1       5.624   4.704  18.023  0.00  0.00    +0.000 S 
ATOM     18  O   UNL     1       6.840   3.957  18.296  0.00  0.00    +0.000 OA
ATOM     19  O   UNL     1       4.427   4.033  17.539  0.00  0.00    +0.000 OA
BRANCH  17  20
ATOM     20  N   UNL     1       6.003   5.942  16.982  0.00  0.00    +0.000 NA
BRANCH  20  21
ATOM     21  C   UNL     1       7.383   6.472  17.175  0.00  0.00    +0.000 C 
ATOM     22  C   UNL     1       7.410   7.946  17.523  0.00  0.00    +0.000 C 
ENDBRANCH  20  21
BRANCH  20  23
ATOM     23  C   UNL     1       5.564   5.676  15.592  0.00  0.00    +0.000 C 
ATOM     24  C   UNL     1       6.610   4.931  14.792  0.00  0.00    +0.000 C 
ENDBRANCH  20  23
ENDBRANCH  17  20
ENDBRANCH  15  17
ENDBRANCH   3  15
BRANCH   8  25
ATOM     25  O   UNL     1       2.375  11.618  17.242  0.00  0.00    +0.000 OA
ATOM     26  H   UNL     1       3.235  12.068  17.391  0.00  0.00    +0.000 HD
ENDBRANCH   8  25
BRANCH   1  27
ATOM     27  C   UNL     1       1.036   4.252  20.362  0.00  0.00    +0.000 C 
BRANCH  27  29
ATOM     28  C   UNL     1       2.663   2.612  21.629  0.00  0.00    +0.000 C 
ATOM     29  C   UNL     1       1.257   2.903  21.148  0.00  0.00    +0.000 C 
ENDBRANCH  27  29
ENDBRANCH   1  27
TORSDOF 8
ENDMDL
MODEL 6
REMARK VINA RESULT:      -6.4      1.368      1.835
REMARK  Name = 
REMARK  11 active torsions:
REMARK  status: ('A' for Active; 'I' for Inactive)
REMARK    1  A    between atoms: C_1  and  C_2
REMARK    2  A    between atoms: C_2  and  C_3
REMARK    3  A    between atoms: C_3  and  N_4
REMARK    4  A    between atoms: C_6  and  N_7
REMARK    5  A    between atoms: N_7  and  S_8
REMARK    6  A    between atoms: S_8  and  N_11
REMARK    7  A    between atoms: N_11  and  C_12
REMARK    8  A    between atoms: N_11  and  C_14
REMARK    9  A    between atoms: C_12  and  C_13
REMARK   10  A    between atoms: C_14  and  C_15
REMARK   11  A    between atoms: C_20  and  O_21
REMARK                            x       y       z     vdW  Elec       q    Type
REMARK                         _______ _______ _______ _____ _____    ______ ____
ROOT
ATOM      1  N   UNL     1       1.004   8.671  20.806  0.00  0.00    +0.000 NA
ATOM      2  C   UNL     1       1.676   9.690  19.917  0.00  0.00    +0.000 C 
ATOM      3  C   UNL     1       1.340   9.246  18.524  0.00  0.00    +0.000 C 
ATOM      4  C   UNL     1       2.586   8.560  18.089  0.00  0.00    +0.000 C 
ATOM      5  C   UNL     1       2.410   7.280  18.919  0.00  0.00    +0.000 C 
ATOM      6  C   UNL     1       3.551   6.301  18.793  0.00  0.00    +0.000 C 
ATOM      7  C   UNL     1       2.867   4.974  18.634  0.00  0.00    +0.000 A 
ATOM      8  C   UNL     1       3.237   4.084  17.612  0.00  0.00    +0.000 A 
ATOM      9  C   UNL     1       2.578   2.886  17.418  0.00  0.00    +0.000 A 
ATOM     10  C   UNL     1       1.507   2.577  18.256  0.00  0.00    +0.000 A 
ATOM     11  C   UNL     1       1.089   3.484  19.268  0.00  0.00    +0.000 A 
ATOM     12  C   UNL     1       1.742   4.711  19.476  0.00  0.00    +0.000 A 
ATOM     13  C   UNL     1       1.136   5.827  20.461  0.00  0.00    +0.000 C 
ATOM     14  C   UNL     1       1.836   7.324  20.465  0.00  0.00    +0.000 C 
ENDROOT
BRANCH   3  15
ATOM     15  N   UNL     1       0.604  10.215  17.705  0.00  0.00    +0.000 NA
ATOM     16  H   UNL     1       0.580   9.889  16.739  0.00  0.00    +0.000 HD
BRANCH  15  17
ATOM     17  S   UNL     1      -1.051  10.126  18.207  0.00  0.00    +0.000 S 
ATOM     18  O   UNL     1      -1.858   9.701  17.076  0.00  0.00    +0.000 OA
ATOM     19  O   UNL     1      -1.120   9.427  19.481  0.00  0.00    +0.000 OA
BRANCH  17  20
ATOM     20  N   UNL     1      -1.337  11.742  18.465  0.00  0.00    +0.000 NA
BRANCH  20  21
ATOM     21  C   UNL     1      -2.281  12.001  19.590  0.00  0.00    +0.000 C 
ATOM     22  C   UNL     1      -3.726  12.096  19.143  0.00  0.00    +0.000 C 
ENDBRANCH  20  21
BRANCH  20  23
ATOM     23  C   UNL     1      -0.101  12.558  18.413  0.00  0.00    +0.000 C 
ATOM     24  C   UNL     1      -0.366  14.021  18.692  0.00  0.00    +0.000 C 
ENDBRANCH  20  23
ENDBRANCH  17  20
ENDBRANCH  15  17
ENDBRANCH   3  15
BRANCH   8  25
ATOM     25  O   UNL     1       4.230   4.342  16.705  0.00  0.00    +0.000 OA
ATOM     26  H   UNL     1       4.987   4.729  17.197  0.00  0.00    +0.000 HD
ENDBRANCH   8  25
BRANCH   1  27
ATOM     27  C   UNL     1       1.035   9.463  22.124  0.00  0.00    +0.000 C 
BRANCH  27  29
ATOM     28  C   UNL     1      -1.088  10.697  23.079  0.00  0.00    +0.000 C 
ATOM     29  C   UNL     1       0.008   9.676  23.301  0.00  0.00    +0.000 C 
ENDBRANCH  27  29
ENDBRANCH   1  27
TORSDOF 8
ENDMDL
MODEL 7
REMARK VINA RESULT:      -6.3      3.683      7.748
REMARK  Name = 
REMARK  11 active torsions:
REMARK  status: ('A' for Active; 'I' for Inactive)
REMARK    1  A    between atoms: C_1  and  C_2
REMARK    2  A    between atoms: C_2  and  C_3
REMARK    3  A    between atoms: C_3  and  N_4
REMARK    4  A    between atoms: C_6  and  N_7
REMARK    5  A    between atoms: N_7  and  S_8
REMARK    6  A    between atoms: S_8  and  N_11
REMARK    7  A    between atoms: N_11  and  C_12
REMARK    8  A    between atoms: N_11  and  C_14
REMARK    9  A    between atoms: C_12  and  C_13
REMARK   10  A    between atoms: C_14  and  C_15
REMARK   11  A    between atoms: C_20  and  O_21
REMARK                            x       y       z     vdW  Elec       q    Type
REMARK                         _______ _______ _______ _____ _____    ______ ____
ROOT
ATOM      1  N   UNL     1       1.746   5.722  20.340  0.00  0.00    +0.000 NA
ATOM      2  C   UNL     1       2.633   5.273  19.204  0.00  0.00    +0.000 C 
ATOM      3  C   UNL     1       3.763   6.260  19.204  0.00  0.00    +0.000 C 
ATOM      4  C   UNL     1       3.396   7.180  18.093  0.00  0.00    +0.000 C 
ATOM      5  C   UNL     1       2.271   7.931  18.819  0.00  0.00    +0.000 C 
ATOM      6  C   UNL     1       1.571   8.964  17.970  0.00  0.00    +0.000 C 
ATOM      7  C   UNL     1       1.453  10.152  18.878  0.00  0.00    +0.000 A 
ATOM      8  C   UNL     1       1.833  11.436  18.449  0.00  0.00    +0.000 A 
ATOM      9  C   UNL     1       1.784  12.528  19.292  0.00  0.00    +0.000 A 
ATOM     10  C   UNL     1       1.363  12.331  20.607  0.00  0.00    +0.000 A 
ATOM     11  C   UNL     1       1.017  11.033  21.073  0.00  0.00    +0.000 A 
ATOM     12  C   UNL     1       1.066   9.908  20.233  0.00  0.00    +0.000 A 
ATOM     13  C   UNL     1       0.894   8.419  20.813  0.00  0.00    +0.000 C 
ATOM     14  C   UNL     1       1.202   7.150  19.802  0.00  0.00    +0.000 C 
ENDROOT
BRANCH   3  15
ATOM     15  N   UNL     1       5.103   5.696  19.398  0.00  0.00    +0.000 NA
ATOM     16  H   UNL     1       5.135   5.207  20.293  0.00  0.00    +0.000 HD
BRANCH  15  17
ATOM     17  S   UNL     1       5.276   4.426  18.234  0.00  0.00    +0.000 S 
ATOM     18  O   UNL     1       5.620   3.198  18.931  0.00  0.00    +0.000 OA
ATOM     19  O   UNL     1       4.150   4.473  17.314  0.00  0.00    +0.000 OA
BRANCH  17  20
ATOM     20  N   UNL     1       6.635   4.969  17.448  0.00  0.00    +0.000 NA
BRANCH  20  21
ATOM     21  C   UNL     1       6.367   5.425  16.055  0.00  0.00    +0.000 C 
ATOM     22  C   UNL     1       6.719   4.385  15.010  0.00  0.00    +0.000 C 
ENDBRANCH  20  21
BRANCH  20  23
ATOM     23  C   UNL     1       7.478   5.841  18.300  0.00  0.00    +0.000 C 
ATOM     24  C   UNL     1       7.676   7.215  17.697  0.00  0.00    +0.000 C 
ENDBRANCH  20  23
ENDBRANCH  17  20
ENDBRANCH  15  17
ENDBRANCH   3  15
BRANCH   8  25
ATOM     25  O   UNL     1       2.322  11.701  17.198  0.00  0.00    +0.000 OA
ATOM     26  H   UNL     1       3.160  12.202  17.307  0.00  0.00    +0.000 HD
ENDBRANCH   8  25
BRANCH   1  27
ATOM     27  C   UNL     1       0.928   4.431  20.513  0.00  0.00    +0.000 C 
BRANCH  27  29
ATOM     28  C   UNL     1       0.808   2.378  18.866  0.00  0.00    +0.000 C 
ATOM     29  C   UNL     1       1.210   2.906  20.227  0.00  0.00    +0.000 C 
ENDBRANCH  27  29
ENDBRANCH   1  27
TORSDOF 8
ENDMDL
MODEL 8
REMARK VINA RESULT:      -6.3      1.363      1.988
REMARK  Name = 
REMARK  11 active torsions:
REMARK  status: ('A' for Active; 'I' for Inactive)
REMARK    1  A    between atoms: C_1  and  C_2
REMARK    2  A    between atoms: C_2  and  C_3
REMARK    3  A    between atoms: C_3  and  N_4
REMARK    4  A    between atoms: C_6  and  N_7
REMARK    5  A    between atoms: N_7  and  S_8
REMARK    6  A    between atoms: S_8  and  N_11
REMARK    7  A    between atoms: N_11  and  C_12
REMARK    8  A    between atoms: N_11  and  C_14
REMARK    9  A    between atoms: C_12  and  C_13
REMARK   10  A    between atoms: C_14  and  C_15
REMARK   11  A    between atoms: C_20  and  O_21
REMARK                            x       y       z     vdW  Elec       q    Type
REMARK                         _______ _______ _______ _____ _____    ______ ____
ROOT
ATOM      1  N   UNL     1       0.831   9.880  20.351  0.00  0.00    +0.000 NA
ATOM      2  C   UNL     1       1.082  10.523  19.008  0.00  0.00    +0.000 C 
ATOM      3  C   UNL     1       0.444   9.588  18.024  0.00  0.00    +0.000 C 
ATOM      4  C   UNL     1       1.606   8.831  17.488  0.00  0.00    +0.000 C 
ATOM      5  C   UNL     1       1.848   7.941  18.715  0.00  0.00    +0.000 C 
ATOM      6  C   UNL     1       3.038   7.022  18.585  0.00  0.00    +0.000 C 
ATOM      7  C   UNL     1       2.533   5.708  19.105  0.00  0.00    +0.000 A 
ATOM      8  C   UNL     1       2.730   4.517  18.385  0.00  0.00    +0.000 A 
ATOM      9  C   UNL     1       2.221   3.311  18.823  0.00  0.00    +0.000 A 
ATOM     10  C   UNL     1       1.476   3.295  20.001  0.00  0.00    +0.000 A 
ATOM     11  C   UNL     1       1.227   4.496  20.720  0.00  0.00    +0.000 A 
ATOM     12  C   UNL     1       1.731   5.735  20.288  0.00  0.00    +0.000 A 
ATOM     13  C   UNL     1       1.266   7.114  20.971  0.00  0.00    +0.000 C 
ATOM     14  C   UNL     1       1.720   8.529  20.250  0.00  0.00    +0.000 C 
ENDROOT
BRANCH   3  15
ATOM     15  N   UNL     1      -0.619  10.165  17.193  0.00  0.00    +0.000 NA
ATOM     16  H   UNL     1      -1.046   9.425  16.634  0.00  0.00    +0.000 HD
BRANCH  15  17
ATOM     17  S   UNL     1      -1.885  10.642  18.274  0.00  0.00    +0.000 S 
ATOM     18  O   UNL     1      -2.043   9.614  19.289  0.00  0.00    +0.000 OA
ATOM     19  O   UNL     1      -1.689  12.035  18.644  0.00  0.00    +0.000 OA
BRANCH  17  20
ATOM     20  N   UNL     1      -3.176  10.539  17.233  0.00  0.00    +0.000 NA
BRANCH  20  21
ATOM     21  C   UNL     1      -4.458  10.999  17.837  0.00  0.00    +0.000 C 
ATOM     22  C   UNL     1      -5.209  11.984  16.963  0.00  0.00    +0.000 C 
ENDBRANCH  20  21
BRANCH  20  23
ATOM     23  C   UNL     1      -2.852  11.025  15.871  0.00  0.00    +0.000 C 
ATOM     24  C   UNL     1      -3.015   9.947  14.822  0.00  0.00    +0.000 C 
ENDBRANCH  20  23
ENDBRANCH  17  20
ENDBRANCH  15  17
ENDBRANCH   3  15
BRANCH   8  25
ATOM     25  O   UNL     1       3.389   4.457  17.186  0.00  0.00    +0.000 OA
ATOM     26  H   UNL     1       3.786   3.562  17.110  0.00  0.00    +0.000 HD
ENDBRANCH   8  25
BRANCH   1  27
ATOM     27  C   UNL     1       1.110  11.101  21.243  0.00  0.00    +0.000 C 
BRANCH  27  29
ATOM     28  C   UNL     1       2.346  13.378  20.764  0.00  0.00    +0.000 C 
ATOM     29  C   UNL     1       1.038  12.660  21.023  0.00  0.00    +0.000 C 
ENDBRANCH  27  29
ENDBRANCH   1  27
TORSDOF 8
ENDMDL
MODEL 9
REMARK VINA RESULT:      -6.3      3.005      7.669
REMARK  Name = 
REMARK  11 active torsions:
REMARK  status: ('A' for Active; 'I' for Inactive)
REMARK    1  A    between atoms: C_1  and  C_2
REMARK    2  A    between atoms: C_2  and  C_3
REMARK    3  A    between atoms: C_3  and  N_4
REMARK    4  A    between atoms: C_6  and  N_7
REMARK    5  A    between atoms: N_7  and  S_8
REMARK    6  A    between atoms: S_8  and  N_11
REMARK    7  A    between atoms: N_11  and  C_12
REMARK    8  A    between atoms: N_11  and  C_14
REMARK    9  A    between atoms: C_12  and  C_13
REMARK   10  A    between atoms: C_14  and  C_15
REMARK   11  A    between atoms: C_20  and  O_21
REMARK                            x       y       z     vdW  Elec       q    Type
REMARK                         _______ _______ _______ _____ _____    ______ ____
ROOT
ATOM      1  N   UNL     1       3.328   6.778  18.046  0.00  0.00    +0.000 NA
ATOM      2  C   UNL     1       3.534   6.098  19.378  0.00  0.00    +0.000 C 
ATOM      3  C   UNL     1       2.145   5.808  19.865  0.00  0.00    +0.000 C 
ATOM      4  C   UNL     1       1.908   6.896  20.851  0.00  0.00    +0.000 C 
ATOM      5  C   UNL     1       1.699   8.036  19.843  0.00  0.00    +0.000 C 
ATOM      6  C   UNL     1       1.475   9.387  20.478  0.00  0.00    +0.000 C 
ATOM      7  C   UNL     1       0.332   9.964  19.696  0.00  0.00    +0.000 A 
ATOM      8  C   UNL     1      -0.780  10.530  20.344  0.00  0.00    +0.000 A 
ATOM      9  C   UNL     1      -1.864  11.012  19.638  0.00  0.00    +0.000 A 
ATOM     10  C   UNL     1      -1.848  10.909  18.247  0.00  0.00    +0.000 A 
ATOM     11  C   UNL     1      -0.752  10.300  17.576  0.00  0.00    +0.000 A 
ATOM     12  C   UNL     1       0.357   9.797  18.276  0.00  0.00    +0.000 A 
ATOM     13  C   UNL     1       1.482   8.914  17.543  0.00  0.00    +0.000 C 
ATOM     14  C   UNL     1       2.618   8.167  18.481  0.00  0.00    +0.000 C 
ENDROOT
BRANCH   3  15
ATOM     15  N   UNL     1       1.836   4.394  20.108  0.00  0.00    +0.000 NA
ATOM     16  H   UNL     1       0.940   4.325  20.591  0.00  0.00    +0.000 HD
BRANCH  15  17
ATOM     17  S   UNL     1       1.520   3.687  18.560  0.00  0.00    +0.000 S 
ATOM     18  O   UNL     1       0.659   2.531  18.742  0.00  0.00    +0.000 OA
ATOM     19  O   UNL     1       1.166   4.743  17.623  0.00  0.00    +0.000 OA
BRANCH  17  20
ATOM     20  N   UNL     1       3.047   3.139  18.201  0.00  0.00    +0.000 NA
BRANCH  20  21
ATOM     21  C   UNL     1       3.415   1.897  18.937  0.00  0.00    +0.000 C 
ATOM     22  C   UNL     1       4.445   2.133  20.024  0.00  0.00    +0.000 C 
ENDBRANCH  20  21
BRANCH  20  23
ATOM     23  C   UNL     1       3.344   3.184  16.750  0.00  0.00    +0.000 C 
ATOM     24  C   UNL     1       4.805   3.463  16.471  0.00  0.00    +0.000 C 
ENDBRANCH  20  23
ENDBRANCH  17  20
ENDBRANCH  15  17
ENDBRANCH   3  15
BRANCH   8  25
ATOM     25  O   UNL     1      -0.905  10.606  21.705  0.00  0.00    +0.000 OA
ATOM     26  H   UNL     1      -1.641  11.226  21.901  0.00  0.00    +0.000 HD
ENDBRANCH   8  25
BRANCH   1  27
ATOM     27  C   UNL     1       4.748   6.606  17.481  0.00  0.00    +0.000 C 
BRANCH  27  29
ATOM     28  C   UNL     1       7.374   6.825  17.491  0.00  0.00    +0.000 C 
ATOM     29  C   UNL     1       6.138   6.206  18.109  0.00  0.00    +0.000 C 
ENDBRANCH  27  29
ENDBRANCH   1  27
TORSDOF 8
ENDMDL
