MODEL 1
REMARK VINA RESULT:      -7.5      0.000      0.000
REMARK  Name = 
REMARK  10 active torsions:
REMARK  status: ('A' for Active; 'I' for Inactive)
REMARK    1  A    between atoms: C_1  and  O_2
REMARK    2  A    between atoms: O_2  and  C_3
REMARK    3  A    between atoms: C_6  and  C_7
REMARK    4  A    between atoms: C_7  and  N_8
REMARK    5  A    between atoms: C_10  and  C_11
REMARK    6  A    between atoms: C_11  and  C_12
REMARK    7  A    between atoms: C_12  and  C_13
REMARK    8  A    between atoms: C_13  and  C_14
REMARK    9  A    between atoms: C_14  and  C_15
REMARK   10  A    between atoms: C_15  and  C_16
REMARK                            x       y       z     vdW  Elec       q    Type
REMARK                         _______ _______ _______ _____ _____    ______ ____
ROOT
ATOM      1  C   UNL     1       8.048   7.169  18.291  0.00  0.00    +0.000 C 
ENDROOT
BRANCH   1   4
ATOM      2  N   UNL     1       5.546   5.007  16.838  0.00  0.00    +0.000 N 
ATOM      3  C   UNL     1       5.841   5.938  17.787  0.00  0.00    +0.000 A 
ATOM      4  C   UNL     1       7.181   6.186  17.599  0.00  0.00    +0.000 A 
ATOM      5  N   UNL     1       7.660   5.361  16.617  0.00  0.00    +0.000 NA
ATOM      6  N   UNL     1       6.646   4.644  16.151  0.00  0.00    +0.000 NA
BRANCH   2   7
ATOM      7  C   UNL     1       4.223   4.624  16.378  0.00  0.00    +0.000 C 
BRANCH   7  11
ATOM      8  C   UNL     1       1.679   2.937  19.436  0.00  0.00    +0.000 A 
ATOM      9  C   UNL     1       1.725   4.317  19.233  0.00  0.00    +0.000 A 
ATOM     10  C   UNL     1       2.551   4.863  18.251  0.00  0.00    +0.000 A 
ATOM     11  C   UNL     1       3.367   4.034  17.466  0.00  0.00    +0.000 A 
ATOM     12  C   UNL     1       3.328   2.650  17.686  0.00  0.00    +0.000 A 
ATOM     13  C   UNL     1       2.489   2.106  18.667  0.00  0.00    +0.000 A 
BRANCH   8  15
ATOM     14  C   UNL     1       1.344   2.656  21.758  0.00  0.00    +0.000 C 
ATOM     15  O   UNL     1       0.838   2.525  20.434  0.00  0.00    +0.000 OA
ENDBRANCH   8  15
ENDBRANCH   7  11
ENDBRANCH   2   7
ENDBRANCH   1   4
BRANCH   1  16
ATOM     16  C   UNL     1       7.885   8.586  17.733  0.00  0.00    +0.000 C 
BRANCH  16  17
ATOM     17  C   UNL     1       8.788   9.615  18.421  0.00  0.00    +0.000 C 
BRANCH  17  18
ATOM     18  C   UNL     1       8.349  11.061  18.192  0.00  0.00    +0.000 C 
BRANCH  18  19
ATOM     19  C   UNL     1       9.512  11.920  17.692  0.00  0.00    +0.000 C 
BRANCH  19  20
ATOM     20  C   UNL     1      10.280  12.623  18.801  0.00  0.00    +0.000 C 
ATOM     21  S   UNL     1       9.215  13.514  19.966  0.00  0.00    +0.000 S 
ATOM     22  C   UNL     1      10.590  14.499  20.580  0.00  0.00    +0.000 C 
ATOM     23  C   UNL     1      11.481  14.765  19.368  0.00  0.00    +0.000 C 
ATOM     24  N   UNL     1      11.136  15.991  18.681  0.00  0.00    +0.000 N 
ATOM     25  C   UNL     1      10.746  15.771  17.386  0.00  0.00    +0.000 C 
ATOM     26  O   UNL     1      10.395  16.625  16.587  0.00  0.00    +0.000 OA
ATOM     27  N   UNL     1      10.833  14.425  17.130  0.00  0.00    +0.000 N 
ATOM     28  C   UNL     1      11.279  13.675  18.288  0.00  0.00    +0.000 C 
ATOM     29  H   UNL     1      11.142  16.929  19.066  0.00  0.00    +0.000 HD
ATOM     30  H   UNL     1      10.609  14.063  16.216  0.00  0.00    +0.000 HD
ENDBRANCH  19  20
ENDBRANCH  18  19
ENDBRANCH  17  18
ENDBRANCH  16  17
ENDBRANCH   1  16
TORSDOF 9
ENDMDL
MODEL 2
REMARK VINA RESULT:      -7.5      2.724      3.316
REMARK  Name = 
REMARK  10 active torsions:
REMARK  status: ('A' for Active; 'I' for Inactive)
REMARK    1  A    between atoms: C_1  and  O_2
REMARK    2  A    between atoms: O_2  and  C_3
REMARK    3  A    between atoms: C_6  and  C_7
REMARK    4  A    between atoms: C_7  and  N_8
REMARK    5  A    between atoms: C_10  and  C_11
REMARK    6  A    between atoms: C_11  and  C_12
REMARK    7  A    between atoms: C_12  and  C_13
REMARK    8  A    between atoms: C_13  and  C_14
REMARK    9  A    between atoms: C_14  and  C_15
REMARK   10  A    between atoms: C_15  and  C_16
REMARK                            x       y       z     vdW  Elec       q    Type
REMARK                         _______ _______ _______ _____ _____    ______ ____
ROOT
ATOM      1  C   UNL     1       7.923   7.410  17.551  0.00  0.00    +0.000 C 
ENDROOT
BRANCH   1   4
ATOM      2  N   UNL     1       4.633   5.931  17.355  0.00  0.00    +0.000 N 
ATOM      3  C   UNL     1       5.669   6.313  18.151  0.00  0.00    +0.000 A 
ATOM      4  C   UNL     1       6.609   6.786  17.265  0.00  0.00    +0.000 A 
ATOM      5  N   UNL     1       6.154   6.607  15.986  0.00  0.00    +0.000 NA
ATOM      6  N   UNL     1       4.936   6.086  16.052  0.00  0.00    +0.000 NA
BRANCH   2   7
ATOM      7  C   UNL     1       3.270   5.657  17.773  0.00  0.00    +0.000 C 
BRANCH   7  11
ATOM      8  C   UNL     1       1.433   9.090  19.644  0.00  0.00    +0.000 A 
ATOM      9  C   UNL     1       1.677   7.929  20.378  0.00  0.00    +0.000 A 
ATOM     10  C   UNL     1       2.265   6.818  19.774  0.00  0.00    +0.000 A 
ATOM     11  C   UNL     1       2.598   6.842  18.410  0.00  0.00    +0.000 A 
ATOM     12  C   UNL     1       2.334   8.007  17.676  0.00  0.00    +0.000 A 
ATOM     13  C   UNL     1       1.754   9.124  18.290  0.00  0.00    +0.000 A 
BRANCH   8  15
ATOM     14  C   UNL     1      -0.577  10.126  20.329  0.00  0.00    +0.000 C 
ATOM     15  O   UNL     1       0.846  10.108  20.347  0.00  0.00    +0.000 OA
ENDBRANCH   8  15
ENDBRANCH   7  11
ENDBRANCH   2   7
ENDBRANCH   1   4
BRANCH   1  16
ATOM     16  C   UNL     1       7.815   8.920  17.778  0.00  0.00    +0.000 C 
BRANCH  16  17
ATOM     17  C   UNL     1       8.936   9.481  18.659  0.00  0.00    +0.000 C 
BRANCH  17  18
ATOM     18  C   UNL     1       9.059  11.003  18.594  0.00  0.00    +0.000 C 
BRANCH  18  19
ATOM     19  C   UNL     1      10.319  11.424  17.836  0.00  0.00    +0.000 C 
BRANCH  19  20
ATOM     20  C   UNL     1      11.077  12.571  18.489  0.00  0.00    +0.000 C 
ATOM     21  S   UNL     1      10.654  12.816  20.235  0.00  0.00    +0.000 S 
ATOM     22  C   UNL     1      11.339  14.480  20.240  0.00  0.00    +0.000 C 
ATOM     23  C   UNL     1      11.020  15.062  18.864  0.00  0.00    +0.000 C 
ATOM     24  N   UNL     1       9.758  15.769  18.837  0.00  0.00    +0.000 N 
ATOM     25  C   UNL     1       8.866  15.209  17.961  0.00  0.00    +0.000 C 
ATOM     26  O   UNL     1       7.728  15.598  17.748  0.00  0.00    +0.000 OA
ATOM     27  N   UNL     1       9.473  14.141  17.347  0.00  0.00    +0.000 N 
ATOM     28  C   UNL     1      10.827  13.935  17.823  0.00  0.00    +0.000 C 
ATOM     29  H   UNL     1       9.498  16.577  19.393  0.00  0.00    +0.000 HD
ATOM     30  H   UNL     1       8.983  13.609  16.645  0.00  0.00    +0.000 HD
ENDBRANCH  19  20
ENDBRANCH  18  19
ENDBRANCH  17  18
ENDBRANCH  16  17
ENDBRANCH   1  16
TORSDOF 9
ENDMDL
MODEL 3
REMARK VINA RESULT:      -7.5      6.176      9.225
REMARK  Name = 
REMARK  10 active torsions:
REMARK  status: ('A' for Active; 'I' for Inactive)
REMARK    1  A    between atoms: C_1  and  O_2
REMARK    2  A    between atoms: O_2  and  C_3
REMARK    3  A    between atoms: C_6  and  C_7
REMARK    4  A    between atoms: C_7  and  N_8
REMARK    5  A    between atoms: C_10  and  C_11
REMARK    6  A    between atoms: C_11  and  C_12
REMARK    7  A    between atoms: C_12  and  C_13
REMARK    8  A    between atoms: C_13  and  C_14
REMARK    9  A    between atoms: C_14  and  C_15
REMARK   10  A    between atoms: C_15  and  C_16
REMARK                            x       y       z     vdW  Elec       q    Type
REMARK                         _______ _______ _______ _____ _____    ______ ____
ROOT
ATOM      1  C   UNL     1       2.402   5.980  20.407  0.00  0.00    +0.000 C 
ENDROOT
BRANCH   1   4
ATOM      2  N   UNL     1       1.334   9.200  19.166  0.00  0.00    +0.000 N 
ATOM      3  C   UNL     1       1.366   8.332  20.214  0.00  0.00    +0.000 A 
ATOM      4  C   UNL     1       2.008   7.226  19.707  0.00  0.00    +0.000 A 
ATOM      5  N   UNL     1       2.268   7.425  18.378  0.00  0.00    +0.000 NA
ATOM      6  N   UNL     1       1.855   8.643  18.055  0.00  0.00    +0.000 NA
BRANCH   2   7
ATOM      7  C   UNL     1       1.060  10.624  19.224  0.00  0.00    +0.000 C 
BRANCH   7  11
ATOM      8  C   UNL     1      -3.112  11.653  18.770  0.00  0.00    +0.000 A 
ATOM      9  C   UNL     1      -2.346  12.229  19.784  0.00  0.00    +0.000 A 
ATOM     10  C   UNL     1      -1.001  11.892  19.936  0.00  0.00    +0.000 A 
ATOM     11  C   UNL     1      -0.402  10.951  19.084  0.00  0.00    +0.000 A 
ATOM     12  C   UNL     1      -1.182  10.365  18.077  0.00  0.00    +0.000 A 
ATOM     13  C   UNL     1      -2.530  10.714  17.922  0.00  0.00    +0.000 A 
BRANCH   8  15
ATOM     14  C   UNL     1      -4.850  12.853  19.827  0.00  0.00    +0.000 C 
ATOM     15  O   UNL     1      -4.419  12.057  18.729  0.00  0.00    +0.000 OA
ENDBRANCH   8  15
ENDBRANCH   7  11
ENDBRANCH   2   7
ENDBRANCH   1   4
BRANCH   1  16
ATOM     16  C   UNL     1       1.422   4.832  20.152  0.00  0.00    +0.000 C 
BRANCH  16  17
ATOM     17  C   UNL     1       2.074   3.616  19.485  0.00  0.00    +0.000 C 
BRANCH  17  18
ATOM     18  C   UNL     1       2.434   3.846  18.018  0.00  0.00    +0.000 C 
BRANCH  18  19
ATOM     19  C   UNL     1       3.916   3.567  17.762  0.00  0.00    +0.000 C 
BRANCH  19  20
ATOM     20  C   UNL     1       4.629   4.677  17.004  0.00  0.00    +0.000 C 
ATOM     21  S   UNL     1       6.019   4.089  15.999  0.00  0.00    +0.000 S 
ATOM     22  C   UNL     1       6.718   5.743  15.871  0.00  0.00    +0.000 C 
ATOM     23  C   UNL     1       6.445   6.412  17.217  0.00  0.00    +0.000 C 
ATOM     24  N   UNL     1       7.522   6.219  18.164  0.00  0.00    +0.000 N 
ATOM     25  C   UNL     1       7.116   5.540  19.283  0.00  0.00    +0.000 C 
ATOM     26  O   UNL     1       7.821   5.236  20.233  0.00  0.00    +0.000 OA
ATOM     27  N   UNL     1       5.774   5.274  19.166  0.00  0.00    +0.000 N 
ATOM     28  C   UNL     1       5.227   5.762  17.916  0.00  0.00    +0.000 C 
ATOM     29  H   UNL     1       8.488   6.509  18.058  0.00  0.00    +0.000 HD
ATOM     30  H   UNL     1       5.281   4.798  19.906  0.00  0.00    +0.000 HD
ENDBRANCH  19  20
ENDBRANCH  18  19
ENDBRANCH  17  18
ENDBRANCH  16  17
ENDBRANCH   1  16
TORSDOF 9
ENDMDL
MODEL 4
REMARK VINA RESULT:      -7.5      6.228      9.500
REMARK  Name = 
REMARK  10 active torsions:
REMARK  status: ('A' for Active; 'I' for Inactive)
REMARK    1  A    between atoms: C_1  and  O_2
REMARK    2  A    between atoms: O_2  and  C_3
REMARK    3  A    between atoms: C_6  and  C_7
REMARK    4  A    between atoms: C_7  and  N_8
REMARK    5  A    between atoms: C_10  and  C_11
REMARK    6  A    between atoms: C_11  and  C_12
REMARK    7  A    between atoms: C_12  and  C_13
REMARK    8  A    between atoms: C_13  and  C_14
REMARK    9  A    between atoms: C_14  and  C_15
REMARK   10  A    between atoms: C_15  and  C_16
REMARK                            x       y       z     vdW  Elec       q    Type
REMARK                         _______ _______ _______ _____ _____    ______ ____
ROOT
ATOM      1  C   UNL     1       2.089   6.973  20.900  0.00  0.00    +0.000 C 
ENDROOT
BRANCH   1   4
ATOM      2  N   UNL     1       0.805   9.710  18.923  0.00  0.00    +0.000 N 
ATOM      3  C   UNL     1       0.726   9.002  20.083  0.00  0.00    +0.000 A 
ATOM      4  C   UNL     1       1.666   8.010  19.929  0.00  0.00    +0.000 A 
ATOM      5  N   UNL     1       2.217   8.100  18.679  0.00  0.00    +0.000 NA
ATOM      6  N   UNL     1       1.685   9.151  18.070  0.00  0.00    +0.000 NA
BRANCH   2   7
ATOM      7  C   UNL     1       0.270  11.037  18.676  0.00  0.00    +0.000 C 
BRANCH   7  11
ATOM      8  C   UNL     1      -3.980  10.947  17.906  0.00  0.00    +0.000 A 
ATOM      9  C   UNL     1      -3.122  10.066  17.247  0.00  0.00    +0.000 A 
ATOM     10  C   UNL     1      -1.748  10.099  17.489  0.00  0.00    +0.000 A 
ATOM     11  C   UNL     1      -1.206  11.034  18.384  0.00  0.00    +0.000 A 
ATOM     12  C   UNL     1      -2.073  11.926  19.031  0.00  0.00    +0.000 A 
ATOM     13  C   UNL     1      -3.452  11.883  18.791  0.00  0.00    +0.000 A 
BRANCH   8  15
ATOM     14  C   UNL     1      -6.118  11.951  17.873  0.00  0.00    +0.000 C 
ATOM     15  O   UNL     1      -5.303  10.822  17.577  0.00  0.00    +0.000 OA
ENDBRANCH   8  15
ENDBRANCH   7  11
ENDBRANCH   2   7
ENDBRANCH   1   4
BRANCH   1  16
ATOM     16  C   UNL     1       1.675   5.564  20.468  0.00  0.00    +0.000 C 
BRANCH  16  17
ATOM     17  C   UNL     1       2.862   4.679  20.071  0.00  0.00    +0.000 C 
BRANCH  17  18
ATOM     18  C   UNL     1       2.717   4.048  18.688  0.00  0.00    +0.000 C 
BRANCH  18  19
ATOM     19  C   UNL     1       3.402   4.897  17.617  0.00  0.00    +0.000 C 
BRANCH  19  20
ATOM     20  C   UNL     1       4.849   5.242  17.935  0.00  0.00    +0.000 C 
ATOM     21  S   UNL     1       5.366   6.857  17.295  0.00  0.00    +0.000 S 
ATOM     22  C   UNL     1       7.110   6.441  17.453  0.00  0.00    +0.000 C 
ATOM     23  C   UNL     1       7.213   4.956  17.109  0.00  0.00    +0.000 C 
ATOM     24  N   UNL     1       7.464   4.726  15.703  0.00  0.00    +0.000 N 
ATOM     25  C   UNL     1       6.460   4.011  15.104  0.00  0.00    +0.000 C 
ATOM     26  O   UNL     1       6.413   3.686  13.928  0.00  0.00    +0.000 OA
ATOM     27  N   UNL     1       5.519   3.705  16.055  0.00  0.00    +0.000 N 
ATOM     28  C   UNL     1       5.864   4.240  17.358  0.00  0.00    +0.000 C 
ATOM     29  H   UNL     1       8.261   5.049  15.164  0.00  0.00    +0.000 HD
ATOM     30  H   UNL     1       4.708   3.158  15.814  0.00  0.00    +0.000 HD
ENDBRANCH  19  20
ENDBRANCH  18  19
ENDBRANCH  17  18
ENDBRANCH  16  17
ENDBRANCH   1  16
TORSDOF 9
ENDMDL
MODEL 5
REMARK VINA RESULT:      -7.4      1.901      2.428
REMARK  Name = 
REMARK  10 active torsions:
REMARK  status: ('A' for Active; 'I' for Inactive)
REMARK    1  A    between atoms: C_1  and  O_2
REMARK    2  A    between atoms: O_2  and  C_3
REMARK    3  A    between atoms: C_6  and  C_7
REMARK    4  A    between atoms: C_7  and  N_8
REMARK    5  A    between atoms: C_10  and  C_11
REMARK    6  A    between atoms: C_11  and  C_12
REMARK    7  A    between atoms: C_12  and  C_13
REMARK    8  A    between atoms: C_13  and  C_14
REMARK    9  A    between atoms: C_14  and  C_15
REMARK   10  A    between atoms: C_15  and  C_16
REMARK                            x       y       z     vdW  Elec       q    Type
REMARK                         _______ _______ _______ _____ _____    ______ ____
ROOT
ATOM      1  C   UNL     1       8.453   8.501  18.922  0.00  0.00    +0.000 C 
ENDROOT
BRANCH   1   4
ATOM      2  N   UNL     1       7.277   5.467  17.355  0.00  0.00    +0.000 N 
ATOM      3  C   UNL     1       7.721   6.068  18.493  0.00  0.00    +0.000 A 
ATOM      4  C   UNL     1       8.004   7.354  18.097  0.00  0.00    +0.000 A 
ATOM      5  N   UNL     1       7.802   7.467  16.748  0.00  0.00    +0.000 NA
ATOM      6  N   UNL     1       7.350   6.303  16.301  0.00  0.00    +0.000 NA
BRANCH   2   7
ATOM      7  C   UNL     1       6.552   4.213  17.260  0.00  0.00    +0.000 C 
BRANCH   7  11
ATOM      8  C   UNL     1       2.594   4.303  18.992  0.00  0.00    +0.000 A 
ATOM      9  C   UNL     1       2.854   4.948  17.782  0.00  0.00    +0.000 A 
ATOM     10  C   UNL     1       4.133   4.926  17.225  0.00  0.00    +0.000 A 
ATOM     11  C   UNL     1       5.185   4.272  17.885  0.00  0.00    +0.000 A 
ATOM     12  C   UNL     1       4.920   3.639  19.108  0.00  0.00    +0.000 A 
ATOM     13  C   UNL     1       3.632   3.656  19.658  0.00  0.00    +0.000 A 
BRANCH   8  15
ATOM     14  C   UNL     1       1.021   3.721  20.655  0.00  0.00    +0.000 C 
ATOM     15  O   UNL     1       1.305   4.404  19.438  0.00  0.00    +0.000 OA
ENDBRANCH   8  15
ENDBRANCH   7  11
ENDBRANCH   2   7
ENDBRANCH   1   4
BRANCH   1  16
ATOM     16  C   UNL     1       8.604   9.786  18.103  0.00  0.00    +0.000 C 
BRANCH  16  17
ATOM     17  C   UNL     1       9.508  10.827  18.771  0.00  0.00    +0.000 C 
BRANCH  17  18
ATOM     18  C   UNL     1      10.575  11.398  17.838  0.00  0.00    +0.000 C 
BRANCH  18  19
ATOM     19  C   UNL     1      11.098  12.740  18.350  0.00  0.00    +0.000 C 
BRANCH  19  20
ATOM     20  C   UNL     1      10.641  13.935  17.526  0.00  0.00    +0.000 C 
ATOM     21  S   UNL     1      11.908  15.219  17.348  0.00  0.00    +0.000 S 
ATOM     22  C   UNL     1      10.690  16.452  16.862  0.00  0.00    +0.000 C 
ATOM     23  C   UNL     1       9.440  16.145  17.685  0.00  0.00    +0.000 C 
ATOM     24  N   UNL     1       9.409  16.862  18.941  0.00  0.00    +0.000 N 
ATOM     25  C   UNL     1       9.396  16.020  20.022  0.00  0.00    +0.000 C 
ATOM     26  O   UNL     1       9.379  16.358  21.195  0.00  0.00    +0.000 OA
ATOM     27  N   UNL     1       9.389  14.726  19.564  0.00  0.00    +0.000 N 
ATOM     28  C   UNL     1       9.418  14.659  18.115  0.00  0.00    +0.000 C 
ATOM     29  H   UNL     1       9.416  17.868  19.070  0.00  0.00    +0.000 HD
ATOM     30  H   UNL     1       9.355  13.955  20.211  0.00  0.00    +0.000 HD
ENDBRANCH  19  20
ENDBRANCH  18  19
ENDBRANCH  17  18
ENDBRANCH  16  17
ENDBRANCH   1  16
TORSDOF 9
ENDMDL
MODEL 6
REMARK VINA RESULT:      -7.4      6.180      9.111
REMARK  Name = 
REMARK  10 active torsions:
REMARK  status: ('A' for Active; 'I' for Inactive)
REMARK    1  A    between atoms: C_1  and  O_2
REMARK    2  A    between atoms: O_2  and  C_3
REMARK    3  A    between atoms: C_6  and  C_7
REMARK    4  A    between atoms: C_7  and  N_8
REMARK    5  A    between atoms: C_10  and  C_11
REMARK    6  A    between atoms: C_11  and  C_12
REMARK    7  A    between atoms: C_12  and  C_13
REMARK    8  A    between atoms: C_13  and  C_14
REMARK    9  A    between atoms: C_14  and  C_15
REMARK   10  A    between atoms: C_15  and  C_16
REMARK                            x       y       z     vdW  Elec       q    Type
REMARK                         _______ _______ _______ _____ _____    ______ ____
ROOT
ATOM      1  C   UNL     1       1.701   4.720  20.632  0.00  0.00    +0.000 C 
ENDROOT
BRANCH   1   4
ATOM      2  N   UNL     1       2.142   7.924  19.025  0.00  0.00    +0.000 N 
ATOM      3  C   UNL     1       2.275   6.573  18.935  0.00  0.00    +0.000 A 
ATOM      4  C   UNL     1       1.853   6.118  20.162  0.00  0.00    +0.000 A 
ATOM      5  N   UNL     1       1.559   7.188  20.964  0.00  0.00    +0.000 NA
ATOM      6  N   UNL     1       1.735   8.295  20.254  0.00  0.00    +0.000 NA
BRANCH   2   7
ATOM      7  C   UNL     1       2.143   8.873  17.926  0.00  0.00    +0.000 C 
BRANCH   7  11
ATOM      8  C   UNL     1      -0.314  12.321  18.788  0.00  0.00    +0.000 A 
ATOM      9  C   UNL     1      -0.897  11.115  18.398  0.00  0.00    +0.000 A 
ATOM     10  C   UNL     1      -0.104  10.003  18.113  0.00  0.00    +0.000 A 
ATOM     11  C   UNL     1       1.295  10.087  18.192  0.00  0.00    +0.000 A 
ATOM     12  C   UNL     1       1.874  11.307  18.569  0.00  0.00    +0.000 A 
ATOM     13  C   UNL     1       1.074  12.417  18.864  0.00  0.00    +0.000 A 
BRANCH   8  15
ATOM     14  C   UNL     1      -0.622  14.540  19.538  0.00  0.00    +0.000 C 
ATOM     15  O   UNL     1      -1.195  13.340  19.032  0.00  0.00    +0.000 OA
ENDBRANCH   8  15
ENDBRANCH   7  11
ENDBRANCH   2   7
ENDBRANCH   1   4
BRANCH   1  16
ATOM     16  C   UNL     1       2.534   3.734  19.809  0.00  0.00    +0.000 C 
BRANCH  16  17
ATOM     17  C   UNL     1       1.781   3.163  18.603  0.00  0.00    +0.000 C 
BRANCH  17  18
ATOM     18  C   UNL     1       2.509   3.371  17.275  0.00  0.00    +0.000 C 
BRANCH  18  19
ATOM     19  C   UNL     1       4.026   3.364  17.468  0.00  0.00    +0.000 C 
BRANCH  19  20
ATOM     20  C   UNL     1       4.748   4.472  16.716  0.00  0.00    +0.000 C 
ATOM     21  S   UNL     1       6.241   3.907  15.855  0.00  0.00    +0.000 S 
ATOM     22  C   UNL     1       6.872   5.586  15.701  0.00  0.00    +0.000 C 
ATOM     23  C   UNL     1       6.460   6.301  16.987  0.00  0.00    +0.000 C 
ATOM     24  N   UNL     1       7.463   6.205  18.025  0.00  0.00    +0.000 N 
ATOM     25  C   UNL     1       6.999   5.559  19.140  0.00  0.00    +0.000 C 
ATOM     26  O   UNL     1       7.636   5.334  20.157  0.00  0.00    +0.000 OA
ATOM     27  N   UNL     1       5.684   5.222  18.930  0.00  0.00    +0.000 N 
ATOM     28  C   UNL     1       5.219   5.625  17.617  0.00  0.00    +0.000 C 
ATOM     29  H   UNL     1       8.421   6.537  17.982  0.00  0.00    +0.000 HD
ATOM     30  H   UNL     1       5.154   4.757  19.651  0.00  0.00    +0.000 HD
ENDBRANCH  19  20
ENDBRANCH  18  19
ENDBRANCH  17  18
ENDBRANCH  16  17
ENDBRANCH   1  16
TORSDOF 9
ENDMDL
MODEL 7
REMARK VINA RESULT:      -7.3      3.130      3.860
REMARK  Name = 
REMARK  10 active torsions:
REMARK  status: ('A' for Active; 'I' for Inactive)
REMARK    1  A    between atoms: C_1  and  O_2
REMARK    2  A    between atoms: O_2  and  C_3
REMARK    3  A    between atoms: C_6  and  C_7
REMARK    4  A    between atoms: C_7  and  N_8
REMARK    5  A    between atoms: C_10  and  C_11
REMARK    6  A    between atoms: C_11  and  C_12
REMARK    7  A    between atoms: C_12  and  C_13
REMARK    8  A    between atoms: C_13  and  C_14
REMARK    9  A    between atoms: C_14  and  C_15
REMARK   10  A    between atoms: C_15  and  C_16
REMARK                            x       y       z     vdW  Elec       q    Type
REMARK                         _______ _______ _______ _____ _____    ______ ____
ROOT
ATOM      1  C   UNL     1       7.702   6.014  17.816  0.00  0.00    +0.000 C 
ENDROOT
BRANCH   1   4
ATOM      2  N   UNL     1       4.173   5.540  18.420  0.00  0.00    +0.000 N 
ATOM      3  C   UNL     1       5.166   6.399  18.064  0.00  0.00    +0.000 A 
ATOM      4  C   UNL     1       6.309   5.640  18.156  0.00  0.00    +0.000 A 
ATOM      5  N   UNL     1       5.987   4.396  18.629  0.00  0.00    +0.000 NA
ATOM      6  N   UNL     1       4.671   4.342  18.783  0.00  0.00    +0.000 NA
BRANCH   2   7
ATOM      7  C   UNL     1       2.749   5.715  18.197  0.00  0.00    +0.000 C 
BRANCH   7  11
ATOM      8  C   UNL     1       1.156   9.470  19.622  0.00  0.00    +0.000 A 
ATOM      9  C   UNL     1       1.462   9.296  18.272  0.00  0.00    +0.000 A 
ATOM     10  C   UNL     1       1.983   8.087  17.812  0.00  0.00    +0.000 A 
ATOM     11  C   UNL     1       2.229   7.032  18.705  0.00  0.00    +0.000 A 
ATOM     12  C   UNL     1       1.933   7.220  20.062  0.00  0.00    +0.000 A 
ATOM     13  C   UNL     1       1.401   8.432  20.518  0.00  0.00    +0.000 A 
BRANCH   8  15
ATOM     14  C   UNL     1       1.007  11.761  19.065  0.00  0.00    +0.000 C 
ATOM     15  O   UNL     1       0.660  10.702  19.951  0.00  0.00    +0.000 OA
ENDBRANCH   8  15
ENDBRANCH   7  11
ENDBRANCH   2   7
ENDBRANCH   1   4
BRANCH   1  16
ATOM     16  C   UNL     1       8.196   7.218  18.623  0.00  0.00    +0.000 C 
BRANCH  16  17
ATOM     17  C   UNL     1       8.154   8.533  17.837  0.00  0.00    +0.000 C 
BRANCH  17  18
ATOM     18  C   UNL     1       8.591   9.748  18.654  0.00  0.00    +0.000 C 
BRANCH  18  19
ATOM     19  C   UNL     1       9.594  10.604  17.880  0.00  0.00    +0.000 C 
BRANCH  19  20
ATOM     20  C   UNL     1      10.176  11.754  18.689  0.00  0.00    +0.000 C 
ATOM     21  S   UNL     1       9.504  11.870  20.369  0.00  0.00    +0.000 S 
ATOM     22  C   UNL     1      10.068  13.569  20.553  0.00  0.00    +0.000 C 
ATOM     23  C   UNL     1       9.901  14.211  19.177  0.00  0.00    +0.000 C 
ATOM     24  N   UNL     1       8.610  14.842  19.008  0.00  0.00    +0.000 N 
ATOM     25  C   UNL     1       7.885  14.281  17.989  0.00  0.00    +0.000 C 
ATOM     26  O   UNL     1       6.763  14.614  17.638  0.00  0.00    +0.000 OA
ATOM     27  N   UNL     1       8.641  13.290  17.413  0.00  0.00    +0.000 N 
ATOM     28  C   UNL     1       9.928  13.137  18.063  0.00  0.00    +0.000 C 
ATOM     29  H   UNL     1       8.222  15.598  19.562  0.00  0.00    +0.000 HD
ATOM     30  H   UNL     1       8.289  12.772  16.624  0.00  0.00    +0.000 HD
ENDBRANCH  19  20
ENDBRANCH  18  19
ENDBRANCH  17  18
ENDBRANCH  16  17
ENDBRANCH   1  16
TORSDOF 9
ENDMDL
MODEL 8
REMARK VINA RESULT:      -7.3      6.175      8.850
REMARK  Name = 
REMARK  10 active torsions:
REMARK  status: ('A' for Active; 'I' for Inactive)
REMARK    1  A    between atoms: C_1  and  O_2
REMARK    2  A    between atoms: O_2  and  C_3
REMARK    3  A    between atoms: C_6  and  C_7
REMARK    4  A    between atoms: C_7  and  N_8
REMARK    5  A    between atoms: C_10  and  C_11
REMARK    6  A    between atoms: C_11  and  C_12
REMARK    7  A    between atoms: C_12  and  C_13
REMARK    8  A    between atoms: C_13  and  C_14
REMARK    9  A    between atoms: C_14  and  C_15
REMARK   10  A    between atoms: C_15  and  C_16
REMARK                            x       y       z     vdW  Elec       q    Type
REMARK                         _______ _______ _______ _____ _____    ______ ____
ROOT
ATOM      1  C   UNL     1       2.953   2.687  21.145  0.00  0.00    +0.000 C 
ENDROOT
BRANCH   1   4
ATOM      2  N   UNL     1       1.916   6.052  20.340  0.00  0.00    +0.000 N 
ATOM      3  C   UNL     1       2.937   5.224  20.693  0.00  0.00    +0.000 A 
ATOM      4  C   UNL     1       2.332   3.998  20.841  0.00  0.00    +0.000 A 
ATOM      5  N   UNL     1       0.983   4.134  20.652  0.00  0.00    +0.000 NA
ATOM      6  N   UNL     1       0.737   5.400  20.339  0.00  0.00    +0.000 NA
BRANCH   2   7
ATOM      7  C   UNL     1       2.032   7.377  19.758  0.00  0.00    +0.000 C 
BRANCH   7  11
ATOM      8  C   UNL     1       0.087  10.467  22.068  0.00  0.00    +0.000 A 
ATOM      9  C   UNL     1       0.692   9.382  22.703  0.00  0.00    +0.000 A 
ATOM     10  C   UNL     1       1.314   8.380  21.958  0.00  0.00    +0.000 A 
ATOM     11  C   UNL     1       1.322   8.437  20.556  0.00  0.00    +0.000 A 
ATOM     12  C   UNL     1       0.699   9.523  19.924  0.00  0.00    +0.000 A 
ATOM     13  C   UNL     1       0.084  10.531  20.677  0.00  0.00    +0.000 A 
BRANCH   8  15
ATOM     14  C   UNL     1      -1.245  12.408  22.268  0.00  0.00    +0.000 C 
ATOM     15  O   UNL     1      -0.496  11.379  22.906  0.00  0.00    +0.000 OA
ENDBRANCH   8  15
ENDBRANCH   7  11
ENDBRANCH   2   7
ENDBRANCH   1   4
BRANCH   1  16
ATOM     16  C   UNL     1       3.747   2.128  19.961  0.00  0.00    +0.000 C 
BRANCH  16  17
ATOM     17  C   UNL     1       2.941   2.084  18.658  0.00  0.00    +0.000 C 
BRANCH  17  18
ATOM     18  C   UNL     1       3.749   2.493  17.427  0.00  0.00    +0.000 C 
BRANCH  18  19
ATOM     19  C   UNL     1       3.592   3.985  17.133  0.00  0.00    +0.000 C 
BRANCH  19  20
ATOM     20  C   UNL     1       4.797   4.823  17.537  0.00  0.00    +0.000 C 
ATOM     21  S   UNL     1       4.652   6.569  17.073  0.00  0.00    +0.000 S 
ATOM     22  C   UNL     1       6.422   6.838  17.256  0.00  0.00    +0.000 C 
ATOM     23  C   UNL     1       7.087   5.548  16.776  0.00  0.00    +0.000 C 
ATOM     24  N   UNL     1       7.405   5.577  15.364  0.00  0.00    +0.000 N 
ATOM     25  C   UNL     1       6.751   4.598  14.663  0.00  0.00    +0.000 C 
ATOM     26  O   UNL     1       6.830   4.402  13.460  0.00  0.00    +0.000 OA
ATOM     27  N   UNL     1       6.001   3.860  15.545  0.00  0.00    +0.000 N 
ATOM     28  C   UNL     1       6.117   4.350  16.905  0.00  0.00    +0.000 C 
ATOM     29  H   UNL     1       8.015   6.233  14.889  0.00  0.00    +0.000 HD
ATOM     30  H   UNL     1       5.462   3.072  15.223  0.00  0.00    +0.000 HD
ENDBRANCH  19  20
ENDBRANCH  18  19
ENDBRANCH  17  18
ENDBRANCH  16  17
ENDBRANCH   1  16
TORSDOF 9
ENDMDL
MODEL 9
REMARK VINA RESULT:      -7.3      1.563      1.871
REMARK  Name = 
REMARK  10 active torsions:
REMARK  status: ('A' for Active; 'I' for Inactive)
REMARK    1  A    between atoms: C_1  and  O_2
REMARK    2  A    between atoms: O_2  and  C_3
REMARK    3  A    between atoms: C_6  and  C_7
REMARK    4  A    between atoms: C_7  and  N_8
REMARK    5  A    between atoms: C_10  and  C_11
REMARK    6  A    between atoms: C_11  and  C_12
REMARK    7  A    between atoms: C_12  and  C_13
REMARK    8  A    between atoms: C_13  and  C_14
REMARK    9  A    between atoms: C_14  and  C_15
REMARK   10  A    between atoms: C_15  and  C_16
REMARK                            x       y       z     vdW  Elec       q    Type
REMARK                         _______ _______ _______ _____ _____    ______ ____
ROOT
ATOM      1  C   UNL     1       8.400   8.226  18.235  0.00  0.00    +0.000 C 
ENDROOT
BRANCH   1   4
ATOM      2  N   UNL     1       5.689   6.267  16.871  0.00  0.00    +0.000 N 
ATOM      3  C   UNL     1       6.119   7.082  17.873  0.00  0.00    +0.000 A 
ATOM      4  C   UNL     1       7.432   7.336  17.551  0.00  0.00    +0.000 A 
ATOM      5  N   UNL     1       7.769   6.621  16.433  0.00  0.00    +0.000 NA
ATOM      6  N   UNL     1       6.689   5.972  16.019  0.00  0.00    +0.000 NA
BRANCH   2   7
ATOM      7  C   UNL     1       4.312   5.952  16.537  0.00  0.00    +0.000 C 
BRANCH   7  11
ATOM      8  C   UNL     1       2.539   3.232  19.389  0.00  0.00    +0.000 A 
ATOM      9  C   UNL     1       3.821   2.999  18.890  0.00  0.00    +0.000 A 
ATOM     10  C   UNL     1       4.392   3.873  17.964  0.00  0.00    +0.000 A 
ATOM     11  C   UNL     1       3.676   4.989  17.502  0.00  0.00    +0.000 A 
ATOM     12  C   UNL     1       2.382   5.207  17.997  0.00  0.00    +0.000 A 
ATOM     13  C   UNL     1       1.817   4.332  18.934  0.00  0.00    +0.000 A 
BRANCH   8  15
ATOM     14  C   UNL     1       1.860   2.777  21.605  0.00  0.00    +0.000 C 
ATOM     15  O   UNL     1       2.087   2.300  20.283  0.00  0.00    +0.000 OA
ENDBRANCH   8  15
ENDBRANCH   7  11
ENDBRANCH   2   7
ENDBRANCH   1   4
BRANCH   1  16
ATOM     16  C   UNL     1       8.123   9.708  17.964  0.00  0.00    +0.000 C 
BRANCH  16  17
ATOM     17  C   UNL     1       9.038  10.649  18.754  0.00  0.00    +0.000 C 
BRANCH  17  18
ATOM     18  C   UNL     1      10.204  11.198  17.933  0.00  0.00    +0.000 C 
BRANCH  18  19
ATOM     19  C   UNL     1       9.963  12.655  17.536  0.00  0.00    +0.000 C 
BRANCH  19  20
ATOM     20  C   UNL     1       8.993  13.391  18.448  0.00  0.00    +0.000 C 
ATOM     21  S   UNL     1       7.461  13.894  17.619  0.00  0.00    +0.000 S 
ATOM     22  C   UNL     1       7.074  15.090  18.908  0.00  0.00    +0.000 C 
ATOM     23  C   UNL     1       8.416  15.674  19.346  0.00  0.00    +0.000 C 
ATOM     24  N   UNL     1       8.780  16.858  18.598  0.00  0.00    +0.000 N 
ATOM     25  C   UNL     1       9.946  16.695  17.898  0.00  0.00    +0.000 C 
ATOM     26  O   UNL     1      10.476  17.529  17.181  0.00  0.00    +0.000 OA
ATOM     27  N   UNL     1      10.433  15.437  18.154  0.00  0.00    +0.000 N 
ATOM     28  C   UNL     1       9.569  14.687  19.045  0.00  0.00    +0.000 C 
ATOM     29  H   UNL     1       8.261  17.728  18.542  0.00  0.00    +0.000 HD
ATOM     30  H   UNL     1      11.303  15.133  17.747  0.00  0.00    +0.000 HD
ENDBRANCH  19  20
ENDBRANCH  18  19
ENDBRANCH  17  18
ENDBRANCH  16  17
ENDBRANCH   1  16
TORSDOF 9
ENDMDL
