MODEL 1
REMARK VINA RESULT:      -7.1      0.000      0.000
REMARK  Name = 
REMARK  20 active torsions:
REMARK  status: ('A' for Active; 'I' for Inactive)
REMARK    1  A    between atoms: C_1  and  C_2
REMARK    2  A    between atoms: C_2  and  N_3
REMARK    3  A    between atoms: C_4  and  C_5
REMARK    4  A    between atoms: N_7  and  C_8
REMARK    5  A    between atoms: C_8  and  C_9
REMARK    6  A    between atoms: C_9  and  N_10
REMARK    7  A    between atoms: C_13  and  C_14
REMARK    8  A    between atoms: C_14  and  C_15
REMARK    9  A    between atoms: C_14  and  C_17
REMARK   10  A    between atoms: C_14  and  C_19
REMARK   11  A    between atoms: C_15  and  C_16
REMARK   12  A    between atoms: C_17  and  C_18
REMARK   13  A    between atoms: C_22  and  O_23
REMARK   14  A    between atoms: O_23  and  C_24
REMARK   15  A    between atoms: C_24  and  C_25
REMARK   16  A    between atoms: C_25  and  C_27
REMARK   17  A    between atoms: C_27  and  C_28
REMARK   18  A    between atoms: C_27  and  C_29
REMARK   19  A    between atoms: C_27  and  C_30
REMARK   20  A    between atoms: C_31  and  C_32
REMARK                            x       y       z     vdW  Elec       q    Type
REMARK                         _______ _______ _______ _____ _____    ______ ____
ROOT
ATOM      1  C   UNL     1       0.728  10.573  19.919  0.00  0.00    +0.000 C 
ENDROOT
BRANCH   1   2
ATOM      2  C   UNL     1       1.465   9.300  19.400  0.00  0.00    +0.000 A 
ATOM      3  C   UNL     1       2.093   9.252  18.144  0.00  0.00    +0.000 A 
ATOM      4  C   UNL     1       2.656   8.074  17.646  0.00  0.00    +0.000 A 
ATOM      5  C   UNL     1       2.636   6.885  18.377  0.00  0.00    +0.000 A 
ATOM      6  C   UNL     1       2.084   6.899  19.666  0.00  0.00    +0.000 A 
ATOM      7  C   UNL     1       2.066   5.760  20.646  0.00  0.00    +0.000 C 
ATOM      8  C   UNL     1       1.497   8.106  20.146  0.00  0.00    +0.000 A 
BRANCH   5   9
ATOM      9  O   UNL     1       3.224   5.859  17.686  0.00  0.00    +0.000 OA
BRANCH   9  10
ATOM     10  C   UNL     1       4.591   5.988  17.354  0.00  0.00    +0.000 C 
BRANCH  10  11
ATOM     11  C   UNL     1       5.587   5.555  18.447  0.00  0.00    +0.000 C 
ATOM     12  O   UNL     1       5.211   5.102  19.529  0.00  0.00    +0.000 OA
BRANCH  11  13
ATOM     13  C   UNL     1       7.095   5.735  18.119  0.00  0.00    +0.000 C 
ATOM     14  C   UNL     1       7.560   4.606  17.189  0.00  0.00    +0.000 C 
ATOM     15  C   UNL     1       7.338   7.080  17.411  0.00  0.00    +0.000 C 
ATOM     16  C   UNL     1       7.923   5.720  19.412  0.00  0.00    +0.000 C 
ENDBRANCH  11  13
ENDBRANCH  10  11
ENDBRANCH   9  10
ENDBRANCH   5   9
ENDBRANCH   1   2
BRANCH   1  21
ATOM     17  N   UNL     1      -1.704  11.667  19.640  0.00  0.00    +0.000 N 
ATOM     18  C   UNL     1      -2.837  11.469  18.836  0.00  0.00    +0.000 A 
ATOM     19  C   UNL     1      -2.477  10.548  17.869  0.00  0.00    +0.000 A 
ATOM     20  C   UNL     1      -1.143  10.161  18.105  0.00  0.00    +0.000 A 
ATOM     21  C   UNL     1      -0.654  10.835  19.220  0.00  0.00    +0.000 A 
BRANCH  18  22
ATOM     22  C   UNL     1      -4.143  12.090  19.048  0.00  0.00    +0.000 C 
ATOM     23  O   UNL     1      -4.597  12.360  20.163  0.00  0.00    +0.000 OA
ATOM     24  N   UNL     1      -4.864  12.379  17.913  0.00  0.00    +0.000 N 
ATOM     25  H   UNL     1      -4.424  12.300  17.007  0.00  0.00    +0.000 HD
BRANCH  24  26
ATOM     26  C   UNL     1      -6.194  12.959  17.995  0.00  0.00    +0.000 C 
BRANCH  26  27
ATOM     27  C   UNL     1      -7.303  11.905  18.132  0.00  0.00    +0.000 C 
BRANCH  27  28
ATOM     28  N   UNL     1      -7.631  11.643  19.539  0.00  0.00    +0.000 NA
ATOM     29  H   UNL     1      -7.638  12.531  20.039  0.00  0.00    +0.000 HD
ATOM     30  H   UNL     1      -6.881  11.091  19.953  0.00  0.00    +0.000 HD
ENDBRANCH  27  28
ENDBRANCH  26  27
ENDBRANCH  24  26
ENDBRANCH  18  22
BRANCH  17  32
ATOM     31  C   UNL     1      -1.351  14.079  20.215  0.00  0.00    +0.000 C 
ATOM     32  C   UNL     1      -1.708  12.682  20.685  0.00  0.00    +0.000 C 
ENDBRANCH  17  32
ENDBRANCH   1  21
BRANCH   1  33
ATOM     33  C   UNL     1       0.605  10.489  21.496  0.00  0.00    +0.000 C 
ATOM     34  C   UNL     1      -0.413   9.566  22.158  0.00  0.00    +0.000 C 
ENDBRANCH   1  33
BRANCH   1  35
ATOM     35  C   UNL     1       1.631  11.858  19.659  0.00  0.00    +0.000 C 
ATOM     36  C   UNL     1       1.414  12.676  18.388  0.00  0.00    +0.000 C 
ENDBRANCH   1  35
TORSDOF 13
ENDMDL
MODEL 2
REMARK VINA RESULT:      -7.1      2.801      3.855
REMARK  Name = 
REMARK  20 active torsions:
REMARK  status: ('A' for Active; 'I' for Inactive)
REMARK    1  A    between atoms: C_1  and  C_2
REMARK    2  A    between atoms: C_2  and  N_3
REMARK    3  A    between atoms: C_4  and  C_5
REMARK    4  A    between atoms: N_7  and  C_8
REMARK    5  A    between atoms: C_8  and  C_9
REMARK    6  A    between atoms: C_9  and  N_10
REMARK    7  A    between atoms: C_13  and  C_14
REMARK    8  A    between atoms: C_14  and  C_15
REMARK    9  A    between atoms: C_14  and  C_17
REMARK   10  A    between atoms: C_14  and  C_19
REMARK   11  A    between atoms: C_15  and  C_16
REMARK   12  A    between atoms: C_17  and  C_18
REMARK   13  A    between atoms: C_22  and  O_23
REMARK   14  A    between atoms: O_23  and  C_24
REMARK   15  A    between atoms: C_24  and  C_25
REMARK   16  A    between atoms: C_25  and  C_27
REMARK   17  A    between atoms: C_27  and  C_28
REMARK   18  A    between atoms: C_27  and  C_29
REMARK   19  A    between atoms: C_27  and  C_30
REMARK   20  A    between atoms: C_31  and  C_32
REMARK                            x       y       z     vdW  Elec       q    Type
REMARK                         _______ _______ _______ _____ _____    ______ ____
ROOT
ATOM      1  C   UNL     1       0.177  11.157  19.464  0.00  0.00    +0.000 C 
ENDROOT
BRANCH   1   2
ATOM      2  C   UNL     1       1.045   9.887  19.206  0.00  0.00    +0.000 A 
ATOM      3  C   UNL     1       1.807   9.719  18.037  0.00  0.00    +0.000 A 
ATOM      4  C   UNL     1       2.494   8.533  17.769  0.00  0.00    +0.000 A 
ATOM      5  C   UNL     1       2.469   7.454  18.655  0.00  0.00    +0.000 A 
ATOM      6  C   UNL     1       1.781   7.598  19.868  0.00  0.00    +0.000 A 
ATOM      7  C   UNL     1       1.729   6.602  20.992  0.00  0.00    +0.000 C 
ATOM      8  C   UNL     1       1.070   8.809  20.112  0.00  0.00    +0.000 A 
BRANCH   5   9
ATOM      9  O   UNL     1       3.192   6.394  18.177  0.00  0.00    +0.000 OA
BRANCH   9  10
ATOM     10  C   UNL     1       2.486   5.228  17.807  0.00  0.00    +0.000 C 
BRANCH  10  11
ATOM     11  C   UNL     1       3.296   3.919  17.841  0.00  0.00    +0.000 C 
ATOM     12  O   UNL     1       4.304   3.757  17.151  0.00  0.00    +0.000 OA
BRANCH  11  13
ATOM     13  C   UNL     1       2.766   2.801  18.782  0.00  0.00    +0.000 C 
ATOM     14  C   UNL     1       3.470   1.476  18.459  0.00  0.00    +0.000 C 
ATOM     15  C   UNL     1       3.048   3.155  20.253  0.00  0.00    +0.000 C 
ATOM     16  C   UNL     1       1.248   2.642  18.612  0.00  0.00    +0.000 C 
ENDBRANCH  11  13
ENDBRANCH  10  11
ENDBRANCH   9  10
ENDBRANCH   5   9
ENDBRANCH   1   2
BRANCH   1  21
ATOM     17  N   UNL     1      -1.587  11.998  21.300  0.00  0.00    +0.000 N 
ATOM     18  C   UNL     1      -1.840  11.778  22.663  0.00  0.00    +0.000 A 
ATOM     19  C   UNL     1      -1.011  10.742  23.054  0.00  0.00    +0.000 A 
ATOM     20  C   UNL     1      -0.233  10.358  21.945  0.00  0.00    +0.000 A 
ATOM     21  C   UNL     1      -0.565  11.147  20.847  0.00  0.00    +0.000 A 
BRANCH  18  22
ATOM     22  C   UNL     1      -2.765  12.554  23.486  0.00  0.00    +0.000 C 
ATOM     23  O   UNL     1      -2.510  13.680  23.923  0.00  0.00    +0.000 OA
ATOM     24  N   UNL     1      -3.976  11.960  23.755  0.00  0.00    +0.000 N 
ATOM     25  H   UNL     1      -4.237  11.114  23.269  0.00  0.00    +0.000 HD
BRANCH  24  26
ATOM     26  C   UNL     1      -4.963  12.614  24.598  0.00  0.00    +0.000 C 
BRANCH  26  27
ATOM     27  C   UNL     1      -6.083  13.295  23.797  0.00  0.00    +0.000 C 
BRANCH  27  28
ATOM     28  N   UNL     1      -7.212  13.671  24.656  0.00  0.00    +0.000 NA
ATOM     29  H   UNL     1      -7.951  12.980  24.539  0.00  0.00    +0.000 HD
ATOM     30  H   UNL     1      -7.596  14.555  24.324  0.00  0.00    +0.000 HD
ENDBRANCH  27  28
ENDBRANCH  26  27
ENDBRANCH  24  26
ENDBRANCH  18  22
BRANCH  17  32
ATOM     31  C   UNL     1      -1.835  14.356  20.493  0.00  0.00    +0.000 C 
ATOM     32  C   UNL     1      -2.393  12.947  20.542  0.00  0.00    +0.000 C 
ENDBRANCH  17  32
ENDBRANCH   1  21
BRANCH   1  33
ATOM     33  C   UNL     1       1.081  12.444  19.269  0.00  0.00    +0.000 C 
ATOM     34  C   UNL     1       1.907  13.008  20.421  0.00  0.00    +0.000 C 
ENDBRANCH   1  33
BRANCH   1  35
ATOM     35  C   UNL     1      -0.939  11.281  18.337  0.00  0.00    +0.000 C 
ATOM     36  C   UNL     1      -1.909  10.122  18.119  0.00  0.00    +0.000 C 
ENDBRANCH   1  35
TORSDOF 13
ENDMDL
MODEL 3
REMARK VINA RESULT:      -7.1      2.105      3.015
REMARK  Name = 
REMARK  20 active torsions:
REMARK  status: ('A' for Active; 'I' for Inactive)
REMARK    1  A    between atoms: C_1  and  C_2
REMARK    2  A    between atoms: C_2  and  N_3
REMARK    3  A    between atoms: C_4  and  C_5
REMARK    4  A    between atoms: N_7  and  C_8
REMARK    5  A    between atoms: C_8  and  C_9
REMARK    6  A    between atoms: C_9  and  N_10
REMARK    7  A    between atoms: C_13  and  C_14
REMARK    8  A    between atoms: C_14  and  C_15
REMARK    9  A    between atoms: C_14  and  C_17
REMARK   10  A    between atoms: C_14  and  C_19
REMARK   11  A    between atoms: C_15  and  C_16
REMARK   12  A    between atoms: C_17  and  C_18
REMARK   13  A    between atoms: C_22  and  O_23
REMARK   14  A    between atoms: O_23  and  C_24
REMARK   15  A    between atoms: C_24  and  C_25
REMARK   16  A    between atoms: C_25  and  C_27
REMARK   17  A    between atoms: C_27  and  C_28
REMARK   18  A    between atoms: C_27  and  C_29
REMARK   19  A    between atoms: C_27  and  C_30
REMARK   20  A    between atoms: C_31  and  C_32
REMARK                            x       y       z     vdW  Elec       q    Type
REMARK                         _______ _______ _______ _____ _____    ______ ____
ROOT
ATOM      1  C   UNL     1      -0.847  11.295  20.038  0.00  0.00    +0.000 C 
ENDROOT
BRANCH   1   2
ATOM      2  C   UNL     1       0.029  10.006  20.097  0.00  0.00    +0.000 A 
ATOM      3  C   UNL     1       0.043   9.154  21.214  0.00  0.00    +0.000 A 
ATOM      4  C   UNL     1       0.910   8.063  21.299  0.00  0.00    +0.000 A 
ATOM      5  C   UNL     1       1.802   7.753  20.270  0.00  0.00    +0.000 A 
ATOM      6  C   UNL     1       1.777   8.530  19.104  0.00  0.00    +0.000 A 
ATOM      7  C   UNL     1       2.574   8.294  17.851  0.00  0.00    +0.000 C 
ATOM      8  C   UNL     1       0.898   9.651  19.047  0.00  0.00    +0.000 A 
BRANCH   5   9
ATOM      9  O   UNL     1       2.566   6.659  20.579  0.00  0.00    +0.000 OA
BRANCH   9  10
ATOM     10  C   UNL     1       2.233   5.430  19.968  0.00  0.00    +0.000 C 
BRANCH  10  11
ATOM     11  C   UNL     1       3.368   4.745  19.183  0.00  0.00    +0.000 C 
ATOM     12  O   UNL     1       4.555   4.956  19.436  0.00  0.00    +0.000 OA
BRANCH  11  13
ATOM     13  C   UNL     1       2.937   3.784  18.041  0.00  0.00    +0.000 C 
ATOM     14  C   UNL     1       1.559   4.199  17.508  0.00  0.00    +0.000 C 
ATOM     15  C   UNL     1       3.945   3.839  16.879  0.00  0.00    +0.000 C 
ATOM     16  C   UNL     1       2.884   2.338  18.558  0.00  0.00    +0.000 C 
ENDBRANCH  11  13
ENDBRANCH  10  11
ENDBRANCH   9  10
ENDBRANCH   5   9
ENDBRANCH   1   2
BRANCH   1  21
ATOM     17  N   UNL     1      -3.283  11.872  19.076  0.00  0.00    +0.000 N 
ATOM     18  C   UNL     1      -4.156  11.359  18.104  0.00  0.00    +0.000 A 
ATOM     19  C   UNL     1      -3.447  10.394  17.411  0.00  0.00    +0.000 A 
ATOM     20  C   UNL     1      -2.163  10.296  17.980  0.00  0.00    +0.000 A 
ATOM     21  C   UNL     1      -2.052  11.198  19.035  0.00  0.00    +0.000 A 
BRANCH  18  22
ATOM     22  C   UNL     1      -5.552  11.752  17.930  0.00  0.00    +0.000 C 
ATOM     23  O   UNL     1      -6.503  11.121  18.400  0.00  0.00    +0.000 OA
ATOM     24  N   UNL     1      -5.768  12.901  17.204  0.00  0.00    +0.000 N 
ATOM     25  H   UNL     1      -4.987  13.492  16.959  0.00  0.00    +0.000 HD
BRANCH  24  26
ATOM     26  C   UNL     1      -7.115  13.372  16.927  0.00  0.00    +0.000 C 
BRANCH  26  27
ATOM     27  C   UNL     1      -7.334  14.839  17.327  0.00  0.00    +0.000 C 
BRANCH  27  28
ATOM     28  N   UNL     1      -6.285  15.315  18.236  0.00  0.00    +0.000 NA
ATOM     29  H   UNL     1      -5.573  14.591  18.315  0.00  0.00    +0.000 HD
ATOM     30  H   UNL     1      -6.683  15.423  19.168  0.00  0.00    +0.000 HD
ENDBRANCH  27  28
ENDBRANCH  26  27
ENDBRANCH  24  26
ENDBRANCH  18  22
BRANCH  17  32
ATOM     31  C   UNL     1      -4.618  12.662  21.042  0.00  0.00    +0.000 C 
ATOM     32  C   UNL     1      -3.680  13.005  19.902  0.00  0.00    +0.000 C 
ENDBRANCH  17  32
ENDBRANCH   1  21
BRANCH   1  33
ATOM     33  C   UNL     1      -1.308  11.670  21.507  0.00  0.00    +0.000 C 
ATOM     34  C   UNL     1      -0.679  12.840  22.255  0.00  0.00    +0.000 C 
ENDBRANCH   1  33
BRANCH   1  35
ATOM     35  C   UNL     1       0.045  12.528  19.575  0.00  0.00    +0.000 C 
ATOM     36  C   UNL     1      -0.327  13.278  18.297  0.00  0.00    +0.000 C 
ENDBRANCH   1  35
TORSDOF 13
ENDMDL
MODEL 4
REMARK VINA RESULT:      -7.0      2.144      3.147
REMARK  Name = 
REMARK  20 active torsions:
REMARK  status: ('A' for Active; 'I' for Inactive)
REMARK    1  A    between atoms: C_1  and  C_2
REMARK    2  A    between atoms: C_2  and  N_3
REMARK    3  A    between atoms: C_4  and  C_5
REMARK    4  A    between atoms: N_7  and  C_8
REMARK    5  A    between atoms: C_8  and  C_9
REMARK    6  A    between atoms: C_9  and  N_10
REMARK    7  A    between atoms: C_13  and  C_14
REMARK    8  A    between atoms: C_14  and  C_15
REMARK    9  A    between atoms: C_14  and  C_17
REMARK   10  A    between atoms: C_14  and  C_19
REMARK   11  A    between atoms: C_15  and  C_16
REMARK   12  A    between atoms: C_17  and  C_18
REMARK   13  A    between atoms: C_22  and  O_23
REMARK   14  A    between atoms: O_23  and  C_24
REMARK   15  A    between atoms: C_24  and  C_25
REMARK   16  A    between atoms: C_25  and  C_27
REMARK   17  A    between atoms: C_27  and  C_28
REMARK   18  A    between atoms: C_27  and  C_29
REMARK   19  A    between atoms: C_27  and  C_30
REMARK   20  A    between atoms: C_31  and  C_32
REMARK                            x       y       z     vdW  Elec       q    Type
REMARK                         _______ _______ _______ _____ _____    ______ ____
ROOT
ATOM      1  C   UNL     1       0.279  11.396  19.576  0.00  0.00    +0.000 C 
ENDROOT
BRANCH   1   2
ATOM      2  C   UNL     1       1.056  10.080  19.262  0.00  0.00    +0.000 A 
ATOM      3  C   UNL     1       1.747   9.882  18.055  0.00  0.00    +0.000 A 
ATOM      4  C   UNL     1       2.348   8.661  17.742  0.00  0.00    +0.000 A 
ATOM      5  C   UNL     1       2.303   7.575  18.618  0.00  0.00    +0.000 A 
ATOM      6  C   UNL     1       1.686   7.745  19.865  0.00  0.00    +0.000 A 
ATOM      7  C   UNL     1       1.631   6.739  20.982  0.00  0.00    +0.000 C 
ATOM      8  C   UNL     1       1.062   8.992  20.156  0.00  0.00    +0.000 A 
BRANCH   5   9
ATOM      9  O   UNL     1       2.937   6.480  18.095  0.00  0.00    +0.000 OA
BRANCH   9  10
ATOM     10  C   UNL     1       4.200   6.675  17.493  0.00  0.00    +0.000 C 
BRANCH  10  11
ATOM     11  C   UNL     1       5.368   5.893  18.125  0.00  0.00    +0.000 C 
ATOM     12  O   UNL     1       5.280   5.378  19.240  0.00  0.00    +0.000 OA
BRANCH  11  13
ATOM     13  C   UNL     1       6.673   5.801  17.286  0.00  0.00    +0.000 C 
ATOM     14  C   UNL     1       7.423   7.138  17.348  0.00  0.00    +0.000 C 
ATOM     15  C   UNL     1       7.594   4.699  17.839  0.00  0.00    +0.000 C 
ATOM     16  C   UNL     1       6.340   5.457  15.826  0.00  0.00    +0.000 C 
ENDBRANCH  11  13
ENDBRANCH  10  11
ENDBRANCH   9  10
ENDBRANCH   5   9
ENDBRANCH   1   2
BRANCH   1  21
ATOM     17  N   UNL     1      -1.598  12.187  21.319  0.00  0.00    +0.000 N 
ATOM     18  C   UNL     1      -1.956  11.906  22.647  0.00  0.00    +0.000 A 
ATOM     19  C   UNL     1      -1.178  10.833  23.044  0.00  0.00    +0.000 A 
ATOM     20  C   UNL     1      -0.328  10.486  21.977  0.00  0.00    +0.000 A 
ATOM     21  C   UNL     1      -0.563  11.336  20.899  0.00  0.00    +0.000 A 
BRANCH  18  22
ATOM     22  C   UNL     1      -2.922  12.662  23.440  0.00  0.00    +0.000 C 
ATOM     23  O   UNL     1      -2.618  13.621  24.155  0.00  0.00    +0.000 OA
ATOM     24  N   UNL     1      -4.232  12.252  23.345  0.00  0.00    +0.000 N 
ATOM     25  H   UNL     1      -4.494  11.573  22.644  0.00  0.00    +0.000 HD
BRANCH  24  26
ATOM     26  C   UNL     1      -5.280  12.897  24.118  0.00  0.00    +0.000 C 
BRANCH  26  27
ATOM     27  C   UNL     1      -6.670  12.761  23.478  0.00  0.00    +0.000 C 
BRANCH  27  28
ATOM     28  N   UNL     1      -7.296  11.476  23.811  0.00  0.00    +0.000 NA
ATOM     29  H   UNL     1      -8.211  11.438  23.364  0.00  0.00    +0.000 HD
ATOM     30  H   UNL     1      -7.469  11.446  24.814  0.00  0.00    +0.000 HD
ENDBRANCH  27  28
ENDBRANCH  26  27
ENDBRANCH  24  26
ENDBRANCH  18  22
BRANCH  17  32
ATOM     31  C   UNL     1      -1.705  14.573  20.567  0.00  0.00    +0.000 C 
ATOM     32  C   UNL     1      -2.327  13.191  20.554  0.00  0.00    +0.000 C 
ENDBRANCH  17  32
ENDBRANCH   1  21
BRANCH   1  33
ATOM     33  C   UNL     1       1.298  12.610  19.559  0.00  0.00    +0.000 C 
ATOM     34  C   UNL     1       1.426  13.514  18.338  0.00  0.00    +0.000 C 
ENDBRANCH   1  33
BRANCH   1  35
ATOM     35  C   UNL     1      -0.736  11.714  18.392  0.00  0.00    +0.000 C 
ATOM     36  C   UNL     1      -1.733  10.642  17.958  0.00  0.00    +0.000 C 
ENDBRANCH   1  35
TORSDOF 13
ENDMDL
MODEL 5
REMARK VINA RESULT:      -6.9      2.594      4.087
REMARK  Name = 
REMARK  20 active torsions:
REMARK  status: ('A' for Active; 'I' for Inactive)
REMARK    1  A    between atoms: C_1  and  C_2
REMARK    2  A    between atoms: C_2  and  N_3
REMARK    3  A    between atoms: C_4  and  C_5
REMARK    4  A    between atoms: N_7  and  C_8
REMARK    5  A    between atoms: C_8  and  C_9
REMARK    6  A    between atoms: C_9  and  N_10
REMARK    7  A    between atoms: C_13  and  C_14
REMARK    8  A    between atoms: C_14  and  C_15
REMARK    9  A    between atoms: C_14  and  C_17
REMARK   10  A    between atoms: C_14  and  C_19
REMARK   11  A    between atoms: C_15  and  C_16
REMARK   12  A    between atoms: C_17  and  C_18
REMARK   13  A    between atoms: C_22  and  O_23
REMARK   14  A    between atoms: O_23  and  C_24
REMARK   15  A    between atoms: C_24  and  C_25
REMARK   16  A    between atoms: C_25  and  C_27
REMARK   17  A    between atoms: C_27  and  C_28
REMARK   18  A    between atoms: C_27  and  C_29
REMARK   19  A    between atoms: C_27  and  C_30
REMARK   20  A    between atoms: C_31  and  C_32
REMARK                            x       y       z     vdW  Elec       q    Type
REMARK                         _______ _______ _______ _____ _____    ______ ____
ROOT
ATOM      1  C   UNL     1       0.012  11.236  19.446  0.00  0.00    +0.000 C 
ENDROOT
BRANCH   1   2
ATOM      2  C   UNL     1       0.944  10.013  19.182  0.00  0.00    +0.000 A 
ATOM      3  C   UNL     1       1.726   9.898  18.021  0.00  0.00    +0.000 A 
ATOM      4  C   UNL     1       2.473   8.749  17.746  0.00  0.00    +0.000 A 
ATOM      5  C   UNL     1       2.492   7.660  18.618  0.00  0.00    +0.000 A 
ATOM      6  C   UNL     1       1.784   7.755  19.825  0.00  0.00    +0.000 A 
ATOM      7  C   UNL     1       1.769   6.743  20.936  0.00  0.00    +0.000 C 
ATOM      8  C   UNL     1       1.013   8.926  20.076  0.00  0.00    +0.000 A 
BRANCH   5   9
ATOM      9  O   UNL     1       3.271   6.642  18.136  0.00  0.00    +0.000 OA
BRANCH   9  10
ATOM     10  C   UNL     1       2.650   5.398  17.887  0.00  0.00    +0.000 C 
BRANCH  10  11
ATOM     11  C   UNL     1       3.407   4.160  18.402  0.00  0.00    +0.000 C 
ATOM     12  O   UNL     1       4.617   4.014  18.225  0.00  0.00    +0.000 OA
BRANCH  11  13
ATOM     13  C   UNL     1       2.559   3.091  19.147  0.00  0.00    +0.000 C 
ATOM     14  C   UNL     1       2.897   3.115  20.644  0.00  0.00    +0.000 C 
ATOM     15  C   UNL     1       1.057   3.382  18.982  0.00  0.00    +0.000 C 
ATOM     16  C   UNL     1       2.841   1.696  18.571  0.00  0.00    +0.000 C 
ENDBRANCH  11  13
ENDBRANCH  10  11
ENDBRANCH   9  10
ENDBRANCH   5   9
ENDBRANCH   1   2
BRANCH   1  21
ATOM     17  N   UNL     1      -1.708  12.049  21.335  0.00  0.00    +0.000 N 
ATOM     18  C   UNL     1      -1.954  11.781  22.691  0.00  0.00    +0.000 A 
ATOM     19  C   UNL     1      -1.150  10.707  23.030  0.00  0.00    +0.000 A 
ATOM     20  C   UNL     1      -0.394  10.347  21.898  0.00  0.00    +0.000 A 
ATOM     21  C   UNL     1      -0.716  11.190  20.837  0.00  0.00    +0.000 A 
BRANCH  18  22
ATOM     22  C   UNL     1      -2.847  12.548  23.556  0.00  0.00    +0.000 C 
ATOM     23  O   UNL     1      -3.968  12.160  23.895  0.00  0.00    +0.000 OA
ATOM     24  N   UNL     1      -2.365  13.757  23.999  0.00  0.00    +0.000 N 
ATOM     25  H   UNL     1      -1.395  13.996  23.846  0.00  0.00    +0.000 HD
BRANCH  24  26
ATOM     26  C   UNL     1      -3.176  14.630  24.831  0.00  0.00    +0.000 C 
BRANCH  26  27
ATOM     27  C   UNL     1      -4.206  15.440  24.029  0.00  0.00    +0.000 C 
BRANCH  27  28
ATOM     28  N   UNL     1      -5.566  14.916  24.210  0.00  0.00    +0.000 NA
ATOM     29  H   UNL     1      -5.878  15.147  25.152  0.00  0.00    +0.000 HD
ATOM     30  H   UNL     1      -5.533  13.898  24.165  0.00  0.00    +0.000 HD
ENDBRANCH  27  28
ENDBRANCH  26  27
ENDBRANCH  24  26
ENDBRANCH  18  22
BRANCH  17  32
ATOM     31  C   UNL     1      -3.884  12.597  20.224  0.00  0.00    +0.000 C 
ATOM     32  C   UNL     1      -2.495  13.050  20.626  0.00  0.00    +0.000 C 
ENDBRANCH  17  32
ENDBRANCH   1  21
BRANCH   1  33
ATOM     33  C   UNL     1       0.844  12.568  19.240  0.00  0.00    +0.000 C 
ATOM     34  C   UNL     1       1.849  13.039  20.286  0.00  0.00    +0.000 C 
ENDBRANCH   1  33
BRANCH   1  35
ATOM     35  C   UNL     1      -1.120  11.297  18.330  0.00  0.00    +0.000 C 
ATOM     36  C   UNL     1      -2.006  10.075  18.100  0.00  0.00    +0.000 C 
ENDBRANCH   1  35
TORSDOF 13
ENDMDL
MODEL 6
REMARK VINA RESULT:      -6.8      2.047      2.639
REMARK  Name = 
REMARK  20 active torsions:
REMARK  status: ('A' for Active; 'I' for Inactive)
REMARK    1  A    between atoms: C_1  and  C_2
REMARK    2  A    between atoms: C_2  and  N_3
REMARK    3  A    between atoms: C_4  and  C_5
REMARK    4  A    between atoms: N_7  and  C_8
REMARK    5  A    between atoms: C_8  and  C_9
REMARK    6  A    between atoms: C_9  and  N_10
REMARK    7  A    between atoms: C_13  and  C_14
REMARK    8  A    between atoms: C_14  and  C_15
REMARK    9  A    between atoms: C_14  and  C_17
REMARK   10  A    between atoms: C_14  and  C_19
REMARK   11  A    between atoms: C_15  and  C_16
REMARK   12  A    between atoms: C_17  and  C_18
REMARK   13  A    between atoms: C_22  and  O_23
REMARK   14  A    between atoms: O_23  and  C_24
REMARK   15  A    between atoms: C_24  and  C_25
REMARK   16  A    between atoms: C_25  and  C_27
REMARK   17  A    between atoms: C_27  and  C_28
REMARK   18  A    between atoms: C_27  and  C_29
REMARK   19  A    between atoms: C_27  and  C_30
REMARK   20  A    between atoms: C_31  and  C_32
REMARK                            x       y       z     vdW  Elec       q    Type
REMARK                         _______ _______ _______ _____ _____    ______ ____
ROOT
ATOM      1  C   UNL     1      -0.073  10.989  19.585  0.00  0.00    +0.000 C 
ENDROOT
BRANCH   1   2
ATOM      2  C   UNL     1       0.907   9.816  19.272  0.00  0.00    +0.000 A 
ATOM      3  C   UNL     1       1.668   9.764  18.093  0.00  0.00    +0.000 A 
ATOM      4  C   UNL     1       2.460   8.658  17.775  0.00  0.00    +0.000 A 
ATOM      5  C   UNL     1       2.546   7.550  18.619  0.00  0.00    +0.000 A 
ATOM      6  C   UNL     1       1.861   7.583  19.841  0.00  0.00    +0.000 A 
ATOM      7  C   UNL     1       1.914   6.545  20.927  0.00  0.00    +0.000 C 
ATOM      8  C   UNL     1       1.043   8.712  20.137  0.00  0.00    +0.000 A 
BRANCH   5   9
ATOM      9  O   UNL     1       3.360   6.581  18.096  0.00  0.00    +0.000 OA
BRANCH   9  10
ATOM     10  C   UNL     1       2.779   5.332  17.780  0.00  0.00    +0.000 C 
BRANCH  10  11
ATOM     11  C   UNL     1       3.558   4.094  18.262  0.00  0.00    +0.000 C 
ATOM     12  O   UNL     1       4.782   4.009  18.151  0.00  0.00    +0.000 OA
BRANCH  11  13
ATOM     13  C   UNL     1       2.715   2.946  18.884  0.00  0.00    +0.000 C 
ATOM     14  C   UNL     1       3.246   1.591  18.396  0.00  0.00    +0.000 C 
ATOM     15  C   UNL     1       2.806   2.979  20.420  0.00  0.00    +0.000 C 
ATOM     16  C   UNL     1       1.238   3.100  18.490  0.00  0.00    +0.000 C 
ENDBRANCH  11  13
ENDBRANCH  10  11
ENDBRANCH   9  10
ENDBRANCH   5   9
ENDBRANCH   1   2
BRANCH   1  21
ATOM     17  N   UNL     1      -2.590  11.659  18.949  0.00  0.00    +0.000 N 
ATOM     18  C   UNL     1      -3.590  11.201  18.077  0.00  0.00    +0.000 A 
ATOM     19  C   UNL     1      -3.000  10.242  17.273  0.00  0.00    +0.000 A 
ATOM     20  C   UNL     1      -1.660  10.092  17.677  0.00  0.00    +0.000 A 
ATOM     21  C   UNL     1      -1.394  10.955  18.737  0.00  0.00    +0.000 A 
BRANCH  18  22
ATOM     22  C   UNL     1      -4.985  11.635  18.088  0.00  0.00    +0.000 C 
ATOM     23  O   UNL     1      -5.401  12.612  17.460  0.00  0.00    +0.000 OA
ATOM     24  N   UNL     1      -5.846  10.877  18.847  0.00  0.00    +0.000 N 
ATOM     25  H   UNL     1      -5.532   9.996  19.230  0.00  0.00    +0.000 HD
BRANCH  24  26
ATOM     26  C   UNL     1      -7.250  11.232  18.972  0.00  0.00    +0.000 C 
BRANCH  26  27
ATOM     27  C   UNL     1      -7.583  11.909  20.310  0.00  0.00    +0.000 C 
BRANCH  27  28
ATOM     28  N   UNL     1      -7.715  10.930  21.395  0.00  0.00    +0.000 NA
ATOM     29  H   UNL     1      -8.601  11.093  21.871  0.00  0.00    +0.000 HD
ATOM     30  H   UNL     1      -6.986  11.105  22.085  0.00  0.00    +0.000 HD
ENDBRANCH  27  28
ENDBRANCH  26  27
ENDBRANCH  24  26
ENDBRANCH  18  22
BRANCH  17  32
ATOM     31  C   UNL     1      -3.658  12.418  21.083  0.00  0.00    +0.000 C 
ATOM     32  C   UNL     1      -2.850  12.774  19.851  0.00  0.00    +0.000 C 
ENDBRANCH  17  32
ENDBRANCH   1  21
BRANCH   1  33
ATOM     33  C   UNL     1      -0.354  11.021  21.144  0.00  0.00    +0.000 C 
ATOM     34  C   UNL     1      -0.128  12.291  21.959  0.00  0.00    +0.000 C 
ENDBRANCH   1  33
BRANCH   1  35
ATOM     35  C   UNL     1       0.640  12.378  19.281  0.00  0.00    +0.000 C 
ATOM     36  C   UNL     1       0.119  13.248  18.139  0.00  0.00    +0.000 C 
ENDBRANCH   1  35
TORSDOF 13
ENDMDL
MODEL 7
REMARK VINA RESULT:      -6.7      2.237      3.506
REMARK  Name = 
REMARK  20 active torsions:
REMARK  status: ('A' for Active; 'I' for Inactive)
REMARK    1  A    between atoms: C_1  and  C_2
REMARK    2  A    between atoms: C_2  and  N_3
REMARK    3  A    between atoms: C_4  and  C_5
REMARK    4  A    between atoms: N_7  and  C_8
REMARK    5  A    between atoms: C_8  and  C_9
REMARK    6  A    between atoms: C_9  and  N_10
REMARK    7  A    between atoms: C_13  and  C_14
REMARK    8  A    between atoms: C_14  and  C_15
REMARK    9  A    between atoms: C_14  and  C_17
REMARK   10  A    between atoms: C_14  and  C_19
REMARK   11  A    between atoms: C_15  and  C_16
REMARK   12  A    between atoms: C_17  and  C_18
REMARK   13  A    between atoms: C_22  and  O_23
REMARK   14  A    between atoms: O_23  and  C_24
REMARK   15  A    between atoms: C_24  and  C_25
REMARK   16  A    between atoms: C_25  and  C_27
REMARK   17  A    between atoms: C_27  and  C_28
REMARK   18  A    between atoms: C_27  and  C_29
REMARK   19  A    between atoms: C_27  and  C_30
REMARK   20  A    between atoms: C_31  and  C_32
REMARK                            x       y       z     vdW  Elec       q    Type
REMARK                         _______ _______ _______ _____ _____    ______ ____
ROOT
ATOM      1  C   UNL     1       0.167  11.165  19.454  0.00  0.00    +0.000 C 
ENDROOT
BRANCH   1   2
ATOM      2  C   UNL     1       1.032   9.897  19.178  0.00  0.00    +0.000 A 
ATOM      3  C   UNL     1       1.783   9.738  18.001  0.00  0.00    +0.000 A 
ATOM      4  C   UNL     1       2.466   8.553  17.718  0.00  0.00    +0.000 A 
ATOM      5  C   UNL     1       2.449   7.468  18.595  0.00  0.00    +0.000 A 
ATOM      6  C   UNL     1       1.773   7.603  19.816  0.00  0.00    +0.000 A 
ATOM      7  C   UNL     1       1.731   6.598  20.933  0.00  0.00    +0.000 C 
ATOM      8  C   UNL     1       1.065   8.812  20.076  0.00  0.00    +0.000 A 
BRANCH   5   9
ATOM      9  O   UNL     1       3.167   6.411  18.103  0.00  0.00    +0.000 OA
BRANCH   9  10
ATOM     10  C   UNL     1       4.325   6.014  18.809  0.00  0.00    +0.000 C 
BRANCH  10  11
ATOM     11  C   UNL     1       5.202   4.957  18.113  0.00  0.00    +0.000 C 
ATOM     12  O   UNL     1       5.172   3.769  18.436  0.00  0.00    +0.000 OA
BRANCH  11  13
ATOM     13  C   UNL     1       6.142   5.471  16.987  0.00  0.00    +0.000 C 
ATOM     14  C   UNL     1       6.565   6.916  17.286  0.00  0.00    +0.000 C 
ATOM     15  C   UNL     1       7.409   4.601  16.901  0.00  0.00    +0.000 C 
ATOM     16  C   UNL     1       5.427   5.407  15.629  0.00  0.00    +0.000 C 
ENDBRANCH  11  13
ENDBRANCH  10  11
ENDBRANCH   9  10
ENDBRANCH   5   9
ENDBRANCH   1   2
BRANCH   1  21
ATOM     17  N   UNL     1      -1.576  12.004  21.312  0.00  0.00    +0.000 N 
ATOM     18  C   UNL     1      -1.844  11.746  22.665  0.00  0.00    +0.000 A 
ATOM     19  C   UNL     1      -1.054  10.669  23.023  0.00  0.00    +0.000 A 
ATOM     20  C   UNL     1      -0.284  10.296  21.905  0.00  0.00    +0.000 A 
ATOM     21  C   UNL     1      -0.583  11.134  20.834  0.00  0.00    +0.000 A 
BRANCH  18  22
ATOM     22  C   UNL     1      -2.744  12.525  23.511  0.00  0.00    +0.000 C 
ATOM     23  O   UNL     1      -3.856  12.129  23.872  0.00  0.00    +0.000 OA
ATOM     24  N   UNL     1      -2.280  13.757  23.912  0.00  0.00    +0.000 N 
ATOM     25  H   UNL     1      -1.316  14.007  23.744  0.00  0.00    +0.000 HD
BRANCH  24  26
ATOM     26  C   UNL     1      -3.101  14.642  24.721  0.00  0.00    +0.000 C 
BRANCH  26  27
ATOM     27  C   UNL     1      -4.161  15.396  23.903  0.00  0.00    +0.000 C 
BRANCH  27  28
ATOM     28  N   UNL     1      -5.509  14.870  24.148  0.00  0.00    +0.000 NA
ATOM     29  H   UNL     1      -5.430  14.039  24.732  0.00  0.00    +0.000 HD
ATOM     30  H   UNL     1      -5.904  14.558  23.262  0.00  0.00    +0.000 HD
ENDBRANCH  27  28
ENDBRANCH  26  27
ENDBRANCH  24  26
ENDBRANCH  18  22
BRANCH  17  32
ATOM     31  C   UNL     1      -3.744  12.574  20.194  0.00  0.00    +0.000 C 
ATOM     32  C   UNL     1      -2.344  13.006  20.584  0.00  0.00    +0.000 C 
ENDBRANCH  17  32
ENDBRANCH   1  21
BRANCH   1  33
ATOM     33  C   UNL     1       1.076  12.452  19.287  0.00  0.00    +0.000 C 
ATOM     34  C   UNL     1       1.866  13.017  20.463  0.00  0.00    +0.000 C 
ENDBRANCH   1  33
BRANCH   1  35
ATOM     35  C   UNL     1      -0.943  11.313  18.325  0.00  0.00    +0.000 C 
ATOM     36  C   UNL     1      -1.902  10.152  18.066  0.00  0.00    +0.000 C 
ENDBRANCH   1  35
TORSDOF 13
ENDMDL
MODEL 8
REMARK VINA RESULT:      -6.7      2.799      4.141
REMARK  Name = 
REMARK  20 active torsions:
REMARK  status: ('A' for Active; 'I' for Inactive)
REMARK    1  A    between atoms: C_1  and  C_2
REMARK    2  A    between atoms: C_2  and  N_3
REMARK    3  A    between atoms: C_4  and  C_5
REMARK    4  A    between atoms: N_7  and  C_8
REMARK    5  A    between atoms: C_8  and  C_9
REMARK    6  A    between atoms: C_9  and  N_10
REMARK    7  A    between atoms: C_13  and  C_14
REMARK    8  A    between atoms: C_14  and  C_15
REMARK    9  A    between atoms: C_14  and  C_17
REMARK   10  A    between atoms: C_14  and  C_19
REMARK   11  A    between atoms: C_15  and  C_16
REMARK   12  A    between atoms: C_17  and  C_18
REMARK   13  A    between atoms: C_22  and  O_23
REMARK   14  A    between atoms: O_23  and  C_24
REMARK   15  A    between atoms: C_24  and  C_25
REMARK   16  A    between atoms: C_25  and  C_27
REMARK   17  A    between atoms: C_27  and  C_28
REMARK   18  A    between atoms: C_27  and  C_29
REMARK   19  A    between atoms: C_27  and  C_30
REMARK   20  A    between atoms: C_31  and  C_32
REMARK                            x       y       z     vdW  Elec       q    Type
REMARK                         _______ _______ _______ _____ _____    ______ ____
ROOT
ATOM      1  C   UNL     1       0.248  11.170  19.470  0.00  0.00    +0.000 C 
ENDROOT
BRANCH   1   2
ATOM      2  C   UNL     1       1.098   9.896  19.172  0.00  0.00    +0.000 A 
ATOM      3  C   UNL     1       1.818   9.733  17.976  0.00  0.00    +0.000 A 
ATOM      4  C   UNL     1       2.486   8.544  17.675  0.00  0.00    +0.000 A 
ATOM      5  C   UNL     1       2.484   7.458  18.552  0.00  0.00    +0.000 A 
ATOM      6  C   UNL     1       1.840   7.597  19.790  0.00  0.00    +0.000 A 
ATOM      7  C   UNL     1       1.819   6.592  20.907  0.00  0.00    +0.000 C 
ATOM      8  C   UNL     1       1.147   8.811  20.068  0.00  0.00    +0.000 A 
BRANCH   5   9
ATOM      9  O   UNL     1       3.183   6.397  18.042  0.00  0.00    +0.000 OA
BRANCH   9  10
ATOM     10  C   UNL     1       3.129   5.173  18.745  0.00  0.00    +0.000 C 
BRANCH  10  11
ATOM     11  C   UNL     1       2.084   4.160  18.240  0.00  0.00    +0.000 C 
ATOM     12  O   UNL     1       1.287   4.437  17.342  0.00  0.00    +0.000 OA
BRANCH  11  13
ATOM     13  C   UNL     1       2.077   2.770  18.935  0.00  0.00    +0.000 C 
ATOM     14  C   UNL     1       2.441   2.931  20.418  0.00  0.00    +0.000 C 
ATOM     15  C   UNL     1       0.681   2.127  18.844  0.00  0.00    +0.000 C 
ATOM     16  C   UNL     1       3.080   1.830  18.251  0.00  0.00    +0.000 C 
ENDBRANCH  11  13
ENDBRANCH  10  11
ENDBRANCH   9  10
ENDBRANCH   5   9
ENDBRANCH   1   2
BRANCH   1  21
ATOM     17  N   UNL     1      -1.500  11.974  21.337  0.00  0.00    +0.000 N 
ATOM     18  C   UNL     1      -1.739  11.732  22.698  0.00  0.00    +0.000 A 
ATOM     19  C   UNL     1      -0.901  10.695  23.065  0.00  0.00    +0.000 A 
ATOM     20  C   UNL     1      -0.132  10.331  21.943  0.00  0.00    +0.000 A 
ATOM     21  C   UNL     1      -0.480  11.135  20.861  0.00  0.00    +0.000 A 
BRANCH  18  22
ATOM     22  C   UNL     1      -2.658  12.491  23.543  0.00  0.00    +0.000 C 
ATOM     23  O   UNL     1      -2.407  13.613  23.991  0.00  0.00    +0.000 OA
ATOM     24  N   UNL     1      -3.862  11.885  23.819  0.00  0.00    +0.000 N 
ATOM     25  H   UNL     1      -4.123  11.042  23.326  0.00  0.00    +0.000 HD
BRANCH  24  26
ATOM     26  C   UNL     1      -4.843  12.521  24.683  0.00  0.00    +0.000 C 
BRANCH  26  27
ATOM     27  C   UNL     1      -5.774  13.483  23.930  0.00  0.00    +0.000 C 
BRANCH  27  28
ATOM     28  N   UNL     1      -5.455  14.885  24.222  0.00  0.00    +0.000 NA
ATOM     29  H   UNL     1      -4.505  15.073  23.905  0.00  0.00    +0.000 HD
ATOM     30  H   UNL     1      -5.447  15.016  25.232  0.00  0.00    +0.000 HD
ENDBRANCH  27  28
ENDBRANCH  26  27
ENDBRANCH  24  26
ENDBRANCH  18  22
BRANCH  17  32
ATOM     31  C   UNL     1      -1.817  14.360  20.645  0.00  0.00    +0.000 C 
ATOM     32  C   UNL     1      -2.319  12.930  20.602  0.00  0.00    +0.000 C 
ENDBRANCH  17  32
ENDBRANCH   1  21
BRANCH   1  33
ATOM     33  C   UNL     1       1.166  12.450  19.297  0.00  0.00    +0.000 C 
ATOM     34  C   UNL     1       0.763  13.586  18.362  0.00  0.00    +0.000 C 
ENDBRANCH   1  33
BRANCH   1  35
ATOM     35  C   UNL     1      -0.878  11.335  18.359  0.00  0.00    +0.000 C 
ATOM     36  C   UNL     1      -1.861  10.190  18.119  0.00  0.00    +0.000 C 
ENDBRANCH   1  35
TORSDOF 13
ENDMDL
MODEL 9
REMARK VINA RESULT:      -6.7      2.449      3.736
REMARK  Name = 
REMARK  20 active torsions:
REMARK  status: ('A' for Active; 'I' for Inactive)
REMARK    1  A    between atoms: C_1  and  C_2
REMARK    2  A    between atoms: C_2  and  N_3
REMARK    3  A    between atoms: C_4  and  C_5
REMARK    4  A    between atoms: N_7  and  C_8
REMARK    5  A    between atoms: C_8  and  C_9
REMARK    6  A    between atoms: C_9  and  N_10
REMARK    7  A    between atoms: C_13  and  C_14
REMARK    8  A    between atoms: C_14  and  C_15
REMARK    9  A    between atoms: C_14  and  C_17
REMARK   10  A    between atoms: C_14  and  C_19
REMARK   11  A    between atoms: C_15  and  C_16
REMARK   12  A    between atoms: C_17  and  C_18
REMARK   13  A    between atoms: C_22  and  O_23
REMARK   14  A    between atoms: O_23  and  C_24
REMARK   15  A    between atoms: C_24  and  C_25
REMARK   16  A    between atoms: C_25  and  C_27
REMARK   17  A    between atoms: C_27  and  C_28
REMARK   18  A    between atoms: C_27  and  C_29
REMARK   19  A    between atoms: C_27  and  C_30
REMARK   20  A    between atoms: C_31  and  C_32
REMARK                            x       y       z     vdW  Elec       q    Type
REMARK                         _______ _______ _______ _____ _____    ______ ____
ROOT
ATOM      1  C   UNL     1       0.108  12.429  20.213  0.00  0.00    +0.000 C 
ENDROOT
BRANCH   1   2
ATOM      2  C   UNL     1       0.577  10.941  20.226  0.00  0.00    +0.000 A 
ATOM      3  C   UNL     1       0.589  10.165  21.397  0.00  0.00    +0.000 A 
ATOM      4  C   UNL     1       1.111   8.870  21.417  0.00  0.00    +0.000 A 
ATOM      5  C   UNL     1       1.637   8.272  20.270  0.00  0.00    +0.000 A 
ATOM      6  C   UNL     1       1.582   8.980  19.061  0.00  0.00    +0.000 A 
ATOM      7  C   UNL     1       1.992   8.472  17.706  0.00  0.00    +0.000 C 
ATOM      8  C   UNL     1       1.065  10.307  19.067  0.00  0.00    +0.000 A 
BRANCH   5   9
ATOM      9  O   UNL     1       2.109   7.013  20.529  0.00  0.00    +0.000 OA
BRANCH   9  10
ATOM     10  C   UNL     1       1.434   5.922  19.937  0.00  0.00    +0.000 C 
BRANCH  10  11
ATOM     11  C   UNL     1       2.336   4.824  19.343  0.00  0.00    +0.000 C 
ATOM     12  O   UNL     1       3.286   5.089  18.604  0.00  0.00    +0.000 OA
BRANCH  11  13
ATOM     13  C   UNL     1       1.976   3.358  19.712  0.00  0.00    +0.000 C 
ATOM     14  C   UNL     1       1.258   3.328  21.068  0.00  0.00    +0.000 C 
ATOM     15  C   UNL     1       1.040   2.749  18.653  0.00  0.00    +0.000 C 
ATOM     16  C   UNL     1       3.248   2.500  19.775  0.00  0.00    +0.000 C 
ENDBRANCH  11  13
ENDBRANCH  10  11
ENDBRANCH   9  10
ENDBRANCH   5   9
ENDBRANCH   1   2
BRANCH   1  21
ATOM     17  N   UNL     1      -2.532  12.082  19.900  0.00  0.00    +0.000 N 
ATOM     18  C   UNL     1      -3.713  12.649  20.402  0.00  0.00    +0.000 A 
ATOM     19  C   UNL     1      -3.335  13.507  21.419  0.00  0.00    +0.000 A 
ATOM     20  C   UNL     1      -1.930  13.487  21.512  0.00  0.00    +0.000 A 
ATOM     21  C   UNL     1      -1.412  12.618  20.555  0.00  0.00    +0.000 A 
BRANCH  18  22
ATOM     22  C   UNL     1      -5.056  12.402  19.884  0.00  0.00    +0.000 C 
ATOM     23  O   UNL     1      -5.460  12.831  18.799  0.00  0.00    +0.000 OA
ATOM     24  N   UNL     1      -5.877  11.636  20.678  0.00  0.00    +0.000 N 
ATOM     25  H   UNL     1      -5.494  11.162  21.484  0.00  0.00    +0.000 HD
BRANCH  24  26
ATOM     26  C   UNL     1      -7.250  11.356  20.291  0.00  0.00    +0.000 C 
BRANCH  26  27
ATOM     27  C   UNL     1      -7.655   9.893  20.527  0.00  0.00    +0.000 C 
BRANCH  27  28
ATOM     28  N   UNL     1      -7.481   9.081  19.316  0.00  0.00    +0.000 NA
ATOM     29  H   UNL     1      -7.068   8.188  19.584  0.00  0.00    +0.000 HD
ATOM     30  H   UNL     1      -6.800   9.537  18.711  0.00  0.00    +0.000 HD
ENDBRANCH  27  28
ENDBRANCH  26  27
ENDBRANCH  24  26
ENDBRANCH  18  22
BRANCH  17  32
ATOM     31  C   UNL     1      -2.427  11.507  17.465  0.00  0.00    +0.000 C 
ATOM     32  C   UNL     1      -2.588  11.029  18.894  0.00  0.00    +0.000 C 
ENDBRANCH  17  32
ENDBRANCH   1  21
BRANCH   1  33
ATOM     33  C   UNL     1       1.054  13.274  21.162  0.00  0.00    +0.000 C 
ATOM     34  C   UNL     1       2.530  13.472  20.830  0.00  0.00    +0.000 C 
ENDBRANCH   1  33
BRANCH   1  35
ATOM     35  C   UNL     1       0.340  13.051  18.766  0.00  0.00    +0.000 C 
ATOM     36  C   UNL     1      -0.164  14.463  18.473  0.00  0.00    +0.000 C 
ENDBRANCH   1  35
TORSDOF 13
ENDMDL
