MODEL 1
REMARK VINA RESULT:      -9.5      0.000      0.000
REMARK  Name = 
REMARK  6 active torsions:
REMARK  status: ('A' for Active; 'I' for Inactive)
REMARK    1  A    between atoms: C_1  and  C_2
REMARK    2  A    between atoms: C_2  and  C_3
REMARK    3  A    between atoms: N_5  and  C_6
REMARK    4  A    between atoms: C_9  and  C_10
REMARK    5  A    between atoms: C_12  and  C_13
REMARK    6  A    between atoms: C_24  and  C_25
REMARK                            x       y       z     vdW  Elec       q    Type
REMARK                         _______ _______ _______ _____ _____    ______ ____
ROOT
ATOM      1  C   UNL     1       0.360  10.688  19.286  0.00  0.00    +0.000 A 
ATOM      2  O   UNL     1      -1.004  10.618  19.443  0.00  0.00    +0.000 OA
ATOM      3  C   UNL     1      -1.442  11.898  19.215  0.00  0.00    +0.000 A 
ATOM      4  N   UNL     1      -0.474  12.754  18.939  0.00  0.00    +0.000 NA
ATOM      5  C   UNL     1       0.693  12.005  18.990  0.00  0.00    +0.000 A 
ENDROOT
BRANCH   3   6
ATOM      6  C   UNL     1      -2.877  12.141  19.324  0.00  0.00    +0.000 A 
ATOM      7  C   UNL     1      -3.468  12.728  20.460  0.00  0.00    +0.000 A 
ATOM      8  C   UNL     1      -4.843  12.961  20.518  0.00  0.00    +0.000 A 
ATOM      9  C   UNL     1      -5.671  12.609  19.452  0.00  0.00    +0.000 A 
ATOM     10 CL   UNL     1      -7.361  12.907  19.525  0.00  0.00    +0.000 Cl
ATOM     11  C   UNL     1      -5.087  12.021  18.326  0.00  0.00    +0.000 A 
ATOM     12  N   UNL     1      -5.665  11.579  17.155  0.00  0.00    +0.000 N 
ATOM     13  C   UNL     1      -4.711  11.083  16.312  0.00  0.00    +0.000 A 
ATOM     14  C   UNL     1      -3.494  11.211  16.939  0.00  0.00    +0.000 A 
ATOM     15  C   UNL     1      -3.710  11.787  18.231  0.00  0.00    +0.000 A 
ATOM     16  H   UNL     1      -6.658  11.624  16.960  0.00  0.00    +0.000 HD
ENDBRANCH   3   6
BRANCH   1  20
ATOM     17  C   UNL     1       2.219   6.863  19.853  0.00  0.00    +0.000 A 
ATOM     18  C   UNL     1       1.570   7.523  20.898  0.00  0.00    +0.000 A 
ATOM     19  C   UNL     1       1.055   8.810  20.742  0.00  0.00    +0.000 A 
ATOM     20  C   UNL     1       1.115   9.464  19.510  0.00  0.00    +0.000 A 
ATOM     21  C   UNL     1       1.803   8.842  18.470  0.00  0.00    +0.000 A 
ATOM     22  C   UNL     1       2.341   7.561  18.643  0.00  0.00    +0.000 A 
BRANCH  17  27
ATOM     23  C   UNL     1       1.697   3.955  17.538  0.00  0.00    +0.000 C 
ATOM     24  C   UNL     1       2.912   3.636  18.431  0.00  0.00    +0.000 C 
ATOM     25  C   UNL     1       3.949   2.900  17.564  0.00  0.00    +0.000 C 
ATOM     26  C   UNL     1       3.563   4.947  18.972  0.00  0.00    +0.000 C 
ATOM     27  N   UNL     1       2.709   5.584  19.983  0.00  0.00    +0.000 N 
ATOM     28  C   UNL     1       2.318   4.714  21.096  0.00  0.00    +0.000 C 
ATOM     29  C   UNL     1       1.698   3.408  20.550  0.00  0.00    +0.000 C 
ATOM     30  N   UNL     1       2.521   2.717  19.535  0.00  0.00    +0.000 NA
ATOM     31  H   UNL     1       1.992   1.934  19.155  0.00  0.00    +0.000 HD
ENDBRANCH  17  27
ENDBRANCH   1  20
BRANCH   5  32
ATOM     32  C   UNL     1       2.028  12.567  18.793  0.00  0.00    +0.000 C 
ATOM     33  N   UNL     1       2.635  12.314  17.589  0.00  0.00    +0.000 N 
ATOM     34  O   UNL     1       2.645  13.226  19.611  0.00  0.00    +0.000 OA
ATOM     35  H   UNL     1       2.172  11.842  16.825  0.00  0.00    +0.000 HD
ATOM     36  H   UNL     1       3.565  12.683  17.474  0.00  0.00    +0.000 HD
ENDBRANCH   5  32
TORSDOF 4
ENDMDL
MODEL 2
REMARK VINA RESULT:      -9.4      0.890      1.780
REMARK  Name = 
REMARK  6 active torsions:
REMARK  status: ('A' for Active; 'I' for Inactive)
REMARK    1  A    between atoms: C_1  and  C_2
REMARK    2  A    between atoms: C_2  and  C_3
REMARK    3  A    between atoms: N_5  and  C_6
REMARK    4  A    between atoms: C_9  and  C_10
REMARK    5  A    between atoms: C_12  and  C_13
REMARK    6  A    between atoms: C_24  and  C_25
REMARK                            x       y       z     vdW  Elec       q    Type
REMARK                         _______ _______ _______ _____ _____    ______ ____
ROOT
ATOM      1  C   UNL     1       0.320  10.591  18.967  0.00  0.00    +0.000 A 
ATOM      2  O   UNL     1      -1.049  10.457  18.961  0.00  0.00    +0.000 OA
ATOM      3  C   UNL     1      -1.516  11.721  18.701  0.00  0.00    +0.000 A 
ATOM      4  N   UNL     1      -0.563  12.624  18.552  0.00  0.00    +0.000 NA
ATOM      5  C   UNL     1       0.624  11.927  18.730  0.00  0.00    +0.000 A 
ENDROOT
BRANCH   3   6
ATOM      6  C   UNL     1      -2.963  11.897  18.644  0.00  0.00    +0.000 A 
ATOM      7  C   UNL     1      -3.728  11.572  17.507  0.00  0.00    +0.000 A 
ATOM      8  C   UNL     1      -5.115  11.738  17.499  0.00  0.00    +0.000 A 
ATOM      9  C   UNL     1      -5.778  12.240  18.618  0.00  0.00    +0.000 A 
ATOM     10 CL   UNL     1      -7.485  12.432  18.606  0.00  0.00    +0.000 Cl
ATOM     11  C   UNL     1      -5.020  12.569  19.746  0.00  0.00    +0.000 A 
ATOM     12  N   UNL     1      -5.416  13.081  20.963  0.00  0.00    +0.000 N 
ATOM     13  C   UNL     1      -4.337  13.236  21.787  0.00  0.00    +0.000 A 
ATOM     14  C   UNL     1      -3.224  12.811  21.100  0.00  0.00    +0.000 A 
ATOM     15  C   UNL     1      -3.631  12.401  19.791  0.00  0.00    +0.000 A 
ATOM     16  H   UNL     1      -6.375  13.303  21.200  0.00  0.00    +0.000 HD
ENDBRANCH   3   6
BRANCH   1  20
ATOM     17  C   UNL     1       2.259   6.844  19.743  0.00  0.00    +0.000 A 
ATOM     18  C   UNL     1       1.574   7.535  20.745  0.00  0.00    +0.000 A 
ATOM     19  C   UNL     1       1.032   8.800  20.521  0.00  0.00    +0.000 A 
ATOM     20  C   UNL     1       1.099   9.398  19.261  0.00  0.00    +0.000 A 
ATOM     21  C   UNL     1       1.822   8.745  18.263  0.00  0.00    +0.000 A 
ATOM     22  C   UNL     1       2.387   7.488  18.505  0.00  0.00    +0.000 A 
BRANCH  17  27
ATOM     23  C   UNL     1       1.833   3.814  17.569  0.00  0.00    +0.000 C 
ATOM     24  C   UNL     1       3.043   3.569  18.490  0.00  0.00    +0.000 C 
ATOM     25  C   UNL     1       4.108   2.816  17.672  0.00  0.00    +0.000 C 
ATOM     26  C   UNL     1       3.657   4.919  18.973  0.00  0.00    +0.000 C 
ATOM     27  N   UNL     1       2.777   5.585  19.942  0.00  0.00    +0.000 N 
ATOM     28  C   UNL     1       2.393   4.761  21.092  0.00  0.00    +0.000 C 
ATOM     29  C   UNL     1       1.810   3.415  20.605  0.00  0.00    +0.000 C 
ATOM     30  N   UNL     1       2.661   2.695  19.633  0.00  0.00    +0.000 NA
ATOM     31  H   UNL     1       2.155   1.882  19.287  0.00  0.00    +0.000 HD
ENDBRANCH  17  27
ENDBRANCH   1  20
BRANCH   5  32
ATOM     32  C   UNL     1       1.945  12.552  18.700  0.00  0.00    +0.000 C 
ATOM     33  N   UNL     1       2.630  12.494  17.513  0.00  0.00    +0.000 N 
ATOM     34  O   UNL     1       2.488  13.104  19.641  0.00  0.00    +0.000 OA
ATOM     35  H   UNL     1       2.230  12.124  16.661  0.00  0.00    +0.000 HD
ATOM     36  H   UNL     1       3.550  12.904  17.510  0.00  0.00    +0.000 HD
ENDBRANCH   5  32
TORSDOF 4
ENDMDL
MODEL 3
REMARK VINA RESULT:      -9.3      1.419      1.736
REMARK  Name = 
REMARK  6 active torsions:
REMARK  status: ('A' for Active; 'I' for Inactive)
REMARK    1  A    between atoms: C_1  and  C_2
REMARK    2  A    between atoms: C_2  and  C_3
REMARK    3  A    between atoms: N_5  and  C_6
REMARK    4  A    between atoms: C_9  and  C_10
REMARK    5  A    between atoms: C_12  and  C_13
REMARK    6  A    between atoms: C_24  and  C_25
REMARK                            x       y       z     vdW  Elec       q    Type
REMARK                         _______ _______ _______ _____ _____    ______ ____
ROOT
ATOM      1  C   UNL     1       0.504  10.661  19.170  0.00  0.00    +0.000 A 
ATOM      2  O   UNL     1      -0.818  10.467  18.844  0.00  0.00    +0.000 OA
ATOM      3  C   UNL     1      -1.391  11.706  18.981  0.00  0.00    +0.000 A 
ATOM      4  N   UNL     1      -0.547  12.646  19.369  0.00  0.00    +0.000 NA
ATOM      5  C   UNL     1       0.673  11.999  19.508  0.00  0.00    +0.000 A 
ENDROOT
BRANCH   3   6
ATOM      6  C   UNL     1      -2.820  11.813  18.708  0.00  0.00    +0.000 A 
ATOM      7  C   UNL     1      -3.742  12.320  19.644  0.00  0.00    +0.000 A 
ATOM      8  C   UNL     1      -5.099  12.423  19.337  0.00  0.00    +0.000 A 
ATOM      9  C   UNL     1      -5.581  12.019  18.092  0.00  0.00    +0.000 A 
ATOM     10 CL   UNL     1      -7.251  12.158  17.716  0.00  0.00    +0.000 Cl
ATOM     11  C   UNL     1      -4.668  11.509  17.162  0.00  0.00    +0.000 A 
ATOM     12  N   UNL     1      -4.874  11.039  15.883  0.00  0.00    +0.000 N 
ATOM     13  C   UNL     1      -3.690  10.651  15.324  0.00  0.00    +0.000 A 
ATOM     14  C   UNL     1      -2.698  10.879  16.248  0.00  0.00    +0.000 A 
ATOM     15  C   UNL     1      -3.299  11.406  17.435  0.00  0.00    +0.000 A 
ATOM     16  H   UNL     1      -5.780  10.997  15.433  0.00  0.00    +0.000 HD
ENDBRANCH   3   6
BRANCH   1  20
ATOM     17  C   UNL     1       2.701   6.980  18.995  0.00  0.00    +0.000 A 
ATOM     18  C   UNL     1       2.047   7.387  20.160  0.00  0.00    +0.000 A 
ATOM     19  C   UNL     1       1.419   8.630  20.249  0.00  0.00    +0.000 A 
ATOM     20  C   UNL     1       1.368   9.491  19.152  0.00  0.00    +0.000 A 
ATOM     21  C   UNL     1       2.058   9.123  17.997  0.00  0.00    +0.000 A 
ATOM     22  C   UNL     1       2.709   7.886  17.926  0.00  0.00    +0.000 A 
BRANCH  17  27
ATOM     23  C   UNL     1       5.181   5.860  16.410  0.00  0.00    +0.000 C 
ATOM     24  C   UNL     1       5.265   4.885  17.599  0.00  0.00    +0.000 C 
ATOM     25  C   UNL     1       6.744   4.504  17.789  0.00  0.00    +0.000 C 
ATOM     26  C   UNL     1       4.759   5.562  18.911  0.00  0.00    +0.000 C 
ATOM     27  N   UNL     1       3.302   5.748  18.883  0.00  0.00    +0.000 N 
ATOM     28  C   UNL     1       2.531   4.532  18.609  0.00  0.00    +0.000 C 
ATOM     29  C   UNL     1       3.056   3.854  17.323  0.00  0.00    +0.000 C 
ATOM     30  N   UNL     1       4.517   3.632  17.300  0.00  0.00    +0.000 NA
ATOM     31  H   UNL     1       4.787   3.285  16.382  0.00  0.00    +0.000 HD
ENDBRANCH  17  27
ENDBRANCH   1  20
BRANCH   5  32
ATOM     32  C   UNL     1       1.892  12.657  19.973  0.00  0.00    +0.000 C 
ATOM     33  N   UNL     1       2.728  13.164  19.011  0.00  0.00    +0.000 N 
ATOM     34  O   UNL     1       2.230  12.778  21.138  0.00  0.00    +0.000 OA
ATOM     35  H   UNL     1       2.495  13.177  18.028  0.00  0.00    +0.000 HD
ATOM     36  H   UNL     1       3.578  13.591  19.341  0.00  0.00    +0.000 HD
ENDBRANCH   5  32
TORSDOF 4
ENDMDL
MODEL 4
REMARK VINA RESULT:      -9.2      1.006      1.494
REMARK  Name = 
REMARK  6 active torsions:
REMARK  status: ('A' for Active; 'I' for Inactive)
REMARK    1  A    between atoms: C_1  and  C_2
REMARK    2  A    between atoms: C_2  and  C_3
REMARK    3  A    between atoms: N_5  and  C_6
REMARK    4  A    between atoms: C_9  and  C_10
REMARK    5  A    between atoms: C_12  and  C_13
REMARK    6  A    between atoms: C_24  and  C_25
REMARK                            x       y       z     vdW  Elec       q    Type
REMARK                         _______ _______ _______ _____ _____    ______ ____
ROOT
ATOM      1  C   UNL     1       0.357  10.942  19.394  0.00  0.00    +0.000 A 
ATOM      2  O   UNL     1      -0.997  10.773  19.226  0.00  0.00    +0.000 OA
ATOM      3  C   UNL     1      -1.536  12.002  19.512  0.00  0.00    +0.000 A 
ATOM      4  N   UNL     1      -0.640  12.914  19.847  0.00  0.00    +0.000 NA
ATOM      5  C   UNL     1       0.581  12.256  19.791  0.00  0.00    +0.000 A 
ENDROOT
BRANCH   3   6
ATOM      6  C   UNL     1      -2.987  12.129  19.428  0.00  0.00    +0.000 A 
ATOM      7  C   UNL     1      -3.771  12.636  20.482  0.00  0.00    +0.000 A 
ATOM      8  C   UNL     1      -5.156  12.760  20.356  0.00  0.00    +0.000 A 
ATOM      9  C   UNL     1      -5.801  12.374  19.181  0.00  0.00    +0.000 A 
ATOM     10 CL   UNL     1      -7.504  12.538  19.028  0.00  0.00    +0.000 Cl
ATOM     11  C   UNL     1      -5.025  11.865  18.135  0.00  0.00    +0.000 A 
ATOM     12  N   UNL     1      -5.402  11.412  16.890  0.00  0.00    +0.000 N 
ATOM     13  C   UNL     1      -4.307  11.016  16.177  0.00  0.00    +0.000 A 
ATOM     14  C   UNL     1      -3.199  11.221  16.966  0.00  0.00    +0.000 A 
ATOM     15  C   UNL     1      -3.633  11.742  18.225  0.00  0.00    +0.000 A 
ATOM     16  H   UNL     1      -6.360  11.385  16.562  0.00  0.00    +0.000 HD
ENDBRANCH   3   6
BRANCH   1  20
ATOM     17  C   UNL     1       2.480   7.282  18.689  0.00  0.00    +0.000 A 
ATOM     18  C   UNL     1       1.926   7.578  19.936  0.00  0.00    +0.000 A 
ATOM     19  C   UNL     1       1.325   8.810  20.195  0.00  0.00    +0.000 A 
ATOM     20  C   UNL     1       1.200   9.774  19.193  0.00  0.00    +0.000 A 
ATOM     21  C   UNL     1       1.792   9.516  17.957  0.00  0.00    +0.000 A 
ATOM     22  C   UNL     1       2.417   8.288  17.715  0.00  0.00    +0.000 A 
BRANCH  17  27
ATOM     23  C   UNL     1       2.386   4.166  20.780  0.00  0.00    +0.000 C 
ATOM     24  C   UNL     1       2.781   3.762  19.347  0.00  0.00    +0.000 C 
ATOM     25  C   UNL     1       2.100   2.417  19.036  0.00  0.00    +0.000 C 
ATOM     26  C   UNL     1       2.279   4.818  18.314  0.00  0.00    +0.000 C 
ATOM     27  N   UNL     1       3.053   6.062  18.410  0.00  0.00    +0.000 N 
ATOM     28  C   UNL     1       4.505   5.895  18.302  0.00  0.00    +0.000 C 
ATOM     29  C   UNL     1       4.989   4.829  19.311  0.00  0.00    +0.000 C 
ATOM     30  N   UNL     1       4.251   3.549  19.251  0.00  0.00    +0.000 NA
ATOM     31  H   UNL     1       4.560   2.952  20.015  0.00  0.00    +0.000 HD
ENDBRANCH  17  27
ENDBRANCH   1  20
BRANCH   5  32
ATOM     32  C   UNL     1       1.856  12.881  20.138  0.00  0.00    +0.000 C 
ATOM     33  N   UNL     1       2.649  13.291  19.096  0.00  0.00    +0.000 N 
ATOM     34  O   UNL     1       2.274  13.053  21.270  0.00  0.00    +0.000 OA
ATOM     35  H   UNL     1       2.353  13.257  18.130  0.00  0.00    +0.000 HD
ATOM     36  H   UNL     1       3.537  13.695  19.345  0.00  0.00    +0.000 HD
ENDBRANCH   5  32
TORSDOF 4
ENDMDL
MODEL 5
REMARK VINA RESULT:      -9.2      1.470      2.311
REMARK  Name = 
REMARK  6 active torsions:
REMARK  status: ('A' for Active; 'I' for Inactive)
REMARK    1  A    between atoms: C_1  and  C_2
REMARK    2  A    between atoms: C_2  and  C_3
REMARK    3  A    between atoms: N_5  and  C_6
REMARK    4  A    between atoms: C_9  and  C_10
REMARK    5  A    between atoms: C_12  and  C_13
REMARK    6  A    between atoms: C_24  and  C_25
REMARK                            x       y       z     vdW  Elec       q    Type
REMARK                         _______ _______ _______ _____ _____    ______ ____
ROOT
ATOM      1  C   UNL     1       0.458  10.715  18.765  0.00  0.00    +0.000 A 
ATOM      2  O   UNL     1      -0.898  10.489  18.796  0.00  0.00    +0.000 OA
ATOM      3  C   UNL     1      -1.457  11.740  18.729  0.00  0.00    +0.000 A 
ATOM      4  N   UNL     1      -0.572  12.719  18.667  0.00  0.00    +0.000 NA
ATOM      5  C   UNL     1       0.664  12.089  18.700  0.00  0.00    +0.000 A 
ENDROOT
BRANCH   3   6
ATOM      6  C   UNL     1      -2.914  11.821  18.755  0.00  0.00    +0.000 A 
ATOM      7  C   UNL     1      -3.721  11.407  17.678  0.00  0.00    +0.000 A 
ATOM      8  C   UNL     1      -5.113  11.483  17.750  0.00  0.00    +0.000 A 
ATOM      9  C   UNL     1      -5.742  11.982  18.890  0.00  0.00    +0.000 A 
ATOM     10 CL   UNL     1      -7.455  12.064  18.976  0.00  0.00    +0.000 Cl
ATOM     11  C   UNL     1      -4.942  12.400  19.959  0.00  0.00    +0.000 A 
ATOM     12  N   UNL     1      -5.298  12.930  21.180  0.00  0.00    +0.000 N 
ATOM     13  C   UNL     1      -4.186  13.183  21.931  0.00  0.00    +0.000 A 
ATOM     14  C   UNL     1      -3.089  12.806  21.191  0.00  0.00    +0.000 A 
ATOM     15  C   UNL     1      -3.544  12.323  19.924  0.00  0.00    +0.000 A 
ATOM     16  H   UNL     1      -6.254  13.099  21.468  0.00  0.00    +0.000 HD
ENDBRANCH   3   6
BRANCH   1  20
ATOM     17  C   UNL     1       2.673   7.045  18.923  0.00  0.00    +0.000 A 
ATOM     18  C   UNL     1       1.945   7.508  20.020  0.00  0.00    +0.000 A 
ATOM     19  C   UNL     1       1.309   8.749  20.005  0.00  0.00    +0.000 A 
ATOM     20  C   UNL     1       1.325   9.551  18.863  0.00  0.00    +0.000 A 
ATOM     21  C   UNL     1       2.089   9.129  17.775  0.00  0.00    +0.000 A 
ATOM     22  C   UNL     1       2.747   7.894  17.810  0.00  0.00    +0.000 A 
BRANCH  17  27
ATOM     23  C   UNL     1       5.092   5.699  16.388  0.00  0.00    +0.000 C 
ATOM     24  C   UNL     1       5.220   4.844  17.664  0.00  0.00    +0.000 C 
ATOM     25  C   UNL     1       6.708   4.496  17.847  0.00  0.00    +0.000 C 
ATOM     26  C   UNL     1       4.743   5.642  18.917  0.00  0.00    +0.000 C 
ATOM     27  N   UNL     1       3.284   5.812  18.913  0.00  0.00    +0.000 N 
ATOM     28  C   UNL     1       2.519   4.569  18.781  0.00  0.00    +0.000 C 
ATOM     29  C   UNL     1       3.016   3.774  17.552  0.00  0.00    +0.000 C 
ATOM     30  N   UNL     1       4.478   3.562  17.509  0.00  0.00    +0.000 NA
ATOM     31  H   UNL     1       4.725   3.130  16.621  0.00  0.00    +0.000 HD
ENDBRANCH  17  27
ENDBRANCH   1  20
BRANCH   5  32
ATOM     32  C   UNL     1       1.940  12.803  18.702  0.00  0.00    +0.000 C 
ATOM     33  N   UNL     1       2.653  12.799  17.531  0.00  0.00    +0.000 N 
ATOM     34  O   UNL     1       2.423  13.385  19.658  0.00  0.00    +0.000 OA
ATOM     35  H   UNL     1       2.299  12.407  16.669  0.00  0.00    +0.000 HD
ATOM     36  H   UNL     1       3.543  13.270  17.551  0.00  0.00    +0.000 HD
ENDBRANCH   5  32
TORSDOF 4
ENDMDL
MODEL 6
REMARK VINA RESULT:      -9.1      1.587      2.613
REMARK  Name = 
REMARK  6 active torsions:
REMARK  status: ('A' for Active; 'I' for Inactive)
REMARK    1  A    between atoms: C_1  and  C_2
REMARK    2  A    between atoms: C_2  and  C_3
REMARK    3  A    between atoms: N_5  and  C_6
REMARK    4  A    between atoms: C_9  and  C_10
REMARK    5  A    between atoms: C_12  and  C_13
REMARK    6  A    between atoms: C_24  and  C_25
REMARK                            x       y       z     vdW  Elec       q    Type
REMARK                         _______ _______ _______ _____ _____    ______ ____
ROOT
ATOM      1  C   UNL     1       0.405  10.984  19.250  0.00  0.00    +0.000 A 
ATOM      2  O   UNL     1      -0.916  10.841  19.602  0.00  0.00    +0.000 OA
ATOM      3  C   UNL     1      -1.384  12.127  19.714  0.00  0.00    +0.000 A 
ATOM      4  N   UNL     1      -0.471  13.051  19.470  0.00  0.00    +0.000 NA
ATOM      5  C   UNL     1       0.688  12.344  19.182  0.00  0.00    +0.000 A 
ENDROOT
BRANCH   3   6
ATOM      6  C   UNL     1      -2.782  12.296  20.095  0.00  0.00    +0.000 A 
ATOM      7  C   UNL     1      -3.832  12.321  19.157  0.00  0.00    +0.000 A 
ATOM      8  C   UNL     1      -5.159  12.466  19.565  0.00  0.00    +0.000 A 
ATOM      9  C   UNL     1      -5.479  12.600  20.915  0.00  0.00    +0.000 A 
ATOM     10 CL   UNL     1      -7.115  12.769  21.411  0.00  0.00    +0.000 Cl
ATOM     11  C   UNL     1      -4.437  12.583  21.848  0.00  0.00    +0.000 A 
ATOM     12  N   UNL     1      -4.473  12.700  23.221  0.00  0.00    +0.000 N 
ATOM     13  C   UNL     1      -3.212  12.611  23.738  0.00  0.00    +0.000 A 
ATOM     14  C   UNL     1      -2.343  12.425  22.689  0.00  0.00    +0.000 A 
ATOM     15  C   UNL     1      -3.098  12.424  21.473  0.00  0.00    +0.000 A 
ATOM     16  H   UNL     1      -5.322  12.830  23.757  0.00  0.00    +0.000 HD
ENDBRANCH   3   6
BRANCH   1  20
ATOM     17  C   UNL     1       2.326   7.185  18.722  0.00  0.00    +0.000 A 
ATOM     18  C   UNL     1       1.862   7.603  19.970  0.00  0.00    +0.000 A 
ATOM     19  C   UNL     1       1.330   8.878  20.164  0.00  0.00    +0.000 A 
ATOM     20  C   UNL     1       1.185   9.766  19.096  0.00  0.00    +0.000 A 
ATOM     21  C   UNL     1       1.688   9.385  17.853  0.00  0.00    +0.000 A 
ATOM     22  C   UNL     1       2.245   8.113  17.675  0.00  0.00    +0.000 A 
BRANCH  17  27
ATOM     23  C   UNL     1       1.343   4.000  20.447  0.00  0.00    +0.000 C 
ATOM     24  C   UNL     1       2.078   3.625  19.146  0.00  0.00    +0.000 C 
ATOM     25  C   UNL     1       1.380   2.388  18.554  0.00  0.00    +0.000 C 
ATOM     26  C   UNL     1       1.992   4.785  18.106  0.00  0.00    +0.000 C 
ATOM     27  N   UNL     1       2.829   5.922  18.509  0.00  0.00    +0.000 N 
ATOM     28  C   UNL     1       4.229   5.590  18.785  0.00  0.00    +0.000 C 
ATOM     29  C   UNL     1       4.305   4.423  19.796  0.00  0.00    +0.000 C 
ATOM     30  N   UNL     1       3.489   3.245  19.435  0.00  0.00    +0.000 NA
ATOM     31  H   UNL     1       3.512   2.577  20.202  0.00  0.00    +0.000 HD
ENDBRANCH  17  27
ENDBRANCH   1  20
BRANCH   5  32
ATOM     32  C   UNL     1       1.975  12.977  18.897  0.00  0.00    +0.000 C 
ATOM     33  N   UNL     1       2.416  12.925  17.600  0.00  0.00    +0.000 N 
ATOM     34  O   UNL     1       2.687  13.531  19.716  0.00  0.00    +0.000 OA
ATOM     35  H   UNL     1       1.861  12.554  16.841  0.00  0.00    +0.000 HD
ATOM     36  H   UNL     1       3.316  13.340  17.419  0.00  0.00    +0.000 HD
ENDBRANCH   5  32
TORSDOF 4
ENDMDL
MODEL 7
REMARK VINA RESULT:      -8.9      1.218      1.661
REMARK  Name = 
REMARK  6 active torsions:
REMARK  status: ('A' for Active; 'I' for Inactive)
REMARK    1  A    between atoms: C_1  and  C_2
REMARK    2  A    between atoms: C_2  and  C_3
REMARK    3  A    between atoms: N_5  and  C_6
REMARK    4  A    between atoms: C_9  and  C_10
REMARK    5  A    between atoms: C_12  and  C_13
REMARK    6  A    between atoms: C_24  and  C_25
REMARK                            x       y       z     vdW  Elec       q    Type
REMARK                         _______ _______ _______ _____ _____    ______ ____
ROOT
ATOM      1  C   UNL     1       0.487  10.452  18.865  0.00  0.00    +0.000 A 
ATOM      2  O   UNL     1      -0.877  10.398  19.031  0.00  0.00    +0.000 OA
ATOM      3  C   UNL     1      -1.279  11.709  18.997  0.00  0.00    +0.000 A 
ATOM      4  N   UNL     1      -0.289  12.569  18.832  0.00  0.00    +0.000 NA
ATOM      5  C   UNL     1       0.856  11.788  18.757  0.00  0.00    +0.000 A 
ENDROOT
BRANCH   3   6
ATOM      6  C   UNL     1      -2.705  11.973  19.162  0.00  0.00    +0.000 A 
ATOM      7  C   UNL     1      -3.246  12.544  20.330  0.00  0.00    +0.000 A 
ATOM      8  C   UNL     1      -4.614  12.798  20.441  0.00  0.00    +0.000 A 
ATOM      9  C   UNL     1      -5.484  12.484  19.398  0.00  0.00    +0.000 A 
ATOM     10 CL   UNL     1      -7.165  12.808  19.536  0.00  0.00    +0.000 Cl
ATOM     11  C   UNL     1      -4.950  11.912  18.239  0.00  0.00    +0.000 A 
ATOM     12  N   UNL     1      -5.576  11.505  17.080  0.00  0.00    +0.000 N 
ATOM     13  C   UNL     1      -4.661  11.013  16.193  0.00  0.00    +0.000 A 
ATOM     14  C   UNL     1      -3.420  11.107  16.780  0.00  0.00    +0.000 A 
ATOM     15  C   UNL     1      -3.581  11.657  18.090  0.00  0.00    +0.000 A 
ATOM     16  H   UNL     1      -6.574  11.571  16.921  0.00  0.00    +0.000 HD
ENDBRANCH   3   6
BRANCH   1  20
ATOM     17  C   UNL     1       2.965   6.957  19.085  0.00  0.00    +0.000 A 
ATOM     18  C   UNL     1       2.861   7.707  17.912  0.00  0.00    +0.000 A 
ATOM     19  C   UNL     1       1.978   8.782  17.808  0.00  0.00    +0.000 A 
ATOM     20  C   UNL     1       1.208   9.189  18.899  0.00  0.00    +0.000 A 
ATOM     21  C   UNL     1       1.262   8.421  20.062  0.00  0.00    +0.000 A 
ATOM     22  C   UNL     1       2.130   7.327  20.148  0.00  0.00    +0.000 A 
BRANCH  17  27
ATOM     23  C   UNL     1       4.773   5.131  16.349  0.00  0.00    +0.000 C 
ATOM     24  C   UNL     1       5.501   4.837  17.674  0.00  0.00    +0.000 C 
ATOM     25  C   UNL     1       7.011   4.800  17.379  0.00  0.00    +0.000 C 
ATOM     26  C   UNL     1       5.231   5.965  18.718  0.00  0.00    +0.000 C 
ATOM     27  N   UNL     1       3.849   5.910  19.212  0.00  0.00    +0.000 N 
ATOM     28  C   UNL     1       3.438   4.611  19.750  0.00  0.00    +0.000 C 
ATOM     29  C   UNL     1       3.733   3.496  18.720  0.00  0.00    +0.000 C 
ATOM     30  N   UNL     1       5.115   3.497  18.196  0.00  0.00    +0.000 NA
ATOM     31  H   UNL     1       5.189   2.807  17.451  0.00  0.00    +0.000 HD
ENDBRANCH  17  27
ENDBRANCH   1  20
BRANCH   5  32
ATOM     32  C   UNL     1       2.204  12.336  18.623  0.00  0.00    +0.000 C 
ATOM     33  N   UNL     1       2.852  12.103  17.437  0.00  0.00    +0.000 N 
ATOM     34  O   UNL     1       2.800  12.967  19.479  0.00  0.00    +0.000 OA
ATOM     35  H   UNL     1       2.412  11.656  16.645  0.00  0.00    +0.000 HD
ATOM     36  H   UNL     1       3.791  12.461  17.365  0.00  0.00    +0.000 HD
ENDBRANCH   5  32
TORSDOF 4
ENDMDL
MODEL 8
REMARK VINA RESULT:      -8.9      1.456      2.383
REMARK  Name = 
REMARK  6 active torsions:
REMARK  status: ('A' for Active; 'I' for Inactive)
REMARK    1  A    between atoms: C_1  and  C_2
REMARK    2  A    between atoms: C_2  and  C_3
REMARK    3  A    between atoms: N_5  and  C_6
REMARK    4  A    between atoms: C_9  and  C_10
REMARK    5  A    between atoms: C_12  and  C_13
REMARK    6  A    between atoms: C_24  and  C_25
REMARK                            x       y       z     vdW  Elec       q    Type
REMARK                         _______ _______ _______ _____ _____    ______ ____
ROOT
ATOM      1  C   UNL     1       0.374  10.277  18.592  0.00  0.00    +0.000 A 
ATOM      2  O   UNL     1      -0.990  10.152  18.475  0.00  0.00    +0.000 OA
ATOM      3  C   UNL     1      -1.447  11.443  18.386  0.00  0.00    +0.000 A 
ATOM      4  N   UNL     1      -0.492  12.354  18.445  0.00  0.00    +0.000 NA
ATOM      5  C   UNL     1       0.685  11.633  18.590  0.00  0.00    +0.000 A 
ENDROOT
BRANCH   3   6
ATOM      6  C   UNL     1      -2.888  11.633  18.261  0.00  0.00    +0.000 A 
ATOM      7  C   UNL     1      -3.612  11.259  17.112  0.00  0.00    +0.000 A 
ATOM      8  C   UNL     1      -4.994  11.439  17.040  0.00  0.00    +0.000 A 
ATOM      9  C   UNL     1      -5.695  12.005  18.104  0.00  0.00    +0.000 A 
ATOM     10 CL   UNL     1      -7.397  12.215  18.013  0.00  0.00    +0.000 Cl
ATOM     11  C   UNL     1      -4.978  12.383  19.244  0.00  0.00    +0.000 A 
ATOM     12  N   UNL     1      -5.416  12.960  20.416  0.00  0.00    +0.000 N 
ATOM     13  C   UNL     1      -4.369  13.145  21.274  0.00  0.00    +0.000 A 
ATOM     14  C   UNL     1      -3.235  12.673  20.655  0.00  0.00    +0.000 A 
ATOM     15  C   UNL     1      -3.595  12.202  19.353  0.00  0.00    +0.000 A 
ATOM     16  H   UNL     1      -6.381  13.205  20.603  0.00  0.00    +0.000 HD
ENDBRANCH   3   6
BRANCH   1  20
ATOM     17  C   UNL     1       2.976   6.911  19.141  0.00  0.00    +0.000 A 
ATOM     18  C   UNL     1       2.841   7.537  17.900  0.00  0.00    +0.000 A 
ATOM     19  C   UNL     1       1.920   8.565  17.696  0.00  0.00    +0.000 A 
ATOM     20  C   UNL     1       1.140   9.050  18.747  0.00  0.00    +0.000 A 
ATOM     21  C   UNL     1       1.225   8.405  19.980  0.00  0.00    +0.000 A 
ATOM     22  C   UNL     1       2.132   7.355  20.168  0.00  0.00    +0.000 A 
BRANCH  17  27
ATOM     23  C   UNL     1       4.776   4.829  16.589  0.00  0.00    +0.000 C 
ATOM     24  C   UNL     1       5.546   4.717  17.918  0.00  0.00    +0.000 C 
ATOM     25  C   UNL     1       7.049   4.690  17.588  0.00  0.00    +0.000 C 
ATOM     26  C   UNL     1       5.264   5.952  18.830  0.00  0.00    +0.000 C 
ATOM     27  N   UNL     1       3.897   5.914  19.365  0.00  0.00    +0.000 N 
ATOM     28  C   UNL     1       3.544   4.676  20.064  0.00  0.00    +0.000 C 
ATOM     29  C   UNL     1       3.850   3.457  19.164  0.00  0.00    +0.000 C 
ATOM     30  N   UNL     1       5.218   3.437  18.605  0.00  0.00    +0.000 NA
ATOM     31  H   UNL     1       5.296   2.666  17.945  0.00  0.00    +0.000 HD
ENDBRANCH  17  27
ENDBRANCH   1  20
BRANCH   5  32
ATOM     32  C   UNL     1       2.001  12.249  18.746  0.00  0.00    +0.000 C 
ATOM     33  N   UNL     1       2.871  12.126  17.693  0.00  0.00    +0.000 N 
ATOM     34  O   UNL     1       2.389  12.847  19.735  0.00  0.00    +0.000 OA
ATOM     35  H   UNL     1       2.612  11.714  16.807  0.00  0.00    +0.000 HD
ATOM     36  H   UNL     1       3.784  12.531  17.822  0.00  0.00    +0.000 HD
ENDBRANCH   5  32
TORSDOF 4
ENDMDL
MODEL 9
REMARK VINA RESULT:      -8.9      1.318      2.351
REMARK  Name = 
REMARK  6 active torsions:
REMARK  status: ('A' for Active; 'I' for Inactive)
REMARK    1  A    between atoms: C_1  and  C_2
REMARK    2  A    between atoms: C_2  and  C_3
REMARK    3  A    between atoms: N_5  and  C_6
REMARK    4  A    between atoms: C_9  and  C_10
REMARK    5  A    between atoms: C_12  and  C_13
REMARK    6  A    between atoms: C_24  and  C_25
REMARK                            x       y       z     vdW  Elec       q    Type
REMARK                         _______ _______ _______ _____ _____    ______ ____
ROOT
ATOM      1  C   UNL     1       0.355  10.834  19.222  0.00  0.00    +0.000 A 
ATOM      2  O   UNL     1      -0.988  10.650  18.989  0.00  0.00    +0.000 OA
ATOM      3  C   UNL     1      -1.554  11.872  19.251  0.00  0.00    +0.000 A 
ATOM      4  N   UNL     1      -0.685  12.793  19.632  0.00  0.00    +0.000 NA
ATOM      5  C   UNL     1       0.544  12.149  19.633  0.00  0.00    +0.000 A 
ENDROOT
BRANCH   3   6
ATOM      6  C   UNL     1      -3.000  11.984  19.098  0.00  0.00    +0.000 A 
ATOM      7  C   UNL     1      -3.671  11.639  17.909  0.00  0.00    +0.000 A 
ATOM      8  C   UNL     1      -5.060  11.742  17.808  0.00  0.00    +0.000 A 
ATOM      9  C   UNL     1      -5.819  12.199  18.884  0.00  0.00    +0.000 A 
ATOM     10 CL   UNL     1      -7.529  12.315  18.758  0.00  0.00    +0.000 Cl
ATOM     11  C   UNL     1      -5.155  12.549  20.064  0.00  0.00    +0.000 A 
ATOM     12  N   UNL     1      -5.655  13.027  21.256  0.00  0.00    +0.000 N 
ATOM     13  C   UNL     1      -4.643  13.220  22.152  0.00  0.00    +0.000 A 
ATOM     14  C   UNL     1      -3.467  12.855  21.539  0.00  0.00    +0.000 A 
ATOM     15  C   UNL     1      -3.766  12.443  20.202  0.00  0.00    +0.000 A 
ATOM     16  H   UNL     1      -6.637  13.203  21.430  0.00  0.00    +0.000 HD
ENDBRANCH   3   6
BRANCH   1  20
ATOM     17  C   UNL     1       2.545   7.192  18.639  0.00  0.00    +0.000 A 
ATOM     18  C   UNL     1       1.988   7.521  19.876  0.00  0.00    +0.000 A 
ATOM     19  C   UNL     1       1.365   8.749  20.094  0.00  0.00    +0.000 A 
ATOM     20  C   UNL     1       1.219   9.676  19.060  0.00  0.00    +0.000 A 
ATOM     21  C   UNL     1       1.813   9.386  17.832  0.00  0.00    +0.000 A 
ATOM     22  C   UNL     1       2.461   8.162  17.630  0.00  0.00    +0.000 A 
BRANCH  17  27
ATOM     23  C   UNL     1       2.443   4.122  20.796  0.00  0.00    +0.000 C 
ATOM     24  C   UNL     1       2.876   3.692  19.382  0.00  0.00    +0.000 C 
ATOM     25  C   UNL     1       2.221   2.331  19.085  0.00  0.00    +0.000 C 
ATOM     26  C   UNL     1       2.385   4.718  18.314  0.00  0.00    +0.000 C 
ATOM     27  N   UNL     1       3.140   5.975  18.400  0.00  0.00    +0.000 N 
ATOM     28  C   UNL     1       4.596   5.825  18.330  0.00  0.00    +0.000 C 
ATOM     29  C   UNL     1       5.071   4.788  19.373  0.00  0.00    +0.000 C 
ATOM     30  N   UNL     1       4.351   3.497  19.325  0.00  0.00    +0.000 NA
ATOM     31  H   UNL     1       4.650   2.921  20.109  0.00  0.00    +0.000 HD
ENDBRANCH  17  27
ENDBRANCH   1  20
BRANCH   5  32
ATOM     32  C   UNL     1       1.794  12.786  20.043  0.00  0.00    +0.000 C 
ATOM     33  N   UNL     1       2.614  13.243  19.043  0.00  0.00    +0.000 N 
ATOM     34  O   UNL     1       2.169  12.932  21.194  0.00  0.00    +0.000 OA
ATOM     35  H   UNL     1       2.352  13.233  18.067  0.00  0.00    +0.000 HD
ATOM     36  H   UNL     1       3.484  13.656  19.335  0.00  0.00    +0.000 HD
ENDBRANCH   5  32
TORSDOF 4
ENDMDL
