MODEL 1
REMARK VINA RESULT:      -8.6      0.000      0.000
REMARK  Name = 
REMARK  9 active torsions:
REMARK  status: ('A' for Active; 'I' for Inactive)
REMARK    1  A    between atoms: C_1  and  N_2
REMARK    2  A    between atoms: N_2  and  C_3
REMARK    3  A    between atoms: N_2  and  S_22
REMARK    4  A    between atoms: C_3  and  C_4
REMARK    5  A    between atoms: C_3  and  C_5
REMARK    6  A    between atoms: C_3  and  C_6
REMARK    7  A    between atoms: N_8  and  C_9
REMARK    8  A    between atoms: C_16  and  C_17
REMARK    9  A    between atoms: S_22  and  C_25
REMARK                            x       y       z     vdW  Elec       q    Type
REMARK                         _______ _______ _______ _____ _____    ______ ____
ROOT
ATOM      1  C   UNL     1       1.924   8.536  18.626  0.00  0.00    +0.000 C 
ATOM      2  O   UNL     1       2.720   8.692  17.715  0.00  0.00    +0.000 OA
ATOM      3  N   UNL     1       1.935   7.391  19.479  0.00  0.00    +0.000 N 
ATOM      4  H   UNL     1       1.181   7.344  20.152  0.00  0.00    +0.000 HD
ENDROOT
BRANCH   3   5
ATOM      5  C   UNL     1       2.852   6.216  19.559  0.00  0.00    +0.000 C 
ATOM      6  C   UNL     1       2.337   5.188  20.627  0.00  0.00    +0.000 C 
ATOM      7  C   UNL     1       0.968   4.601  20.207  0.00  0.00    +0.000 C 
ATOM      8  C   UNL     1       1.081   3.896  18.851  0.00  0.00    +0.000 C 
ATOM      9  C   UNL     1       1.642   4.844  17.780  0.00  0.00    +0.000 C 
ATOM     10  C   UNL     1       2.999   5.434  18.222  0.00  0.00    +0.000 C 
ATOM     11  C   UNL     1       3.983   4.237  18.397  0.00  0.00    +0.000 C 
ATOM     12  C   UNL     1       3.442   3.214  19.427  0.00  0.00    +0.000 C 
ATOM     13  C   UNL     1       2.039   2.714  19.004  0.00  0.00    +0.000 C 
ATOM     14  C   UNL     1       3.314   3.985  20.768  0.00  0.00    +0.000 C 
BRANCH  12  15
ATOM     15  C   UNL     1       4.346   1.976  19.563  0.00  0.00    +0.000 C 
ATOM     16  N   UNL     1       4.242   1.036  18.576  0.00  0.00    +0.000 N 
ATOM     17  O   UNL     1       5.093   1.776  20.514  0.00  0.00    +0.000 OA
ATOM     18  H   UNL     1       4.741   0.166  18.712  0.00  0.00    +0.000 HD
ATOM     19  H   UNL     1       3.534   1.059  17.855  0.00  0.00    +0.000 HD
ENDBRANCH  12  15
ENDBRANCH   3   5
BRANCH   1  20
ATOM     20  C   UNL     1       0.786   9.594  19.038  0.00  0.00    +0.000 C 
ATOM     21  C   UNL     1       0.255   8.996  20.369  0.00  0.00    +0.000 C 
ATOM     22  C   UNL     1      -0.160   9.546  17.802  0.00  0.00    +0.000 C 
BRANCH  20  24
ATOM     23  C   UNL     1       2.109  11.759  18.547  0.00  0.00    +0.000 C 
ATOM     24  N   UNL     1       0.974  11.144  19.282  0.00  0.00    +0.000 NA
BRANCH  24  25
ATOM     25  S   UNL     1       1.001  11.618  20.996  0.00  0.00    +0.000 S 
ATOM     26  O   UNL     1       1.270  10.462  21.811  0.00  0.00    +0.000 OA
ATOM     27  O   UNL     1       1.839  12.792  21.102  0.00  0.00    +0.000 OA
BRANCH  25  28
ATOM     28  C   UNL     1      -0.643  12.135  21.474  0.00  0.00    +0.000 A 
ATOM     29  C   UNL     1      -1.062  11.958  22.810  0.00  0.00    +0.000 A 
ATOM     30  C   UNL     1      -2.404  12.148  23.158  0.00  0.00    +0.000 A 
ATOM     31  C   UNL     1      -3.322  12.501  22.176  0.00  0.00    +0.000 A 
ATOM     32  F   UNL     1      -4.611  12.657  22.503  0.00  0.00    +0.000 F 
ATOM     33  C   UNL     1      -2.907  12.654  20.852  0.00  0.00    +0.000 A 
ATOM     34  F   UNL     1      -3.806  12.951  19.904  0.00  0.00    +0.000 F 
ATOM     35  C   UNL     1      -1.574  12.467  20.490  0.00  0.00    +0.000 A 
ENDBRANCH  25  28
ENDBRANCH  24  25
ENDBRANCH  20  24
ENDBRANCH   1  20
TORSDOF 6
ENDMDL
MODEL 2
REMARK VINA RESULT:      -8.5      1.385      2.059
REMARK  Name = 
REMARK  9 active torsions:
REMARK  status: ('A' for Active; 'I' for Inactive)
REMARK    1  A    between atoms: C_1  and  N_2
REMARK    2  A    between atoms: N_2  and  C_3
REMARK    3  A    between atoms: N_2  and  S_22
REMARK    4  A    between atoms: C_3  and  C_4
REMARK    5  A    between atoms: C_3  and  C_5
REMARK    6  A    between atoms: C_3  and  C_6
REMARK    7  A    between atoms: N_8  and  C_9
REMARK    8  A    between atoms: C_16  and  C_17
REMARK    9  A    between atoms: S_22  and  C_25
REMARK                            x       y       z     vdW  Elec       q    Type
REMARK                         _______ _______ _______ _____ _____    ______ ____
ROOT
ATOM      1  C   UNL     1       1.597   8.382  20.079  0.00  0.00    +0.000 C 
ATOM      2  O   UNL     1       1.477   8.331  21.291  0.00  0.00    +0.000 OA
ATOM      3  N   UNL     1       2.305   7.396  19.326  0.00  0.00    +0.000 N 
ATOM      4  H   UNL     1       2.395   7.586  18.337  0.00  0.00    +0.000 HD
ENDROOT
BRANCH   3   5
ATOM      5  C   UNL     1       2.968   6.122  19.730  0.00  0.00    +0.000 C 
ATOM      6  C   UNL     1       1.977   4.914  19.578  0.00  0.00    +0.000 C 
ATOM      7  C   UNL     1       1.584   4.710  18.095  0.00  0.00    +0.000 C 
ATOM      8  C   UNL     1       2.829   4.443  17.243  0.00  0.00    +0.000 C 
ATOM      9  C   UNL     1       3.862   5.568  17.404  0.00  0.00    +0.000 C 
ATOM     10  C   UNL     1       4.231   5.770  18.890  0.00  0.00    +0.000 C 
ATOM     11  C   UNL     1       4.862   4.435  19.390  0.00  0.00    +0.000 C 
ATOM     12  C   UNL     1       3.885   3.248  19.199  0.00  0.00    +0.000 C 
ATOM     13  C   UNL     1       3.460   3.132  17.715  0.00  0.00    +0.000 C 
ATOM     14  C   UNL     1       2.632   3.584  20.053  0.00  0.00    +0.000 C 
BRANCH  12  15
ATOM     15  C   UNL     1       4.506   1.899  19.603  0.00  0.00    +0.000 C 
ATOM     16  N   UNL     1       4.304   0.856  18.742  0.00  0.00    +0.000 N 
ATOM     17  O   UNL     1       5.110   1.710  20.653  0.00  0.00    +0.000 OA
ATOM     18  H   UNL     1       4.604  -0.062  19.050  0.00  0.00    +0.000 HD
ATOM     19  H   UNL     1       3.683   0.900  17.946  0.00  0.00    +0.000 HD
ENDBRANCH  12  15
ENDBRANCH   3   5
BRANCH   1  20
ATOM     20  C   UNL     1       0.951   9.517  19.141  0.00  0.00    +0.000 C 
ATOM     21  C   UNL     1       0.809   8.775  17.785  0.00  0.00    +0.000 C 
ATOM     22  C   UNL     1       2.014  10.651  19.231  0.00  0.00    +0.000 C 
BRANCH  20  24
ATOM     23  C   UNL     1      -1.168  10.614  18.147  0.00  0.00    +0.000 C 
ATOM     24  N   UNL     1      -0.410  10.285  19.381  0.00  0.00    +0.000 NA
BRANCH  24  25
ATOM     25  S   UNL     1      -0.272  11.710  20.435  0.00  0.00    +0.000 S 
ATOM     26  O   UNL     1       0.549  11.388  21.575  0.00  0.00    +0.000 OA
ATOM     27  O   UNL     1       0.067  12.835  19.593  0.00  0.00    +0.000 OA
BRANCH  25  28
ATOM     28  C   UNL     1      -1.881  12.071  21.127  0.00  0.00    +0.000 A 
ATOM     29  C   UNL     1      -2.824  12.778  20.350  0.00  0.00    +0.000 A 
ATOM     30  C   UNL     1      -3.998  13.261  20.937  0.00  0.00    +0.000 A 
ATOM     31  C   UNL     1      -4.224  13.049  22.292  0.00  0.00    +0.000 A 
ATOM     32  F   UNL     1      -5.335  13.534  22.861  0.00  0.00    +0.000 F 
ATOM     33  C   UNL     1      -3.279  12.367  23.061  0.00  0.00    +0.000 A 
ATOM     34  F   UNL     1      -3.483  12.205  24.375  0.00  0.00    +0.000 F 
ATOM     35  C   UNL     1      -2.103  11.882  22.490  0.00  0.00    +0.000 A 
ENDBRANCH  25  28
ENDBRANCH  24  25
ENDBRANCH  20  24
ENDBRANCH   1  20
TORSDOF 6
ENDMDL
MODEL 3
REMARK VINA RESULT:      -8.4      4.463      9.370
REMARK  Name = 
REMARK  9 active torsions:
REMARK  status: ('A' for Active; 'I' for Inactive)
REMARK    1  A    between atoms: C_1  and  N_2
REMARK    2  A    between atoms: N_2  and  C_3
REMARK    3  A    between atoms: N_2  and  S_22
REMARK    4  A    between atoms: C_3  and  C_4
REMARK    5  A    between atoms: C_3  and  C_5
REMARK    6  A    between atoms: C_3  and  C_6
REMARK    7  A    between atoms: N_8  and  C_9
REMARK    8  A    between atoms: C_16  and  C_17
REMARK    9  A    between atoms: S_22  and  C_25
REMARK                            x       y       z     vdW  Elec       q    Type
REMARK                         _______ _______ _______ _____ _____    ______ ____
ROOT
ATOM      1  C   UNL     1       2.627   6.561  18.542  0.00  0.00    +0.000 C 
ATOM      2  O   UNL     1       3.423   6.903  17.684  0.00  0.00    +0.000 OA
ATOM      3  N   UNL     1       2.002   7.485  19.434  0.00  0.00    +0.000 N 
ATOM      4  H   UNL     1       1.415   7.072  20.146  0.00  0.00    +0.000 HD
ENDROOT
BRANCH   3   5
ATOM      5  C   UNL     1       2.063   8.973  19.531  0.00  0.00    +0.000 C 
ATOM      6  C   UNL     1       1.792   9.627  18.130  0.00  0.00    +0.000 C 
ATOM      7  C   UNL     1       0.354   9.315  17.649  0.00  0.00    +0.000 C 
ATOM      8  C   UNL     1      -0.674   9.844  18.653  0.00  0.00    +0.000 C 
ATOM      9  C   UNL     1      -0.415   9.282  20.059  0.00  0.00    +0.000 C 
ATOM     10  C   UNL     1       1.028   9.588  20.517  0.00  0.00    +0.000 C 
ATOM     11  C   UNL     1       1.175  11.139  20.563  0.00  0.00    +0.000 C 
ATOM     12  C   UNL     1       0.868  11.771  19.182  0.00  0.00    +0.000 C 
ATOM     13  C   UNL     1      -0.549  11.369  18.708  0.00  0.00    +0.000 C 
ATOM     14  C   UNL     1       1.912  11.177  18.199  0.00  0.00    +0.000 C 
BRANCH  12  15
ATOM     15  C   UNL     1       0.920  13.309  19.210  0.00  0.00    +0.000 C 
ATOM     16  N   UNL     1      -0.160  13.963  18.687  0.00  0.00    +0.000 N 
ATOM     17  O   UNL     1       1.878  13.955  19.621  0.00  0.00    +0.000 OA
ATOM     18  H   UNL     1      -0.090  14.969  18.590  0.00  0.00    +0.000 HD
ATOM     19  H   UNL     1      -0.906  13.499  18.187  0.00  0.00    +0.000 HD
ENDBRANCH  12  15
ENDBRANCH   3   5
BRANCH   1  20
ATOM     20  C   UNL     1       2.123   5.052  18.775  0.00  0.00    +0.000 C 
ATOM     21  C   UNL     1       1.163   4.841  17.573  0.00  0.00    +0.000 C 
ATOM     22  C   UNL     1       1.488   5.141  20.194  0.00  0.00    +0.000 C 
BRANCH  20  24
ATOM     23  C   UNL     1       2.495   2.692  19.760  0.00  0.00    +0.000 C 
ATOM     24  N   UNL     1       3.023   3.755  18.868  0.00  0.00    +0.000 NA
BRANCH  24  25
ATOM     25  S   UNL     1       4.738   4.075  19.213  0.00  0.00    +0.000 S 
ATOM     26  O   UNL     1       4.873   5.380  19.809  0.00  0.00    +0.000 OA
ATOM     27  O   UNL     1       5.263   2.910  19.890  0.00  0.00    +0.000 OA
BRANCH  25  28
ATOM     28  C   UNL     1       5.622   4.194  17.663  0.00  0.00    +0.000 A 
ATOM     29  C   UNL     1       6.931   4.721  17.653  0.00  0.00    +0.000 A 
ATOM     30  C   UNL     1       7.557   5.027  16.440  0.00  0.00    +0.000 A 
ATOM     31  C   UNL     1       6.876   4.817  15.246  0.00  0.00    +0.000 A 
ATOM     32  F   UNL     1       7.464   5.134  14.086  0.00  0.00    +0.000 F 
ATOM     33  C   UNL     1       5.574   4.315  15.262  0.00  0.00    +0.000 A 
ATOM     34  F   UNL     1       4.909   4.157  14.110  0.00  0.00    +0.000 F 
ATOM     35  C   UNL     1       4.937   4.008  16.463  0.00  0.00    +0.000 A 
ENDBRANCH  25  28
ENDBRANCH  24  25
ENDBRANCH  20  24
ENDBRANCH   1  20
TORSDOF 6
ENDMDL
MODEL 4
REMARK VINA RESULT:      -8.3      1.177      1.579
REMARK  Name = 
REMARK  9 active torsions:
REMARK  status: ('A' for Active; 'I' for Inactive)
REMARK    1  A    between atoms: C_1  and  N_2
REMARK    2  A    between atoms: N_2  and  C_3
REMARK    3  A    between atoms: N_2  and  S_22
REMARK    4  A    between atoms: C_3  and  C_4
REMARK    5  A    between atoms: C_3  and  C_5
REMARK    6  A    between atoms: C_3  and  C_6
REMARK    7  A    between atoms: N_8  and  C_9
REMARK    8  A    between atoms: C_16  and  C_17
REMARK    9  A    between atoms: S_22  and  C_25
REMARK                            x       y       z     vdW  Elec       q    Type
REMARK                         _______ _______ _______ _____ _____    ______ ____
ROOT
ATOM      1  C   UNL     1       1.608   8.365  19.984  0.00  0.00    +0.000 C 
ATOM      2  O   UNL     1       1.450   8.336  21.193  0.00  0.00    +0.000 OA
ATOM      3  N   UNL     1       2.368   7.385  19.276  0.00  0.00    +0.000 N 
ATOM      4  H   UNL     1       2.484   7.556  18.286  0.00  0.00    +0.000 HD
ENDROOT
BRANCH   3   5
ATOM      5  C   UNL     1       3.053   6.138  19.728  0.00  0.00    +0.000 C 
ATOM      6  C   UNL     1       2.042   4.939  19.771  0.00  0.00    +0.000 C 
ATOM      7  C   UNL     1       1.516   4.615  18.352  0.00  0.00    +0.000 C 
ATOM      8  C   UNL     1       2.677   4.256  17.419  0.00  0.00    +0.000 C 
ATOM      9  C   UNL     1       3.730   5.373  17.390  0.00  0.00    +0.000 C 
ATOM     10  C   UNL     1       4.232   5.695  18.814  0.00  0.00    +0.000 C 
ATOM     11  C   UNL     1       4.894   4.398  19.370  0.00  0.00    +0.000 C 
ATOM     12  C   UNL     1       3.893   3.215  19.370  0.00  0.00    +0.000 C 
ATOM     13  C   UNL     1       3.336   2.979  17.945  0.00  0.00    +0.000 C 
ATOM     14  C   UNL     1       2.725   3.644  20.299  0.00  0.00    +0.000 C 
BRANCH  12  15
ATOM     15  C   UNL     1       4.536   1.895  19.833  0.00  0.00    +0.000 C 
ATOM     16  N   UNL     1       4.426   0.834  18.978  0.00  0.00    +0.000 N 
ATOM     17  O   UNL     1       5.079   1.743  20.921  0.00  0.00    +0.000 OA
ATOM     18  H   UNL     1       4.739  -0.068  19.317  0.00  0.00    +0.000 HD
ATOM     19  H   UNL     1       3.855   0.844  18.144  0.00  0.00    +0.000 HD
ENDBRANCH  12  15
ENDBRANCH   3   5
BRANCH   1  20
ATOM     20  C   UNL     1       0.961   9.461  19.002  0.00  0.00    +0.000 C 
ATOM     21  C   UNL     1       0.599   8.607  17.757  0.00  0.00    +0.000 C 
ATOM     22  C   UNL     1       2.124  10.487  18.855  0.00  0.00    +0.000 C 
BRANCH  20  24
ATOM     23  C   UNL     1      -1.098  10.741  18.105  0.00  0.00    +0.000 C 
ATOM     24  N   UNL     1      -0.290  10.381  19.298  0.00  0.00    +0.000 NA
BRANCH  24  25
ATOM     25  S   UNL     1       0.075  11.823  20.273  0.00  0.00    +0.000 S 
ATOM     26  O   UNL     1       1.042  11.487  21.286  0.00  0.00    +0.000 OA
ATOM     27  O   UNL     1       0.337  12.907  19.352  0.00  0.00    +0.000 OA
BRANCH  25  28
ATOM     28  C   UNL     1      -1.392  12.286  21.184  0.00  0.00    +0.000 A 
ATOM     29  C   UNL     1      -1.485  11.961  22.555  0.00  0.00    +0.000 A 
ATOM     30  C   UNL     1      -2.699  12.113  23.233  0.00  0.00    +0.000 A 
ATOM     31  C   UNL     1      -3.814  12.576  22.545  0.00  0.00    +0.000 A 
ATOM     32  F   UNL     1      -4.984  12.697  23.186  0.00  0.00    +0.000 F 
ATOM     33  C   UNL     1      -3.723  12.877  21.185  0.00  0.00    +0.000 A 
ATOM     34  F   UNL     1      -4.813  13.281  20.518  0.00  0.00    +0.000 F 
ATOM     35  C   UNL     1      -2.520  12.729  20.495  0.00  0.00    +0.000 A 
ENDBRANCH  25  28
ENDBRANCH  24  25
ENDBRANCH  20  24
ENDBRANCH   1  20
TORSDOF 6
ENDMDL
MODEL 5
REMARK VINA RESULT:      -8.3      0.801      1.667
REMARK  Name = 
REMARK  9 active torsions:
REMARK  status: ('A' for Active; 'I' for Inactive)
REMARK    1  A    between atoms: C_1  and  N_2
REMARK    2  A    between atoms: N_2  and  C_3
REMARK    3  A    between atoms: N_2  and  S_22
REMARK    4  A    between atoms: C_3  and  C_4
REMARK    5  A    between atoms: C_3  and  C_5
REMARK    6  A    between atoms: C_3  and  C_6
REMARK    7  A    between atoms: N_8  and  C_9
REMARK    8  A    between atoms: C_16  and  C_17
REMARK    9  A    between atoms: S_22  and  C_25
REMARK                            x       y       z     vdW  Elec       q    Type
REMARK                         _______ _______ _______ _____ _____    ______ ____
ROOT
ATOM      1  C   UNL     1       2.217   8.466  18.207  0.00  0.00    +0.000 C 
ATOM      2  O   UNL     1       2.816   8.413  17.146  0.00  0.00    +0.000 OA
ATOM      3  N   UNL     1       2.309   7.447  19.202  0.00  0.00    +0.000 N 
ATOM      4  H   UNL     1       1.711   7.571  20.009  0.00  0.00    +0.000 HD
ENDROOT
BRANCH   3   5
ATOM      5  C   UNL     1       3.121   6.196  19.276  0.00  0.00    +0.000 C 
ATOM      6  C   UNL     1       2.617   5.282  20.448  0.00  0.00    +0.000 C 
ATOM      7  C   UNL     1       1.168   4.805  20.188  0.00  0.00    +0.000 C 
ATOM      8  C   UNL     1       1.089   4.020  18.875  0.00  0.00    +0.000 C 
ATOM      9  C   UNL     1       1.631   4.849  17.701  0.00  0.00    +0.000 C 
ATOM     10  C   UNL     1       3.071   5.330  17.984  0.00  0.00    +0.000 C 
ATOM     11  C   UNL     1       3.955   4.057  18.147  0.00  0.00    +0.000 C 
ATOM     12  C   UNL     1       3.423   3.148  19.284  0.00  0.00    +0.000 C 
ATOM     13  C   UNL     1       1.948   2.761  19.018  0.00  0.00    +0.000 C 
ATOM     14  C   UNL     1       3.491   4.001  20.579  0.00  0.00    +0.000 C 
BRANCH  12  15
ATOM     15  C   UNL     1       4.221   1.839  19.418  0.00  0.00    +0.000 C 
ATOM     16  N   UNL     1       3.930   0.855  18.515  0.00  0.00    +0.000 N 
ATOM     17  O   UNL     1       5.042   1.626  20.303  0.00  0.00    +0.000 OA
ATOM     18  H   UNL     1       4.359  -0.050  18.663  0.00  0.00    +0.000 HD
ATOM     19  H   UNL     1       3.156   0.902  17.867  0.00  0.00    +0.000 HD
ENDBRANCH  12  15
ENDBRANCH   3   5
BRANCH   1  20
ATOM     20  C   UNL     1       1.283   9.690  18.671  0.00  0.00    +0.000 C 
ATOM     21  C   UNL     1      -0.032   9.406  17.896  0.00  0.00    +0.000 C 
ATOM     22  C   UNL     1       2.125  10.922  18.229  0.00  0.00    +0.000 C 
BRANCH  20  24
ATOM     23  C   UNL     1      -0.202   9.200  20.728  0.00  0.00    +0.000 C 
ATOM     24  N   UNL     1       0.865  10.056  20.151  0.00  0.00    +0.000 NA
BRANCH  24  25
ATOM     25  S   UNL     1       0.502  11.778  20.406  0.00  0.00    +0.000 S 
ATOM     26  O   UNL     1       1.289  12.278  21.504  0.00  0.00    +0.000 OA
ATOM     27  O   UNL     1       0.565  12.424  19.114  0.00  0.00    +0.000 OA
BRANCH  25  28
ATOM     28  C   UNL     1      -1.191  11.931  20.959  0.00  0.00    +0.000 A 
ATOM     29  C   UNL     1      -2.187  12.319  20.037  0.00  0.00    +0.000 A 
ATOM     30  C   UNL     1      -3.468  12.658  20.486  0.00  0.00    +0.000 A 
ATOM     31  C   UNL     1      -3.750  12.618  21.846  0.00  0.00    +0.000 A 
ATOM     32  F   UNL     1      -4.968  12.968  22.280  0.00  0.00    +0.000 F 
ATOM     33  C   UNL     1      -2.756  12.253  22.756  0.00  0.00    +0.000 A 
ATOM     34  F   UNL     1      -3.022  12.261  24.069  0.00  0.00    +0.000 F 
ATOM     35  C   UNL     1      -1.475  11.916  22.324  0.00  0.00    +0.000 A 
ENDBRANCH  25  28
ENDBRANCH  24  25
ENDBRANCH  20  24
ENDBRANCH   1  20
TORSDOF 6
ENDMDL
MODEL 6
REMARK VINA RESULT:      -8.3      2.093      2.806
REMARK  Name = 
REMARK  9 active torsions:
REMARK  status: ('A' for Active; 'I' for Inactive)
REMARK    1  A    between atoms: C_1  and  N_2
REMARK    2  A    between atoms: N_2  and  C_3
REMARK    3  A    between atoms: N_2  and  S_22
REMARK    4  A    between atoms: C_3  and  C_4
REMARK    5  A    between atoms: C_3  and  C_5
REMARK    6  A    between atoms: C_3  and  C_6
REMARK    7  A    between atoms: N_8  and  C_9
REMARK    8  A    between atoms: C_16  and  C_17
REMARK    9  A    between atoms: S_22  and  C_25
REMARK                            x       y       z     vdW  Elec       q    Type
REMARK                         _______ _______ _______ _____ _____    ______ ____
ROOT
ATOM      1  C   UNL     1       1.777   8.666  18.513  0.00  0.00    +0.000 C 
ATOM      2  O   UNL     1       2.387   8.730  17.459  0.00  0.00    +0.000 OA
ATOM      3  N   UNL     1       1.936   7.590  19.438  0.00  0.00    +0.000 N 
ATOM      4  H   UNL     1       1.324   7.615  20.243  0.00  0.00    +0.000 HD
ENDROOT
BRANCH   3   5
ATOM      5  C   UNL     1       2.839   6.401  19.439  0.00  0.00    +0.000 C 
ATOM      6  C   UNL     1       2.445   5.412  20.592  0.00  0.00    +0.000 C 
ATOM      7  C   UNL     1       1.026   4.839  20.361  0.00  0.00    +0.000 C 
ATOM      8  C   UNL     1       0.959   4.096  19.023  0.00  0.00    +0.000 C 
ATOM      9  C   UNL     1       1.397   5.004  17.864  0.00  0.00    +0.000 C 
ATOM     10  C   UNL     1       2.807   5.580  18.117  0.00  0.00    +0.000 C 
ATOM     11  C   UNL     1       3.787   4.371  18.204  0.00  0.00    +0.000 C 
ATOM     12  C   UNL     1       3.362   3.386  19.322  0.00  0.00    +0.000 C 
ATOM     13  C   UNL     1       1.911   2.900  19.091  0.00  0.00    +0.000 C 
ATOM     14  C   UNL     1       3.414   4.196  20.646  0.00  0.00    +0.000 C 
BRANCH  12  15
ATOM     15  C   UNL     1       4.257   2.136  19.382  0.00  0.00    +0.000 C 
ATOM     16  N   UNL     1       4.113   1.236  18.363  0.00  0.00    +0.000 N 
ATOM     17  O   UNL     1       5.033   1.892  20.300  0.00  0.00    +0.000 OA
ATOM     18  H   UNL     1       4.607   0.356  18.449  0.00  0.00    +0.000 HD
ATOM     19  H   UNL     1       3.383   1.293  17.667  0.00  0.00    +0.000 HD
ENDBRANCH  12  15
ENDBRANCH   3   5
BRANCH   1  20
ATOM     20  C   UNL     1       0.750   9.782  19.045  0.00  0.00    +0.000 C 
ATOM     21  C   UNL     1       1.515  11.098  18.742  0.00  0.00    +0.000 C 
ATOM     22  C   UNL     1       0.582   9.377  20.539  0.00  0.00    +0.000 C 
BRANCH  20  24
ATOM     23  C   UNL     1      -1.011   9.613  17.161  0.00  0.00    +0.000 C 
ATOM     24  N   UNL     1      -0.741  10.005  18.568  0.00  0.00    +0.000 NA
BRANCH  24  25
ATOM     25  S   UNL     1      -1.384  11.628  18.906  0.00  0.00    +0.000 S 
ATOM     26  O   UNL     1      -1.283  11.901  20.317  0.00  0.00    +0.000 OA
ATOM     27  O   UNL     1      -0.789  12.533  17.948  0.00  0.00    +0.000 OA
BRANCH  25  28
ATOM     28  C   UNL     1      -3.140  11.630  18.571  0.00  0.00    +0.000 A 
ATOM     29  C   UNL     1      -3.594  11.394  17.256  0.00  0.00    +0.000 A 
ATOM     30  C   UNL     1      -4.936  11.606  16.925  0.00  0.00    +0.000 A 
ATOM     31  C   UNL     1      -5.818  12.061  17.899  0.00  0.00    +0.000 A 
ATOM     32  F   UNL     1      -7.097  12.289  17.577  0.00  0.00    +0.000 F 
ATOM     33  C   UNL     1      -5.361  12.313  19.194  0.00  0.00    +0.000 A 
ATOM     34  F   UNL     1      -6.207  12.793  20.115  0.00  0.00    +0.000 F 
ATOM     35  C   UNL     1      -4.026  12.108  19.537  0.00  0.00    +0.000 A 
ENDBRANCH  25  28
ENDBRANCH  24  25
ENDBRANCH  20  24
ENDBRANCH   1  20
TORSDOF 6
ENDMDL
MODEL 7
REMARK VINA RESULT:      -8.3      2.393      2.824
REMARK  Name = 
REMARK  9 active torsions:
REMARK  status: ('A' for Active; 'I' for Inactive)
REMARK    1  A    between atoms: C_1  and  N_2
REMARK    2  A    between atoms: N_2  and  C_3
REMARK    3  A    between atoms: N_2  and  S_22
REMARK    4  A    between atoms: C_3  and  C_4
REMARK    5  A    between atoms: C_3  and  C_5
REMARK    6  A    between atoms: C_3  and  C_6
REMARK    7  A    between atoms: N_8  and  C_9
REMARK    8  A    between atoms: C_16  and  C_17
REMARK    9  A    between atoms: S_22  and  C_25
REMARK                            x       y       z     vdW  Elec       q    Type
REMARK                         _______ _______ _______ _____ _____    ______ ____
ROOT
ATOM      1  C   UNL     1       2.009   8.540  18.287  0.00  0.00    +0.000 C 
ATOM      2  O   UNL     1       2.706   8.600  17.288  0.00  0.00    +0.000 OA
ATOM      3  N   UNL     1       2.074   7.456  19.215  0.00  0.00    +0.000 N 
ATOM      4  H   UNL     1       1.397   7.485  19.966  0.00  0.00    +0.000 HD
ENDROOT
BRANCH   3   5
ATOM      5  C   UNL     1       2.955   6.253  19.282  0.00  0.00    +0.000 C 
ATOM      6  C   UNL     1       2.538   5.332  20.482  0.00  0.00    +0.000 C 
ATOM      7  C   UNL     1       1.110   4.773  20.272  0.00  0.00    +0.000 C 
ATOM      8  C   UNL     1       1.036   3.963  18.974  0.00  0.00    +0.000 C 
ATOM      9  C   UNL     1       1.497   4.802  17.772  0.00  0.00    +0.000 C 
ATOM     10  C   UNL     1       2.916   5.366  18.004  0.00  0.00    +0.000 C 
ATOM     11  C   UNL     1       3.873   4.145  18.159  0.00  0.00    +0.000 C 
ATOM     12  C   UNL     1       3.425   3.227  19.324  0.00  0.00    +0.000 C 
ATOM     13  C   UNL     1       1.967   2.756  19.109  0.00  0.00    +0.000 C 
ATOM     14  C   UNL     1       3.484   4.103  20.605  0.00  0.00    +0.000 C 
BRANCH  12  15
ATOM     15  C   UNL     1       4.298   1.966  19.453  0.00  0.00    +0.000 C 
ATOM     16  N   UNL     1       4.143   1.018  18.481  0.00  0.00    +0.000 N 
ATOM     17  O   UNL     1       5.063   1.755  20.388  0.00  0.00    +0.000 OA
ATOM     18  H   UNL     1       4.621   0.135  18.615  0.00  0.00    +0.000 HD
ATOM     19  H   UNL     1       3.419   1.052  17.777  0.00  0.00    +0.000 HD
ENDBRANCH  12  15
ENDBRANCH   3   5
BRANCH   1  20
ATOM     20  C   UNL     1       0.958   9.669  18.740  0.00  0.00    +0.000 C 
ATOM     21  C   UNL     1       0.797   9.371  20.256  0.00  0.00    +0.000 C 
ATOM     22  C   UNL     1      -0.257   9.365  17.816  0.00  0.00    +0.000 C 
BRANCH  20  24
ATOM     23  C   UNL     1       2.486  11.681  18.197  0.00  0.00    +0.000 C 
ATOM     24  N   UNL     1       1.129  11.234  18.602  0.00  0.00    +0.000 NA
BRANCH  24  25
ATOM     25  S   UNL     1       0.550  12.161  20.004  0.00  0.00    +0.000 S 
ATOM     26  O   UNL     1      -0.880  12.025  20.114  0.00  0.00    +0.000 OA
ATOM     27  O   UNL     1       1.399  11.820  21.124  0.00  0.00    +0.000 OA
BRANCH  25  28
ATOM     28  C   UNL     1       0.814  13.902  19.690  0.00  0.00    +0.000 A 
ATOM     29  C   UNL     1       1.752  14.611  20.471  0.00  0.00    +0.000 A 
ATOM     30  C   UNL     1       1.819  16.006  20.395  0.00  0.00    +0.000 A 
ATOM     31  C   UNL     1       0.949  16.689  19.555  0.00  0.00    +0.000 A 
ATOM     32  F   UNL     1       0.994  18.026  19.502  0.00  0.00    +0.000 F 
ATOM     33  C   UNL     1       0.008  15.985  18.800  0.00  0.00    +0.000 A 
ATOM     34  F   UNL     1      -0.857  16.654  18.025  0.00  0.00    +0.000 F 
ATOM     35  C   UNL     1      -0.072  14.596  18.866  0.00  0.00    +0.000 A 
ENDBRANCH  25  28
ENDBRANCH  24  25
ENDBRANCH  20  24
ENDBRANCH   1  20
TORSDOF 6
ENDMDL
MODEL 8
REMARK VINA RESULT:      -8.1      2.207      2.773
REMARK  Name = 
REMARK  9 active torsions:
REMARK  status: ('A' for Active; 'I' for Inactive)
REMARK    1  A    between atoms: C_1  and  N_2
REMARK    2  A    between atoms: N_2  and  C_3
REMARK    3  A    between atoms: N_2  and  S_22
REMARK    4  A    between atoms: C_3  and  C_4
REMARK    5  A    between atoms: C_3  and  C_5
REMARK    6  A    between atoms: C_3  and  C_6
REMARK    7  A    between atoms: N_8  and  C_9
REMARK    8  A    between atoms: C_16  and  C_17
REMARK    9  A    between atoms: S_22  and  C_25
REMARK                            x       y       z     vdW  Elec       q    Type
REMARK                         _______ _______ _______ _____ _____    ______ ____
ROOT
ATOM      1  C   UNL     1       1.717   8.485  19.477  0.00  0.00    +0.000 C 
ATOM      2  O   UNL     1       1.374   8.465  20.647  0.00  0.00    +0.000 OA
ATOM      3  N   UNL     1       2.574   7.499  18.902  0.00  0.00    +0.000 N 
ATOM      4  H   UNL     1       2.843   7.663  17.941  0.00  0.00    +0.000 HD
ENDROOT
BRANCH   3   5
ATOM      5  C   UNL     1       3.179   6.255  19.463  0.00  0.00    +0.000 C 
ATOM      6  C   UNL     1       2.136   5.082  19.448  0.00  0.00    +0.000 C 
ATOM      7  C   UNL     1       1.742   4.717  17.997  0.00  0.00    +0.000 C 
ATOM      8  C   UNL     1       2.977   4.295  17.196  0.00  0.00    +0.000 C 
ATOM      9  C   UNL     1       4.059   5.386  17.231  0.00  0.00    +0.000 C 
ATOM     10  C   UNL     1       4.429   5.750  18.685  0.00  0.00    +0.000 C 
ATOM     11  C   UNL     1       4.997   4.459  19.349  0.00  0.00    +0.000 C 
ATOM     12  C   UNL     1       3.970   3.301  19.293  0.00  0.00    +0.000 C 
ATOM     13  C   UNL     1       3.548   3.025  17.829  0.00  0.00    +0.000 C 
ATOM     14  C   UNL     1       2.729   3.792  20.086  0.00  0.00    +0.000 C 
BRANCH  12  15
ATOM     15  C   UNL     1       4.528   1.985  19.862  0.00  0.00    +0.000 C 
ATOM     16  N   UNL     1       4.448   0.888  19.050  0.00  0.00    +0.000 N 
ATOM     17  O   UNL     1       4.980   1.867  20.996  0.00  0.00    +0.000 OA
ATOM     18  H   UNL     1       4.702  -0.005  19.453  0.00  0.00    +0.000 HD
ATOM     19  H   UNL     1       3.943   0.877  18.174  0.00  0.00    +0.000 HD
ENDBRANCH  12  15
ENDBRANCH   3   5
BRANCH   1  20
ATOM     20  C   UNL     1       1.233   9.576  18.399  0.00  0.00    +0.000 C 
ATOM     21  C   UNL     1       0.150   8.792  17.609  0.00  0.00    +0.000 C 
ATOM     22  C   UNL     1       2.561   9.908  17.659  0.00  0.00    +0.000 C 
BRANCH  20  24
ATOM     23  C   UNL     1       1.611  12.014  19.167  0.00  0.00    +0.000 C 
ATOM     24  N   UNL     1       0.627  11.004  18.701  0.00  0.00    +0.000 NA
BRANCH  24  25
ATOM     25  S   UNL     1      -0.806  10.985  19.754  0.00  0.00    +0.000 S 
ATOM     26  O   UNL     1      -1.077   9.635  20.174  0.00  0.00    +0.000 OA
ATOM     27  O   UNL     1      -0.628  12.029  20.738  0.00  0.00    +0.000 OA
BRANCH  25  28
ATOM     28  C   UNL     1      -2.235  11.451  18.785  0.00  0.00    +0.000 A 
ATOM     29  C   UNL     1      -3.368  11.986  19.437  0.00  0.00    +0.000 A 
ATOM     30  C   UNL     1      -4.568  12.151  18.739  0.00  0.00    +0.000 A 
ATOM     31  C   UNL     1      -4.641  11.777  17.403  0.00  0.00    +0.000 A 
ATOM     32  F   UNL     1      -5.797  11.910  16.740  0.00  0.00    +0.000 F 
ATOM     33  C   UNL     1      -3.525  11.230  16.767  0.00  0.00    +0.000 A 
ATOM     34  F   UNL     1      -3.615  10.830  15.492  0.00  0.00    +0.000 F 
ATOM     35  C   UNL     1      -2.322  11.057  17.451  0.00  0.00    +0.000 A 
ENDBRANCH  25  28
ENDBRANCH  24  25
ENDBRANCH  20  24
ENDBRANCH   1  20
TORSDOF 6
ENDMDL
MODEL 9
REMARK VINA RESULT:      -8.1      1.288      1.869
REMARK  Name = 
REMARK  9 active torsions:
REMARK  status: ('A' for Active; 'I' for Inactive)
REMARK    1  A    between atoms: C_1  and  N_2
REMARK    2  A    between atoms: N_2  and  C_3
REMARK    3  A    between atoms: N_2  and  S_22
REMARK    4  A    between atoms: C_3  and  C_4
REMARK    5  A    between atoms: C_3  and  C_5
REMARK    6  A    between atoms: C_3  and  C_6
REMARK    7  A    between atoms: N_8  and  C_9
REMARK    8  A    between atoms: C_16  and  C_17
REMARK    9  A    between atoms: S_22  and  C_25
REMARK                            x       y       z     vdW  Elec       q    Type
REMARK                         _______ _______ _______ _____ _____    ______ ____
ROOT
ATOM      1  C   UNL     1       1.689   7.933  20.327  0.00  0.00    +0.000 C 
ATOM      2  O   UNL     1       2.296   8.252  19.318  0.00  0.00    +0.000 OA
ATOM      3  N   UNL     1       1.857   6.666  20.965  0.00  0.00    +0.000 N 
ATOM      4  H   UNL     1       1.247   6.492  21.753  0.00  0.00    +0.000 HD
ENDROOT
BRANCH   3   5
ATOM      5  C   UNL     1       2.764   5.517  20.676  0.00  0.00    +0.000 C 
ATOM      6  C   UNL     1       2.149   4.180  21.220  0.00  0.00    +0.000 C 
ATOM      7  C   UNL     1       0.829   3.844  20.483  0.00  0.00    +0.000 C 
ATOM      8  C   UNL     1       1.077   3.703  18.978  0.00  0.00    +0.000 C 
ATOM      9  C   UNL     1       1.739   4.965  18.405  0.00  0.00    +0.000 C 
ATOM     10  C   UNL     1       3.045   5.295  19.161  0.00  0.00    +0.000 C 
ATOM     11  C   UNL     1       4.009   4.087  18.958  0.00  0.00    +0.000 C 
ATOM     12  C   UNL     1       3.371   2.770  19.466  0.00  0.00    +0.000 C 
ATOM     13  C   UNL     1       2.018   2.517  18.757  0.00  0.00    +0.000 C 
ATOM     14  C   UNL     1       3.109   2.979  20.982  0.00  0.00    +0.000 C 
BRANCH  12  15
ATOM     15  C   UNL     1       4.260   1.541  19.203  0.00  0.00    +0.000 C 
ATOM     16  N   UNL     1       3.966   0.805  18.089  0.00  0.00    +0.000 N 
ATOM     17  O   UNL     1       5.159   1.174  19.952  0.00  0.00    +0.000 OA
ATOM     18  H   UNL     1       4.463  -0.068  17.967  0.00  0.00    +0.000 HD
ATOM     19  H   UNL     1       3.143   0.955  17.522  0.00  0.00    +0.000 HD
ENDBRANCH  12  15
ENDBRANCH   3   5
BRANCH   1  20
ATOM     20  C   UNL     1       0.659   8.882  21.116  0.00  0.00    +0.000 C 
ATOM     21  C   UNL     1       1.461   9.236  22.398  0.00  0.00    +0.000 C 
ATOM     22  C   UNL     1      -0.577   7.949  21.277  0.00  0.00    +0.000 C 
BRANCH  20  24
ATOM     23  C   UNL     1       0.719  10.844  19.436  0.00  0.00    +0.000 C 
ATOM     24  N   UNL     1       0.021  10.231  20.594  0.00  0.00    +0.000 NA
BRANCH  24  25
ATOM     25  S   UNL     1      -0.278  11.439  21.864  0.00  0.00    +0.000 S 
ATOM     26  O   UNL     1      -0.265  10.796  23.153  0.00  0.00    +0.000 OA
ATOM     27  O   UNL     1       0.598  12.560  21.603  0.00  0.00    +0.000 OA
BRANCH  25  28
ATOM     28  C   UNL     1      -1.946  12.058  21.685  0.00  0.00    +0.000 A 
ATOM     29  C   UNL     1      -2.313  12.725  20.497  0.00  0.00    +0.000 A 
ATOM     30  C   UNL     1      -3.533  13.406  20.420  0.00  0.00    +0.000 A 
ATOM     31  C   UNL     1      -4.376  13.427  21.525  0.00  0.00    +0.000 A 
ATOM     32  F   UNL     1      -5.532  14.100  21.461  0.00  0.00    +0.000 F 
ATOM     33  C   UNL     1      -4.000  12.783  22.704  0.00  0.00    +0.000 A 
ATOM     34  F   UNL     1      -4.798  12.846  23.779  0.00  0.00    +0.000 F 
ATOM     35  C   UNL     1      -2.787  12.103  22.797  0.00  0.00    +0.000 A 
ENDBRANCH  25  28
ENDBRANCH  24  25
ENDBRANCH  20  24
ENDBRANCH   1  20
TORSDOF 6
ENDMDL
