MODEL 1
REMARK VINA RESULT:      -6.2      0.000      0.000
REMARK  Name = 
REMARK  7 active torsions:
REMARK  status: ('A' for Active; 'I' for Inactive)
REMARK    1  A    between atoms: C_1  and  C_2
REMARK    2  A    between atoms: C_2  and  O_3
REMARK    3  A    between atoms: O_3  and  C_4
REMARK    4  A    between atoms: C_4  and  C_6
REMARK    5  A    between atoms: C_7  and  N_8
REMARK    6  A    between atoms: C_12  and  O_13
REMARK    7  A    between atoms: C_18  and  C_19
REMARK                            x       y       z     vdW  Elec       q    Type
REMARK                         _______ _______ _______ _____ _____    ______ ____
ROOT
ATOM      1  C   UNL     1       0.067  10.657  19.745  0.00  0.00    +0.000 C 
ATOM      2  C   UNL     1       0.431   9.863  18.719  0.00  0.00    +0.000 C 
ATOM      3  O   UNL     1      -0.362   9.722  17.578  0.00  0.00    +0.000 OA
ATOM      4  C   UNL     1      -1.615  10.289  17.538  0.00  0.00    +0.000 A 
ATOM      5  C   UNL     1      -2.394  10.054  16.402  0.00  0.00    +0.000 A 
ATOM      6  C   UNL     1      -3.665  10.629  16.297  0.00  0.00    +0.000 A 
ATOM      7  C   UNL     1      -4.165  11.425  17.330  0.00  0.00    +0.000 A 
ATOM      8 BR   UNL     1      -5.868  12.251  17.228  0.00  0.00    +0.000 Br
ATOM      9  C   UNL     1      -3.391  11.651  18.464  0.00  0.00    +0.000 A 
ATOM     10  C   UNL     1      -2.101  11.100  18.563  0.00  0.00    +0.000 A 
ATOM     11  C   UNL     1      -1.211  11.454  19.733  0.00  0.00    +0.000 C 
ENDROOT
BRANCH  11  12
ATOM     12  C   UNL     1      -0.935  12.954  19.739  0.00  0.00    +0.000 A 
ATOM     13  C   UNL     1      -0.254  13.589  18.692  0.00  0.00    +0.000 A 
ATOM     14  C   UNL     1      -0.024  14.958  18.749  0.00  0.00    +0.000 A 
ATOM     15  C   UNL     1      -0.489  15.652  19.853  0.00  0.00    +0.000 A 
ATOM     16  N   UNL     1      -1.161  15.082  20.875  0.00  0.00    +0.000 NA
ATOM     17  C   UNL     1      -1.368  13.748  20.798  0.00  0.00    +0.000 A 
ENDBRANCH  11  12
BRANCH   2  18
ATOM     18  N   UNL     1       1.599   9.136  18.658  0.00  0.00    +0.000 N 
ATOM     19  H   UNL     1       2.390   9.682  18.314  0.00  0.00    +0.000 HD
ATOM     20  H   UNL     1       1.487   8.253  18.171  0.00  0.00    +0.000 HD
ENDBRANCH   2  18
BRANCH   1  21
ATOM     21  C   UNL     1       0.868  10.853  20.979  0.00  0.00    +0.000 C 
ATOM     22  O   UNL     1       1.447  11.891  21.229  0.00  0.00    +0.000 OA
BRANCH  21  23
ATOM     23  O   UNL     1       1.023   9.682  21.653  0.00  0.00    +0.000 OA
BRANCH  23  25
ATOM     24  C   UNL     1      -0.659   9.884  23.319  0.00  0.00    +0.000 C 
ATOM     25  C   UNL     1      -0.205   9.097  22.103  0.00  0.00    +0.000 C 
ENDBRANCH  23  25
ENDBRANCH  21  23
ENDBRANCH   1  21
BRANCH   6  26
ATOM     26  O   UNL     1      -4.424  10.426  15.178  0.00  0.00    +0.000 OA
ATOM     27  H   UNL     1      -5.365  10.467  15.411  0.00  0.00    +0.000 HD
ENDBRANCH   6  26
TORSDOF 6
ENDMDL
MODEL 2
REMARK VINA RESULT:      -6.2      6.737      9.167
REMARK  Name = 
REMARK  7 active torsions:
REMARK  status: ('A' for Active; 'I' for Inactive)
REMARK    1  A    between atoms: C_1  and  C_2
REMARK    2  A    between atoms: C_2  and  O_3
REMARK    3  A    between atoms: O_3  and  C_4
REMARK    4  A    between atoms: C_4  and  C_6
REMARK    5  A    between atoms: C_7  and  N_8
REMARK    6  A    between atoms: C_12  and  O_13
REMARK    7  A    between atoms: C_18  and  C_19
REMARK                            x       y       z     vdW  Elec       q    Type
REMARK                         _______ _______ _______ _____ _____    ______ ____
ROOT
ATOM      1  C   UNL     1       3.166   4.084  18.321  0.00  0.00    +0.000 C 
ATOM      2  C   UNL     1       3.979   3.249  18.996  0.00  0.00    +0.000 C 
ATOM      3  O   UNL     1       5.279   3.613  19.352  0.00  0.00    +0.000 OA
ATOM      4  C   UNL     1       5.812   4.796  18.893  0.00  0.00    +0.000 A 
ATOM      5  C   UNL     1       7.142   5.074  19.220  0.00  0.00    +0.000 A 
ATOM      6  C   UNL     1       7.725   6.274  18.802  0.00  0.00    +0.000 A 
ATOM      7  C   UNL     1       6.989   7.191  18.047  0.00  0.00    +0.000 A 
ATOM      8 BR   UNL     1       7.721   8.844  17.479  0.00  0.00    +0.000 Br
ATOM      9  C   UNL     1       5.667   6.906  17.716  0.00  0.00    +0.000 A 
ATOM     10  C   UNL     1       5.066   5.715  18.157  0.00  0.00    +0.000 A 
ATOM     11  C   UNL     1       3.594   5.470  17.911  0.00  0.00    +0.000 C 
ENDROOT
BRANCH  11  12
ATOM     12  C   UNL     1       2.766   6.541  18.612  0.00  0.00    +0.000 A 
ATOM     13  C   UNL     1       2.299   7.679  17.941  0.00  0.00    +0.000 A 
ATOM     14  C   UNL     1       1.553   8.628  18.629  0.00  0.00    +0.000 A 
ATOM     15  C   UNL     1       1.291   8.406  19.970  0.00  0.00    +0.000 A 
ATOM     16  N   UNL     1       1.710   7.317  20.650  0.00  0.00    +0.000 NA
ATOM     17  C   UNL     1       2.438   6.411  19.960  0.00  0.00    +0.000 A 
ENDBRANCH  11  12
BRANCH   2  18
ATOM     18  N   UNL     1       3.635   1.986  19.423  0.00  0.00    +0.000 N 
ATOM     19  H   UNL     1       2.657   1.916  19.713  0.00  0.00    +0.000 HD
ATOM     20  H   UNL     1       4.278   1.616  20.116  0.00  0.00    +0.000 HD
ENDBRANCH   2  18
BRANCH   1  21
ATOM     21  C   UNL     1       1.775   3.759  17.920  0.00  0.00    +0.000 C 
ATOM     22  O   UNL     1       1.212   4.308  16.993  0.00  0.00    +0.000 OA
BRANCH  21  23
ATOM     23  O   UNL     1       1.179   2.946  18.833  0.00  0.00    +0.000 OA
BRANCH  23  25
ATOM     24  C   UNL     1       1.091   2.992  21.208  0.00  0.00    +0.000 C 
ATOM     25  C   UNL     1       0.581   3.641  19.934  0.00  0.00    +0.000 C 
ENDBRANCH  23  25
ENDBRANCH  21  23
ENDBRANCH   1  21
BRANCH   6  26
ATOM     26  O   UNL     1       9.017   6.568  19.138  0.00  0.00    +0.000 OA
ATOM     27  H   UNL     1       9.247   6.124  19.971  0.00  0.00    +0.000 HD
ENDBRANCH   6  26
TORSDOF 6
ENDMDL
MODEL 3
REMARK VINA RESULT:      -6.2      5.669      8.441
REMARK  Name = 
REMARK  7 active torsions:
REMARK  status: ('A' for Active; 'I' for Inactive)
REMARK    1  A    between atoms: C_1  and  C_2
REMARK    2  A    between atoms: C_2  and  O_3
REMARK    3  A    between atoms: O_3  and  C_4
REMARK    4  A    between atoms: C_4  and  C_6
REMARK    5  A    between atoms: C_7  and  N_8
REMARK    6  A    between atoms: C_12  and  O_13
REMARK    7  A    between atoms: C_18  and  C_19
REMARK                            x       y       z     vdW  Elec       q    Type
REMARK                         _______ _______ _______ _____ _____    ______ ____
ROOT
ATOM      1  C   UNL     1       1.994   7.643  19.682  0.00  0.00    +0.000 C 
ATOM      2  C   UNL     1       1.858   8.362  18.551  0.00  0.00    +0.000 C 
ATOM      3  O   UNL     1       2.667   8.142  17.435  0.00  0.00    +0.000 OA
ATOM      4  C   UNL     1       3.728   7.268  17.517  0.00  0.00    +0.000 A 
ATOM      5  C   UNL     1       4.548   7.142  16.392  0.00  0.00    +0.000 A 
ATOM      6  C   UNL     1       5.624   6.248  16.412  0.00  0.00    +0.000 A 
ATOM      7  C   UNL     1       5.891   5.492  17.555  0.00  0.00    +0.000 A 
ATOM      8 BR   UNL     1       7.318   4.246  17.625  0.00  0.00    +0.000 Br
ATOM      9  C   UNL     1       5.077   5.626  18.676  0.00  0.00    +0.000 A 
ATOM     10  C   UNL     1       3.977   6.501  18.653  0.00  0.00    +0.000 A 
ATOM     11  C   UNL     1       3.018   6.547  19.822  0.00  0.00    +0.000 C 
ENDROOT
BRANCH  11  12
ATOM     12  C   UNL     1       2.357   5.184  20.003  0.00  0.00    +0.000 A 
ATOM     13  C   UNL     1       2.383   4.501  21.226  0.00  0.00    +0.000 A 
ATOM     14  C   UNL     1       1.769   3.259  21.336  0.00  0.00    +0.000 A 
ATOM     15  C   UNL     1       1.143   2.740  20.216  0.00  0.00    +0.000 A 
ATOM     16  N   UNL     1       1.083   3.371  19.025  0.00  0.00    +0.000 NA
ATOM     17  C   UNL     1       1.692   4.575  18.942  0.00  0.00    +0.000 A 
ENDBRANCH  11  12
BRANCH   2  18
ATOM     18  N   UNL     1       0.923   9.354  18.354  0.00  0.00    +0.000 N 
ATOM     19  H   UNL     1       1.190  10.243  18.781  0.00  0.00    +0.000 HD
ATOM     20  H   UNL     1      -0.017   9.063  18.602  0.00  0.00    +0.000 HD
ENDBRANCH   2  18
BRANCH   1  21
ATOM     21  C   UNL     1       1.162   7.824  20.898  0.00  0.00    +0.000 C 
ATOM     22  O   UNL     1       0.159   7.174  21.111  0.00  0.00    +0.000 OA
BRANCH  21  23
ATOM     23  O   UNL     1       1.555   8.922  21.600  0.00  0.00    +0.000 OA
BRANCH  23  25
ATOM     24  C   UNL     1       0.035   9.542  23.318  0.00  0.00    +0.000 C 
ATOM     25  C   UNL     1       0.493   9.835  21.902  0.00  0.00    +0.000 C 
ENDBRANCH  23  25
ENDBRANCH  21  23
ENDBRANCH   1  21
BRANCH   6  26
ATOM     26  O   UNL     1       6.416   6.099  15.308  0.00  0.00    +0.000 OA
ATOM     27  H   UNL     1       6.841   5.226  15.327  0.00  0.00    +0.000 HD
ENDBRANCH   6  26
TORSDOF 6
ENDMDL
MODEL 4
REMARK VINA RESULT:      -6.1      9.074     10.397
REMARK  Name = 
REMARK  7 active torsions:
REMARK  status: ('A' for Active; 'I' for Inactive)
REMARK    1  A    between atoms: C_1  and  C_2
REMARK    2  A    between atoms: C_2  and  O_3
REMARK    3  A    between atoms: O_3  and  C_4
REMARK    4  A    between atoms: C_4  and  C_6
REMARK    5  A    between atoms: C_7  and  N_8
REMARK    6  A    between atoms: C_12  and  O_13
REMARK    7  A    between atoms: C_18  and  C_19
REMARK                            x       y       z     vdW  Elec       q    Type
REMARK                         _______ _______ _______ _____ _____    ______ ____
ROOT
ATOM      1  C   UNL     1       6.792   6.095  18.288  0.00  0.00    +0.000 C 
ATOM      2  C   UNL     1       7.152   5.450  19.414  0.00  0.00    +0.000 C 
ATOM      3  O   UNL     1       6.315   4.517  20.029  0.00  0.00    +0.000 OA
ATOM      4  C   UNL     1       5.030   4.338  19.569  0.00  0.00    +0.000 A 
ATOM      5  C   UNL     1       4.213   3.445  20.268  0.00  0.00    +0.000 A 
ATOM      6  C   UNL     1       2.908   3.205  19.827  0.00  0.00    +0.000 A 
ATOM      7  C   UNL     1       2.412   3.864  18.699  0.00  0.00    +0.000 A 
ATOM      8 BR   UNL     1       0.661   3.555  18.042  0.00  0.00    +0.000 Br
ATOM      9  C   UNL     1       3.225   4.758  18.011  0.00  0.00    +0.000 A 
ATOM     10  C   UNL     1       4.548   4.983  18.431  0.00  0.00    +0.000 A 
ATOM     11  C   UNL     1       5.471   5.852  17.606  0.00  0.00    +0.000 C 
ENDROOT
BRANCH  11  12
ATOM     12  C   UNL     1       5.660   5.238  16.223  0.00  0.00    +0.000 A 
ATOM     13  C   UNL     1       5.250   5.895  15.055  0.00  0.00    +0.000 A 
ATOM     14  C   UNL     1       5.440   5.289  13.819  0.00  0.00    +0.000 A 
ATOM     15  C   UNL     1       6.043   4.043  13.790  0.00  0.00    +0.000 A 
ATOM     16  N   UNL     1       6.466   3.384  14.889  0.00  0.00    +0.000 NA
ATOM     17  C   UNL     1       6.264   3.992  16.079  0.00  0.00    +0.000 A 
ENDBRANCH  11  12
BRANCH   2  18
ATOM     18  N   UNL     1       8.356   5.607  20.065  0.00  0.00    +0.000 N 
ATOM     19  H   UNL     1       9.150   5.660  19.424  0.00  0.00    +0.000 HD
ATOM     20  H   UNL     1       8.493   4.930  20.808  0.00  0.00    +0.000 HD
ENDBRANCH   2  18
BRANCH   1  21
ATOM     21  C   UNL     1       7.639   7.091  17.584  0.00  0.00    +0.000 C 
ATOM     22  O   UNL     1       7.897   7.015  16.400  0.00  0.00    +0.000 OA
BRANCH  21  23
ATOM     23  O   UNL     1       8.227   7.943  18.466  0.00  0.00    +0.000 OA
BRANCH  23  25
ATOM     24  C   UNL     1       9.156  10.067  18.991  0.00  0.00    +0.000 C 
ATOM     25  C   UNL     1       8.258   9.308  18.031  0.00  0.00    +0.000 C 
ENDBRANCH  23  25
ENDBRANCH  21  23
ENDBRANCH   1  21
BRANCH   6  26
ATOM     26  O   UNL     1       2.109   2.314  20.488  0.00  0.00    +0.000 OA
ATOM     27  H   UNL     1       2.592   1.484  20.627  0.00  0.00    +0.000 HD
ENDBRANCH   6  26
TORSDOF 6
ENDMDL
MODEL 5
REMARK VINA RESULT:      -6.0      6.805      8.736
REMARK  Name = 
REMARK  7 active torsions:
REMARK  status: ('A' for Active; 'I' for Inactive)
REMARK    1  A    between atoms: C_1  and  C_2
REMARK    2  A    between atoms: C_2  and  O_3
REMARK    3  A    between atoms: O_3  and  C_4
REMARK    4  A    between atoms: C_4  and  C_6
REMARK    5  A    between atoms: C_7  and  N_8
REMARK    6  A    between atoms: C_12  and  O_13
REMARK    7  A    between atoms: C_18  and  C_19
REMARK                            x       y       z     vdW  Elec       q    Type
REMARK                         _______ _______ _______ _____ _____    ______ ____
ROOT
ATOM      1  C   UNL     1       4.988   5.698  17.147  0.00  0.00    +0.000 C 
ATOM      2  C   UNL     1       4.835   4.734  16.219  0.00  0.00    +0.000 C 
ATOM      3  O   UNL     1       3.998   3.636  16.427  0.00  0.00    +0.000 OA
ATOM      4  C   UNL     1       3.412   3.442  17.657  0.00  0.00    +0.000 A 
ATOM      5  C   UNL     1       2.643   2.288  17.830  0.00  0.00    +0.000 A 
ATOM      6  C   UNL     1       2.002   2.056  19.051  0.00  0.00    +0.000 A 
ATOM      7  C   UNL     1       2.138   2.965  20.103  0.00  0.00    +0.000 A 
ATOM      8 BR   UNL     1       1.269   2.713  21.769  0.00  0.00    +0.000 Br
ATOM      9  C   UNL     1       2.911   4.109  19.930  0.00  0.00    +0.000 A 
ATOM     10  C   UNL     1       3.535   4.363  18.696  0.00  0.00    +0.000 A 
ATOM     11  C   UNL     1       4.263   5.669  18.467  0.00  0.00    +0.000 C 
ENDROOT
BRANCH  11  12
ATOM     12  C   UNL     1       3.288   6.835  18.596  0.00  0.00    +0.000 A 
ATOM     13  C   UNL     1       3.010   7.694  17.525  0.00  0.00    +0.000 A 
ATOM     14  C   UNL     1       2.118   8.745  17.697  0.00  0.00    +0.000 A 
ATOM     15  C   UNL     1       1.525   8.900  18.938  0.00  0.00    +0.000 A 
ATOM     16  N   UNL     1       1.754   8.087  19.991  0.00  0.00    +0.000 NA
ATOM     17  C   UNL     1       2.630   7.075  19.799  0.00  0.00    +0.000 A 
ENDBRANCH  11  12
BRANCH   2  18
ATOM     18  N   UNL     1       5.447   4.721  14.985  0.00  0.00    +0.000 N 
ATOM     19  H   UNL     1       6.392   4.335  15.013  0.00  0.00    +0.000 HD
ATOM     20  H   UNL     1       5.402   5.619  14.514  0.00  0.00    +0.000 HD
ENDBRANCH   2  18
BRANCH   1  21
ATOM     21  C   UNL     1       5.857   6.890  16.983  0.00  0.00    +0.000 C 
ATOM     22  O   UNL     1       6.085   7.394  15.902  0.00  0.00    +0.000 OA
BRANCH  21  23
ATOM     23  O   UNL     1       6.498   7.191  18.144  0.00  0.00    +0.000 OA
BRANCH  23  25
ATOM     24  C   UNL     1       7.887   5.677  19.338  0.00  0.00    +0.000 C 
ATOM     25  C   UNL     1       7.842   6.698  18.216  0.00  0.00    +0.000 C 
ENDBRANCH  23  25
ENDBRANCH  21  23
ENDBRANCH   1  21
BRANCH   6  26
ATOM     26  O   UNL     1       1.227   0.943  19.223  0.00  0.00    +0.000 OA
ATOM     27  H   UNL     1       0.691   1.039  20.027  0.00  0.00    +0.000 HD
ENDBRANCH   6  26
TORSDOF 6
ENDMDL
MODEL 6
REMARK VINA RESULT:      -6.0      0.801      1.187
REMARK  Name = 
REMARK  7 active torsions:
REMARK  status: ('A' for Active; 'I' for Inactive)
REMARK    1  A    between atoms: C_1  and  C_2
REMARK    2  A    between atoms: C_2  and  O_3
REMARK    3  A    between atoms: O_3  and  C_4
REMARK    4  A    between atoms: C_4  and  C_6
REMARK    5  A    between atoms: C_7  and  N_8
REMARK    6  A    between atoms: C_12  and  O_13
REMARK    7  A    between atoms: C_18  and  C_19
REMARK                            x       y       z     vdW  Elec       q    Type
REMARK                         _______ _______ _______ _____ _____    ______ ____
ROOT
ATOM      1  C   UNL     1      -0.194  11.015  19.999  0.00  0.00    +0.000 C 
ATOM      2  C   UNL     1       0.231  10.189  19.024  0.00  0.00    +0.000 C 
ATOM      3  O   UNL     1      -0.512   9.976  17.861  0.00  0.00    +0.000 OA
ATOM      4  C   UNL     1      -1.777  10.505  17.748  0.00  0.00    +0.000 A 
ATOM      5  C   UNL     1      -2.504  10.199  16.594  0.00  0.00    +0.000 A 
ATOM      6  C   UNL     1      -3.784  10.733  16.415  0.00  0.00    +0.000 A 
ATOM      7  C   UNL     1      -4.346  11.559  17.391  0.00  0.00    +0.000 A 
ATOM      8 BR   UNL     1      -6.065  12.332  17.187  0.00  0.00    +0.000 Br
ATOM      9  C   UNL     1      -3.623  11.855  18.543  0.00  0.00    +0.000 A 
ATOM     10  C   UNL     1      -2.324  11.346  18.716  0.00  0.00    +0.000 A 
ATOM     11  C   UNL     1      -1.491  11.775  19.903  0.00  0.00    +0.000 C 
ENDROOT
BRANCH  11  12
ATOM     12  C   UNL     1      -1.255  13.281  19.852  0.00  0.00    +0.000 A 
ATOM     13  C   UNL     1      -1.826  14.156  20.786  0.00  0.00    +0.000 A 
ATOM     14  C   UNL     1      -1.584  15.521  20.691  0.00  0.00    +0.000 A 
ATOM     15  C   UNL     1      -0.769  15.968  19.665  0.00  0.00    +0.000 A 
ATOM     16  N   UNL     1      -0.188  15.159  18.755  0.00  0.00    +0.000 NA
ATOM     17  C   UNL     1      -0.444  13.836  18.865  0.00  0.00    +0.000 A 
ENDBRANCH  11  12
BRANCH   2  18
ATOM     18  N   UNL     1       1.419   9.492  19.041  0.00  0.00    +0.000 N 
ATOM     19  H   UNL     1       1.500   8.824  18.272  0.00  0.00    +0.000 HD
ATOM     20  H   UNL     1       1.620   9.079  19.946  0.00  0.00    +0.000 HD
ENDBRANCH   2  18
BRANCH   1  21
ATOM     21  C   UNL     1       0.552  11.288  21.253  0.00  0.00    +0.000 C 
ATOM     22  O   UNL     1       1.706  11.666  21.263  0.00  0.00    +0.000 OA
BRANCH  21  23
ATOM     23  O   UNL     1      -0.149  10.866  22.340  0.00  0.00    +0.000 OA
BRANCH  23  25
ATOM     24  C   UNL     1      -0.519   8.520  22.255  0.00  0.00    +0.000 C 
ATOM     25  C   UNL     1       0.309   9.624  22.887  0.00  0.00    +0.000 C 
ENDBRANCH  23  25
ENDBRANCH  21  23
ENDBRANCH   1  21
BRANCH   6  26
ATOM     26  O   UNL     1      -4.492  10.461  15.278  0.00  0.00    +0.000 OA
ATOM     27  H   UNL     1      -4.892  11.278  14.939  0.00  0.00    +0.000 HD
ENDBRANCH   6  26
TORSDOF 6
ENDMDL
MODEL 7
REMARK VINA RESULT:      -5.9      2.769      4.901
REMARK  Name = 
REMARK  7 active torsions:
REMARK  status: ('A' for Active; 'I' for Inactive)
REMARK    1  A    between atoms: C_1  and  C_2
REMARK    2  A    between atoms: C_2  and  O_3
REMARK    3  A    between atoms: O_3  and  C_4
REMARK    4  A    between atoms: C_4  and  C_6
REMARK    5  A    between atoms: C_7  and  N_8
REMARK    6  A    between atoms: C_12  and  O_13
REMARK    7  A    between atoms: C_18  and  C_19
REMARK                            x       y       z     vdW  Elec       q    Type
REMARK                         _______ _______ _______ _____ _____    ______ ____
ROOT
ATOM      1  C   UNL     1       0.644  10.295  19.847  0.00  0.00    +0.000 C 
ATOM      2  C   UNL     1       0.729   9.611  21.004  0.00  0.00    +0.000 C 
ATOM      3  O   UNL     1      -0.114   9.881  22.084  0.00  0.00    +0.000 OA
ATOM      4  C   UNL     1      -0.967  10.960  22.037  0.00  0.00    +0.000 A 
ATOM      5  C   UNL     1      -1.734  11.226  23.175  0.00  0.00    +0.000 A 
ATOM      6  C   UNL     1      -2.638  12.293  23.171  0.00  0.00    +0.000 A 
ATOM      7  C   UNL     1      -2.767  13.104  22.041  0.00  0.00    +0.000 A 
ATOM      8 BR   UNL     1      -3.995  14.546  21.973  0.00  0.00    +0.000 Br
ATOM      9  C   UNL     1      -1.996  12.841  20.913  0.00  0.00    +0.000 A 
ATOM     10  C   UNL     1      -1.106  11.752  20.899  0.00  0.00    +0.000 A 
ATOM     11  C   UNL     1      -0.369  11.389  19.630  0.00  0.00    +0.000 C 
ENDROOT
BRANCH  11  12
ATOM     12  C   UNL     1      -1.368  11.019  18.539  0.00  0.00    +0.000 A 
ATOM     13  C   UNL     1      -2.142   9.853  18.603  0.00  0.00    +0.000 A 
ATOM     14  C   UNL     1      -3.034   9.560  17.579  0.00  0.00    +0.000 A 
ATOM     15  C   UNL     1      -3.127  10.448  16.521  0.00  0.00    +0.000 A 
ATOM     16  N   UNL     1      -2.410  11.587  16.427  0.00  0.00    +0.000 NA
ATOM     17  C   UNL     1      -1.546  11.847  17.434  0.00  0.00    +0.000 A 
ENDBRANCH  11  12
BRANCH   2  18
ATOM     18  N   UNL     1       1.611   8.583  21.251  0.00  0.00    +0.000 N 
ATOM     19  H   UNL     1       2.433   8.882  21.779  0.00  0.00    +0.000 HD
ATOM     20  H   UNL     1       1.849   8.060  20.414  0.00  0.00    +0.000 HD
ENDBRANCH   2  18
BRANCH   1  21
ATOM     21  C   UNL     1       1.505  10.051  18.663  0.00  0.00    +0.000 C 
ATOM     22  O   UNL     1       2.091  10.942  18.081  0.00  0.00    +0.000 OA
BRANCH  21  23
ATOM     23  O   UNL     1       1.376   8.772  18.219  0.00  0.00    +0.000 OA
BRANCH  23  25
ATOM     24  C   UNL     1       2.544   6.702  18.224  0.00  0.00    +0.000 C 
ATOM     25  C   UNL     1       2.610   8.163  17.820  0.00  0.00    +0.000 C 
ENDBRANCH  23  25
ENDBRANCH  21  23
ENDBRANCH   1  21
BRANCH   6  26
ATOM     26  O   UNL     1      -3.411  12.546  24.270  0.00  0.00    +0.000 OA
ATOM     27  H   UNL     1      -3.886  11.739  24.527  0.00  0.00    +0.000 HD
ENDBRANCH   6  26
TORSDOF 6
ENDMDL
MODEL 8
REMARK VINA RESULT:      -5.8      2.192      4.532
REMARK  Name = 
REMARK  7 active torsions:
REMARK  status: ('A' for Active; 'I' for Inactive)
REMARK    1  A    between atoms: C_1  and  C_2
REMARK    2  A    between atoms: C_2  and  O_3
REMARK    3  A    between atoms: O_3  and  C_4
REMARK    4  A    between atoms: C_4  and  C_6
REMARK    5  A    between atoms: C_7  and  N_8
REMARK    6  A    between atoms: C_12  and  O_13
REMARK    7  A    between atoms: C_18  and  C_19
REMARK                            x       y       z     vdW  Elec       q    Type
REMARK                         _______ _______ _______ _____ _____    ______ ____
ROOT
ATOM      1  C   UNL     1       0.569  12.705  20.059  0.00  0.00    +0.000 C 
ATOM      2  C   UNL     1      -0.441  13.110  20.854  0.00  0.00    +0.000 C 
ATOM      3  O   UNL     1      -1.772  12.804  20.569  0.00  0.00    +0.000 OA
ATOM      4  C   UNL     1      -2.098  12.192  19.380  0.00  0.00    +0.000 A 
ATOM      5  C   UNL     1      -3.453  11.976  19.115  0.00  0.00    +0.000 A 
ATOM      6  C   UNL     1      -3.837  11.333  17.934  0.00  0.00    +0.000 A 
ATOM      7  C   UNL     1      -2.874  10.919  17.011  0.00  0.00    +0.000 A 
ATOM      8 BR   UNL     1      -3.338  10.020  15.408  0.00  0.00    +0.000 Br
ATOM      9  C   UNL     1      -1.526  11.144  17.274  0.00  0.00    +0.000 A 
ATOM     10  C   UNL     1      -1.131  11.763  18.472  0.00  0.00    +0.000 A 
ATOM     11  C   UNL     1       0.337  11.886  18.816  0.00  0.00    +0.000 C 
ENDROOT
BRANCH  11  12
ATOM     12  C   UNL     1       0.958  10.499  18.936  0.00  0.00    +0.000 A 
ATOM     13  C   UNL     1       1.746   9.945  17.918  0.00  0.00    +0.000 A 
ATOM     14  C   UNL     1       2.284   8.674  18.076  0.00  0.00    +0.000 A 
ATOM     15  C   UNL     1       2.022   7.996  19.254  0.00  0.00    +0.000 A 
ATOM     16  N   UNL     1       1.281   8.499  20.264  0.00  0.00    +0.000 NA
ATOM     17  C   UNL     1       0.764   9.735  20.084  0.00  0.00    +0.000 A 
ENDBRANCH  11  12
BRANCH   2  18
ATOM     18  N   UNL     1      -0.289  13.833  22.017  0.00  0.00    +0.000 N 
ATOM     19  H   UNL     1      -0.593  13.320  22.846  0.00  0.00    +0.000 HD
ATOM     20  H   UNL     1      -0.693  14.762  21.957  0.00  0.00    +0.000 HD
ENDBRANCH   2  18
BRANCH   1  21
ATOM     21  C   UNL     1       2.003  12.993  20.311  0.00  0.00    +0.000 C 
ATOM     22  O   UNL     1       2.471  13.075  21.429  0.00  0.00    +0.000 OA
BRANCH  21  23
ATOM     23  O   UNL     1       2.640  13.343  19.162  0.00  0.00    +0.000 OA
BRANCH  23  25
ATOM     24  C   UNL     1       2.610  15.609  18.446  0.00  0.00    +0.000 C 
ATOM     25  C   UNL     1       3.373  14.572  19.249  0.00  0.00    +0.000 C 
ENDBRANCH  23  25
ENDBRANCH  21  23
ENDBRANCH   1  21
BRANCH   6  26
ATOM     26  O   UNL     1      -5.159  11.093  17.678  0.00  0.00    +0.000 OA
ATOM     27  H   UNL     1      -5.240  10.380  17.025  0.00  0.00    +0.000 HD
ENDBRANCH   6  26
TORSDOF 6
ENDMDL
MODEL 9
REMARK VINA RESULT:      -5.7      3.373      5.183
REMARK  Name = 
REMARK  7 active torsions:
REMARK  status: ('A' for Active; 'I' for Inactive)
REMARK    1  A    between atoms: C_1  and  C_2
REMARK    2  A    between atoms: C_2  and  O_3
REMARK    3  A    between atoms: O_3  and  C_4
REMARK    4  A    between atoms: C_4  and  C_6
REMARK    5  A    between atoms: C_7  and  N_8
REMARK    6  A    between atoms: C_12  and  O_13
REMARK    7  A    between atoms: C_18  and  C_19
REMARK                            x       y       z     vdW  Elec       q    Type
REMARK                         _______ _______ _______ _____ _____    ______ ____
ROOT
ATOM      1  C   UNL     1      -1.057  12.083  21.127  0.00  0.00    +0.000 C 
ATOM      2  C   UNL     1      -1.137  11.338  22.247  0.00  0.00    +0.000 C 
ATOM      3  O   UNL     1      -0.422  10.148  22.394  0.00  0.00    +0.000 OA
ATOM      4  C   UNL     1       0.280   9.632  21.329  0.00  0.00    +0.000 A 
ATOM      5  C   UNL     1       0.917   8.401  21.511  0.00  0.00    +0.000 A 
ATOM      6  C   UNL     1       1.667   7.845  20.471  0.00  0.00    +0.000 A 
ATOM      7  C   UNL     1       1.772   8.506  19.245  0.00  0.00    +0.000 A 
ATOM      8 BR   UNL     1       2.799   7.811  17.811  0.00  0.00    +0.000 Br
ATOM      9  C   UNL     1       1.130   9.728  19.064  0.00  0.00    +0.000 A 
ATOM     10  C   UNL     1       0.398  10.307  20.115  0.00  0.00    +0.000 A 
ATOM     11  C   UNL     1      -0.186  11.693  19.961  0.00  0.00    +0.000 C 
ENDROOT
BRANCH  11  12
ATOM     12  C   UNL     1       0.933  12.705  19.737  0.00  0.00    +0.000 A 
ATOM     13  C   UNL     1       1.061  13.419  18.538  0.00  0.00    +0.000 A 
ATOM     14  C   UNL     1       2.104  14.326  18.383  0.00  0.00    +0.000 A 
ATOM     15  C   UNL     1       2.984  14.494  19.438  0.00  0.00    +0.000 A 
ATOM     16  N   UNL     1       2.888  13.837  20.613  0.00  0.00    +0.000 NA
ATOM     17  C   UNL     1       1.869  12.957  20.737  0.00  0.00    +0.000 A 
ENDBRANCH  11  12
BRANCH   2  18
ATOM     18  N   UNL     1      -1.890  11.657  23.355  0.00  0.00    +0.000 N 
ATOM     19  H   UNL     1      -2.615  12.350  23.157  0.00  0.00    +0.000 HD
ATOM     20  H   UNL     1      -1.322  11.899  24.160  0.00  0.00    +0.000 HD
ENDBRANCH   2  18
BRANCH   1  21
ATOM     21  C   UNL     1      -1.785  13.358  20.913  0.00  0.00    +0.000 C 
ATOM     22  O   UNL     1      -1.760  14.272  21.713  0.00  0.00    +0.000 OA
BRANCH  21  23
ATOM     23  O   UNL     1      -2.616  13.272  19.839  0.00  0.00    +0.000 OA
BRANCH  23  25
ATOM     24  C   UNL     1      -4.326  11.931  18.877  0.00  0.00    +0.000 C 
ATOM     25  C   UNL     1      -3.885  12.670  20.126  0.00  0.00    +0.000 C 
ENDBRANCH  23  25
ENDBRANCH  21  23
ENDBRANCH   1  21
BRANCH   6  26
ATOM     26  O   UNL     1       2.315   6.654  20.648  0.00  0.00    +0.000 OA
ATOM     27  H   UNL     1       2.906   6.714  21.415  0.00  0.00    +0.000 HD
ENDBRANCH   6  26
TORSDOF 6
ENDMDL
