MODEL 1
REMARK VINA RESULT:      -7.0      0.000      0.000
REMARK  Name = 
REMARK  6 active torsions:
REMARK  status: ('A' for Active; 'I' for Inactive)
REMARK    1  A    between atoms: C_1  and  C_2
REMARK    2  A    between atoms: C_5  and  C_6
REMARK    3  A    between atoms: C_7  and  C_8
REMARK    4  A    between atoms: C_8  and  N_9
REMARK    5  A    between atoms: C_15  and  C_16
REMARK    6  A    between atoms: C_16  and  N_17
REMARK                            x       y       z     vdW  Elec       q    Type
REMARK                         _______ _______ _______ _____ _____    ______ ____
ROOT
ATOM      1  N   UNL     1       4.486   6.628  17.568  0.00  0.00    +0.000 NA
ATOM      2  C   UNL     1       3.732   7.876  17.785  0.00  0.00    +0.000 C 
ATOM      3  C   UNL     1       2.379   7.890  18.524  0.00  0.00    +0.000 C 
ATOM      4  C   UNL     1       2.120   6.747  19.448  0.00  0.00    +0.000 A 
ATOM      5  N   UNL     1       1.715   6.819  20.695  0.00  0.00    +0.000 NA
ATOM      6  C   UNL     1       1.414   5.533  21.055  0.00  0.00    +0.000 A 
ATOM      7  C   UNL     1       1.655   4.636  20.027  0.00  0.00    +0.000 A 
ATOM      8  N   UNL     1       2.106   5.440  19.002  0.00  0.00    +0.000 N 
ATOM      9  C   UNL     1       2.326   5.133  17.609  0.00  0.00    +0.000 C 
ATOM     10  C   UNL     1       3.750   5.435  17.114  0.00  0.00    +0.000 C 
ENDROOT
BRANCH   1  11
ATOM     11  C   UNL     1       5.666   6.848  16.698  0.00  0.00    +0.000 C 
BRANCH  11  18
ATOM     12  C   UNL     1       7.394   5.900  19.266  0.00  0.00    +0.000 C 
ATOM     13  C   UNL     1       7.397   5.308  17.909  0.00  0.00    +0.000 A 
ATOM     14  N   UNL     1       8.130   4.226  17.643  0.00  0.00    +0.000 NA
ATOM     15  O   UNL     1       7.858   3.892  16.338  0.00  0.00    +0.000 OA
ATOM     16  C   UNL     1       6.956   4.772  15.822  0.00  0.00    +0.000 A 
ATOM     17  C   UNL     1       6.512   4.473  14.446  0.00  0.00    +0.000 C 
ATOM     18  C   UNL     1       6.643   5.724  16.773  0.00  0.00    +0.000 A 
ENDBRANCH  11  18
ENDBRANCH   1  11
BRANCH   7  19
ATOM     19  C   UNL     1       1.316   3.178  19.957  0.00  0.00    +0.000 C 
BRANCH  19  20
ATOM     20  N   UNL     1       2.407   2.205  19.919  0.00  0.00    +0.000 NA
ATOM     21  C   UNL     1       3.627   2.543  20.644  0.00  0.00    +0.000 C 
ATOM     22  C   UNL     1       4.593   3.003  19.572  0.00  0.00    +0.000 C 
ATOM     23  C   UNL     1       4.254   2.108  18.393  0.00  0.00    +0.000 C 
ATOM     24  C   UNL     1       2.798   1.711  18.602  0.00  0.00    +0.000 C 
ENDBRANCH  19  20
ENDBRANCH   7  19
TORSDOF 4
ENDMDL
MODEL 2
REMARK VINA RESULT:      -6.8      0.442      1.662
REMARK  Name = 
REMARK  6 active torsions:
REMARK  status: ('A' for Active; 'I' for Inactive)
REMARK    1  A    between atoms: C_1  and  C_2
REMARK    2  A    between atoms: C_5  and  C_6
REMARK    3  A    between atoms: C_7  and  C_8
REMARK    4  A    between atoms: C_8  and  N_9
REMARK    5  A    between atoms: C_15  and  C_16
REMARK    6  A    between atoms: C_16  and  N_17
REMARK                            x       y       z     vdW  Elec       q    Type
REMARK                         _______ _______ _______ _____ _____    ______ ____
ROOT
ATOM      1  N   UNL     1       4.356   6.645  17.530  0.00  0.00    +0.000 NA
ATOM      2  C   UNL     1       3.639   7.913  17.749  0.00  0.00    +0.000 C 
ATOM      3  C   UNL     1       2.316   7.972  18.539  0.00  0.00    +0.000 C 
ATOM      4  C   UNL     1       2.069   6.854  19.496  0.00  0.00    +0.000 A 
ATOM      5  N   UNL     1       1.713   6.960  20.757  0.00  0.00    +0.000 NA
ATOM      6  C   UNL     1       1.399   5.689  21.154  0.00  0.00    +0.000 A 
ATOM      7  C   UNL     1       1.582   4.766  20.137  0.00  0.00    +0.000 A 
ATOM      8  N   UNL     1       2.009   5.539  19.079  0.00  0.00    +0.000 N 
ATOM      9  C   UNL     1       2.168   5.200  17.685  0.00  0.00    +0.000 C 
ATOM     10  C   UNL     1       3.577   5.459  17.129  0.00  0.00    +0.000 C 
ENDROOT
BRANCH   1  11
ATOM     11  C   UNL     1       5.506   6.821  16.610  0.00  0.00    +0.000 C 
BRANCH  11  18
ATOM     12  C   UNL     1       6.351   4.676  14.337  0.00  0.00    +0.000 C 
ATOM     13  C   UNL     1       6.871   4.778  15.719  0.00  0.00    +0.000 A 
ATOM     14  N   UNL     1       7.838   3.960  16.140  0.00  0.00    +0.000 NA
ATOM     15  O   UNL     1       8.140   4.357  17.421  0.00  0.00    +0.000 OA
ATOM     16  C   UNL     1       7.358   5.415  17.767  0.00  0.00    +0.000 A 
ATOM     17  C   UNL     1       7.644   5.993  19.095  0.00  0.00    +0.000 C 
ATOM     18  C   UNL     1       6.500   5.715  16.726  0.00  0.00    +0.000 A 
ENDBRANCH  11  18
ENDBRANCH   1  11
BRANCH   7  19
ATOM     19  C   UNL     1       1.208   3.315  20.111  0.00  0.00    +0.000 C 
BRANCH  19  20
ATOM     20  N   UNL     1       2.276   2.316  20.073  0.00  0.00    +0.000 NA
ATOM     21  C   UNL     1       3.535   2.662  20.725  0.00  0.00    +0.000 C 
ATOM     22  C   UNL     1       4.460   3.047  19.589  0.00  0.00    +0.000 C 
ATOM     23  C   UNL     1       4.050   2.104  18.472  0.00  0.00    +0.000 C 
ATOM     24  C   UNL     1       2.597   1.750  18.766  0.00  0.00    +0.000 C 
ENDBRANCH  19  20
ENDBRANCH   7  19
TORSDOF 4
ENDMDL
MODEL 3
REMARK VINA RESULT:      -6.4      1.181      1.513
REMARK  Name = 
REMARK  6 active torsions:
REMARK  status: ('A' for Active; 'I' for Inactive)
REMARK    1  A    between atoms: C_1  and  C_2
REMARK    2  A    between atoms: C_5  and  C_6
REMARK    3  A    between atoms: C_7  and  C_8
REMARK    4  A    between atoms: C_8  and  N_9
REMARK    5  A    between atoms: C_15  and  C_16
REMARK    6  A    between atoms: C_16  and  N_17
REMARK                            x       y       z     vdW  Elec       q    Type
REMARK                         _______ _______ _______ _____ _____    ______ ____
ROOT
ATOM      1  N   UNL     1       4.874   7.059  17.722  0.00  0.00    +0.000 NA
ATOM      2  C   UNL     1       3.807   7.947  17.226  0.00  0.00    +0.000 C 
ATOM      3  C   UNL     1       2.372   7.885  17.788  0.00  0.00    +0.000 C 
ATOM      4  C   UNL     1       2.224   7.310  19.157  0.00  0.00    +0.000 A 
ATOM      5  N   UNL     1       1.570   7.839  20.166  0.00  0.00    +0.000 NA
ATOM      6  C   UNL     1       1.532   6.863  21.125  0.00  0.00    +0.000 A 
ATOM      7  C   UNL     1       2.190   5.712  20.723  0.00  0.00    +0.000 A 
ATOM      8  N   UNL     1       2.624   6.022  19.451  0.00  0.00    +0.000 N 
ATOM      9  C   UNL     1       3.189   5.172  18.430  0.00  0.00    +0.000 C 
ATOM     10  C   UNL     1       4.563   5.632  17.917  0.00  0.00    +0.000 C 
ENDROOT
BRANCH   1  11
ATOM     11  C   UNL     1       6.113   7.195  16.919  0.00  0.00    +0.000 C 
BRANCH  11  18
ATOM     12  C   UNL     1       7.821   5.939  19.365  0.00  0.00    +0.000 C 
ATOM     13  C   UNL     1       7.671   5.394  17.997  0.00  0.00    +0.000 A 
ATOM     14  N   UNL     1       8.231   4.229  17.667  0.00  0.00    +0.000 NA
ATOM     15  O   UNL     1       7.847   3.976  16.371  0.00  0.00    +0.000 OA
ATOM     16  C   UNL     1       7.053   4.987  15.926  0.00  0.00    +0.000 A 
ATOM     17  C   UNL     1       6.502   4.795  14.570  0.00  0.00    +0.000 C 
ATOM     18  C   UNL     1       6.926   5.945  16.914  0.00  0.00    +0.000 A 
ENDBRANCH  11  18
ENDBRANCH   1  11
BRANCH   7  19
ATOM     19  C   UNL     1       2.243   4.377  21.402  0.00  0.00    +0.000 C 
BRANCH  19  20
ATOM     20  N   UNL     1       1.306   3.337  20.980  0.00  0.00    +0.000 NA
ATOM     21  C   UNL     1       1.854   2.007  20.734  0.00  0.00    +0.000 C 
ATOM     22  C   UNL     1       1.951   1.908  19.225  0.00  0.00    +0.000 C 
ATOM     23  C   UNL     1       0.731   2.676  18.747  0.00  0.00    +0.000 C 
ATOM     24  C   UNL     1       0.421   3.664  19.866  0.00  0.00    +0.000 C 
ENDBRANCH  19  20
ENDBRANCH   7  19
TORSDOF 4
ENDMDL
MODEL 4
REMARK VINA RESULT:      -6.0      1.263      2.246
REMARK  Name = 
REMARK  6 active torsions:
REMARK  status: ('A' for Active; 'I' for Inactive)
REMARK    1  A    between atoms: C_1  and  C_2
REMARK    2  A    between atoms: C_5  and  C_6
REMARK    3  A    between atoms: C_7  and  C_8
REMARK    4  A    between atoms: C_8  and  N_9
REMARK    5  A    between atoms: C_15  and  C_16
REMARK    6  A    between atoms: C_16  and  N_17
REMARK                            x       y       z     vdW  Elec       q    Type
REMARK                         _______ _______ _______ _____ _____    ______ ____
ROOT
ATOM      1  N   UNL     1       4.642   7.036  17.567  0.00  0.00    +0.000 NA
ATOM      2  C   UNL     1       3.574   7.956  17.139  0.00  0.00    +0.000 C 
ATOM      3  C   UNL     1       2.180   7.946  17.799  0.00  0.00    +0.000 C 
ATOM      4  C   UNL     1       2.108   7.385  19.180  0.00  0.00    +0.000 A 
ATOM      5  N   UNL     1       1.544   7.942  20.227  0.00  0.00    +0.000 NA
ATOM      6  C   UNL     1       1.539   6.974  21.195  0.00  0.00    +0.000 A 
ATOM      7  C   UNL     1       2.129   5.800  20.759  0.00  0.00    +0.000 A 
ATOM      8  N   UNL     1       2.484   6.086  19.458  0.00  0.00    +0.000 N 
ATOM      9  C   UNL     1       2.949   5.211  18.407  0.00  0.00    +0.000 C 
ATOM     10  C   UNL     1       4.299   5.621  17.797  0.00  0.00    +0.000 C 
ENDROOT
BRANCH   1  11
ATOM     11  C   UNL     1       5.826   7.125  16.679  0.00  0.00    +0.000 C 
BRANCH  11  18
ATOM     12  C   UNL     1       6.439   4.923  14.386  0.00  0.00    +0.000 C 
ATOM     13  C   UNL     1       6.974   4.961  15.766  0.00  0.00    +0.000 A 
ATOM     14  N   UNL     1       7.855   4.047  16.177  0.00  0.00    +0.000 NA
ATOM     15  O   UNL     1       8.202   4.401  17.459  0.00  0.00    +0.000 OA
ATOM     16  C   UNL     1       7.532   5.530  17.816  0.00  0.00    +0.000 A 
ATOM     17  C   UNL     1       7.881   6.066  19.147  0.00  0.00    +0.000 C 
ATOM     18  C   UNL     1       6.704   5.923  16.782  0.00  0.00    +0.000 A 
ENDBRANCH  11  18
ENDBRANCH   1  11
BRANCH   7  19
ATOM     19  C   UNL     1       2.186   4.468  21.444  0.00  0.00    +0.000 C 
BRANCH  19  20
ATOM     20  N   UNL     1       1.244   3.427  21.035  0.00  0.00    +0.000 NA
ATOM     21  C   UNL     1       1.775   2.078  20.867  0.00  0.00    +0.000 C 
ATOM     22  C   UNL     1       1.925   1.911  19.368  0.00  0.00    +0.000 C 
ATOM     23  C   UNL     1       0.738   2.678  18.813  0.00  0.00    +0.000 C 
ATOM     24  C   UNL     1       0.407   3.720  19.875  0.00  0.00    +0.000 C 
ENDBRANCH  19  20
ENDBRANCH   7  19
TORSDOF 4
ENDMDL
MODEL 5
REMARK VINA RESULT:      -6.0      9.437     11.865
REMARK  Name = 
REMARK  6 active torsions:
REMARK  status: ('A' for Active; 'I' for Inactive)
REMARK    1  A    between atoms: C_1  and  C_2
REMARK    2  A    between atoms: C_5  and  C_6
REMARK    3  A    between atoms: C_7  and  C_8
REMARK    4  A    between atoms: C_8  and  N_9
REMARK    5  A    between atoms: C_15  and  C_16
REMARK    6  A    between atoms: C_16  and  N_17
REMARK                            x       y       z     vdW  Elec       q    Type
REMARK                         _______ _______ _______ _____ _____    ______ ____
ROOT
ATOM      1  N   UNL     1      -4.388  13.154  22.251  0.00  0.00    +0.000 NA
ATOM      2  C   UNL     1      -5.709  12.959  22.873  0.00  0.00    +0.000 C 
ATOM      3  C   UNL     1      -6.921  12.453  22.065  0.00  0.00    +0.000 C 
ATOM      4  C   UNL     1      -6.611  11.683  20.824  0.00  0.00    +0.000 A 
ATOM      5  N   UNL     1      -7.107  10.517  20.477  0.00  0.00    +0.000 NA
ATOM      6  C   UNL     1      -6.703  10.321  19.184  0.00  0.00    +0.000 A 
ATOM      7  C   UNL     1      -5.923  11.367  18.719  0.00  0.00    +0.000 A 
ATOM      8  N   UNL     1      -5.881  12.234  19.790  0.00  0.00    +0.000 N 
ATOM      9  C   UNL     1      -5.401  13.593  19.867  0.00  0.00    +0.000 C 
ATOM     10  C   UNL     1      -4.323  13.821  20.938  0.00  0.00    +0.000 C 
ENDROOT
BRANCH   1  11
ATOM     11  C   UNL     1      -3.434  13.798  23.186  0.00  0.00    +0.000 C 
BRANCH  11  18
ATOM     12  C   UNL     1      -1.387  16.148  22.310  0.00  0.00    +0.000 C 
ATOM     13  C   UNL     1      -1.120  14.693  22.363  0.00  0.00    +0.000 A 
ATOM     14  N   UNL     1       0.094  14.216  22.081  0.00  0.00    +0.000 NA
ATOM     15  O   UNL     1       0.028  12.859  22.292  0.00  0.00    +0.000 OA
ATOM     16  C   UNL     1      -1.224  12.522  22.705  0.00  0.00    +0.000 A 
ATOM     17  C   UNL     1      -1.405  11.098  23.049  0.00  0.00    +0.000 C 
ATOM     18  C   UNL     1      -2.018  13.653  22.742  0.00  0.00    +0.000 A 
ENDBRANCH  11  18
ENDBRANCH   1  11
BRANCH   7  19
ATOM     19  C   UNL     1      -5.419  11.614  17.329  0.00  0.00    +0.000 C 
BRANCH  19  20
ATOM     20  N   UNL     1      -3.975  11.635  17.099  0.00  0.00    +0.000 NA
ATOM     21  C   UNL     1      -3.499  11.144  15.810  0.00  0.00    +0.000 C 
ATOM     22  C   UNL     1      -2.985   9.749  16.100  0.00  0.00    +0.000 C 
ATOM     23  C   UNL     1      -2.387   9.881  17.490  0.00  0.00    +0.000 C 
ATOM     24  C   UNL     1      -3.138  11.039  18.136  0.00  0.00    +0.000 C 
ENDBRANCH  19  20
ENDBRANCH   7  19
TORSDOF 4
ENDMDL
MODEL 6
REMARK VINA RESULT:      -6.0      4.221      7.127
REMARK  Name = 
REMARK  6 active torsions:
REMARK  status: ('A' for Active; 'I' for Inactive)
REMARK    1  A    between atoms: C_1  and  C_2
REMARK    2  A    between atoms: C_5  and  C_6
REMARK    3  A    between atoms: C_7  and  C_8
REMARK    4  A    between atoms: C_8  and  N_9
REMARK    5  A    between atoms: C_15  and  C_16
REMARK    6  A    between atoms: C_16  and  N_17
REMARK                            x       y       z     vdW  Elec       q    Type
REMARK                         _______ _______ _______ _____ _____    ______ ____
ROOT
ATOM      1  N   UNL     1       2.668   7.254  19.503  0.00  0.00    +0.000 NA
ATOM      2  C   UNL     1       2.391   7.524  18.081  0.00  0.00    +0.000 C 
ATOM      3  C   UNL     1       1.577   8.754  17.632  0.00  0.00    +0.000 C 
ATOM      4  C   UNL     1       1.541   9.904  18.583  0.00  0.00    +0.000 A 
ATOM      5  N   UNL     1       1.791  11.164  18.304  0.00  0.00    +0.000 NA
ATOM      6  C   UNL     1       1.425  11.862  19.423  0.00  0.00    +0.000 A 
ATOM      7  C   UNL     1       0.960  11.029  20.427  0.00  0.00    +0.000 A 
ATOM      8  N   UNL     1       1.041   9.774  19.862  0.00  0.00    +0.000 N 
ATOM      9  C   UNL     1       0.513   8.512  20.324  0.00  0.00    +0.000 C 
ATOM     10  C   UNL     1       1.569   7.405  20.473  0.00  0.00    +0.000 C 
ENDROOT
BRANCH   1  11
ATOM     11  C   UNL     1       3.322   5.936  19.690  0.00  0.00    +0.000 C 
BRANCH  11  18
ATOM     12  C   UNL     1       4.410   4.877  16.831  0.00  0.00    +0.000 C 
ATOM     13  C   UNL     1       3.213   4.413  17.568  0.00  0.00    +0.000 A 
ATOM     14  N   UNL     1       2.470   3.413  17.092  0.00  0.00    +0.000 NA
ATOM     15  O   UNL     1       1.495   3.181  18.033  0.00  0.00    +0.000 OA
ATOM     16  C   UNL     1       1.655   4.041  19.076  0.00  0.00    +0.000 A 
ATOM     17  C   UNL     1       0.718   3.839  20.198  0.00  0.00    +0.000 C 
ATOM     18  C   UNL     1       2.725   4.879  18.824  0.00  0.00    +0.000 A 
ENDBRANCH  11  18
ENDBRANCH   1  11
BRANCH   7  19
ATOM     19  C   UNL     1       0.324  11.400  21.732  0.00  0.00    +0.000 C 
BRANCH  19  20
ATOM     20  N   UNL     1      -1.133  11.332  21.848  0.00  0.00    +0.000 NA
ATOM     21  C   UNL     1      -1.907  12.281  21.054  0.00  0.00    +0.000 C 
ATOM     22  C   UNL     1      -2.324  13.353  22.040  0.00  0.00    +0.000 C 
ATOM     23  C   UNL     1      -2.562  12.573  23.321  0.00  0.00    +0.000 C 
ATOM     24  C   UNL     1      -1.684  11.333  23.199  0.00  0.00    +0.000 C 
ENDBRANCH  19  20
ENDBRANCH   7  19
TORSDOF 4
ENDMDL
MODEL 7
REMARK VINA RESULT:      -6.0      3.305      7.209
REMARK  Name = 
REMARK  6 active torsions:
REMARK  status: ('A' for Active; 'I' for Inactive)
REMARK    1  A    between atoms: C_1  and  C_2
REMARK    2  A    between atoms: C_5  and  C_6
REMARK    3  A    between atoms: C_7  and  C_8
REMARK    4  A    between atoms: C_8  and  N_9
REMARK    5  A    between atoms: C_15  and  C_16
REMARK    6  A    between atoms: C_16  and  N_17
REMARK                            x       y       z     vdW  Elec       q    Type
REMARK                         _______ _______ _______ _____ _____    ______ ____
ROOT
ATOM      1  N   UNL     1       4.024   5.571  17.863  0.00  0.00    +0.000 NA
ATOM      2  C   UNL     1       4.739   4.292  18.016  0.00  0.00    +0.000 C 
ATOM      3  C   UNL     1       6.279   4.216  18.013  0.00  0.00    +0.000 C 
ATOM      4  C   UNL     1       7.001   5.470  18.379  0.00  0.00    +0.000 A 
ATOM      5  N   UNL     1       7.965   5.593  19.264  0.00  0.00    +0.000 NA
ATOM      6  C   UNL     1       8.452   6.861  19.097  0.00  0.00    +0.000 A 
ATOM      7  C   UNL     1       7.770   7.553  18.109  0.00  0.00    +0.000 A 
ATOM      8  N   UNL     1       6.844   6.637  17.659  0.00  0.00    +0.000 N 
ATOM      9  C   UNL     1       5.980   6.680  16.504  0.00  0.00    +0.000 C 
ATOM     10  C   UNL     1       4.486   6.513  16.827  0.00  0.00    +0.000 C 
ENDROOT
BRANCH   1  11
ATOM     11  C   UNL     1       2.561   5.366  17.733  0.00  0.00    +0.000 C 
BRANCH  11  18
ATOM     12  C   UNL     1       1.849   2.238  18.170  0.00  0.00    +0.000 C 
ATOM     13  C   UNL     1       1.663   3.348  19.131  0.00  0.00    +0.000 A 
ATOM     14  N   UNL     1       1.201   3.110  20.360  0.00  0.00    +0.000 NA
ATOM     15  O   UNL     1       1.216   4.318  21.014  0.00  0.00    +0.000 OA
ATOM     16  C   UNL     1       1.691   5.282  20.179  0.00  0.00    +0.000 A 
ATOM     17  C   UNL     1       1.838   6.618  20.789  0.00  0.00    +0.000 C 
ATOM     18  C   UNL     1       1.969   4.728  18.944  0.00  0.00    +0.000 A 
ENDBRANCH  11  18
ENDBRANCH   1  11
BRANCH   7  19
ATOM     19  C   UNL     1       8.086   8.893  17.516  0.00  0.00    +0.000 C 
BRANCH  19  20
ATOM     20  N   UNL     1       8.232  10.041  18.410  0.00  0.00    +0.000 NA
ATOM     21  C   UNL     1       8.309  11.360  17.793  0.00  0.00    +0.000 C 
ATOM     22  C   UNL     1       9.783  11.711  17.826  0.00  0.00    +0.000 C 
ATOM     23  C   UNL     1      10.254  11.106  19.137  0.00  0.00    +0.000 C 
ATOM     24  C   UNL     1       9.289   9.960  19.414  0.00  0.00    +0.000 C 
ENDBRANCH  19  20
ENDBRANCH   7  19
TORSDOF 4
ENDMDL
MODEL 8
REMARK VINA RESULT:      -5.9      5.277      8.122
REMARK  Name = 
REMARK  6 active torsions:
REMARK  status: ('A' for Active; 'I' for Inactive)
REMARK    1  A    between atoms: C_1  and  C_2
REMARK    2  A    between atoms: C_5  and  C_6
REMARK    3  A    between atoms: C_7  and  C_8
REMARK    4  A    between atoms: C_8  and  N_9
REMARK    5  A    between atoms: C_15  and  C_16
REMARK    6  A    between atoms: C_16  and  N_17
REMARK                            x       y       z     vdW  Elec       q    Type
REMARK                         _______ _______ _______ _____ _____    ______ ____
ROOT
ATOM      1  N   UNL     1      -0.733  11.020  19.324  0.00  0.00    +0.000 NA
ATOM      2  C   UNL     1       0.355  11.728  18.626  0.00  0.00    +0.000 C 
ATOM      3  C   UNL     1       1.751  11.096  18.446  0.00  0.00    +0.000 C 
ATOM      4  C   UNL     1       1.814   9.607  18.513  0.00  0.00    +0.000 A 
ATOM      5  N   UNL     1       2.395   8.804  17.650  0.00  0.00    +0.000 NA
ATOM      6  C   UNL     1       2.380   7.568  18.237  0.00  0.00    +0.000 A 
ATOM      7  C   UNL     1       1.762   7.588  19.476  0.00  0.00    +0.000 A 
ATOM      8  N   UNL     1       1.409   8.912  19.634  0.00  0.00    +0.000 N 
ATOM      9  C   UNL     1       0.921   9.610  20.800  0.00  0.00    +0.000 C 
ATOM     10  C   UNL     1      -0.421  10.328  20.588  0.00  0.00    +0.000 C 
ENDROOT
BRANCH   1  11
ATOM     11  C   UNL     1      -1.918  11.892  19.511  0.00  0.00    +0.000 C 
BRANCH  11  18
ATOM     12  C   UNL     1      -5.006  12.827  19.778  0.00  0.00    +0.000 C 
ATOM     13  C   UNL     1      -4.431  11.886  18.790  0.00  0.00    +0.000 A 
ATOM     14  N   UNL     1      -5.195  11.356  17.834  0.00  0.00    +0.000 NA
ATOM     15  O   UNL     1      -4.357  10.597  17.052  0.00  0.00    +0.000 OA
ATOM     16  C   UNL     1      -3.088  10.676  17.537  0.00  0.00    +0.000 A 
ATOM     17  C   UNL     1      -2.070   9.970  16.733  0.00  0.00    +0.000 C 
ATOM     18  C   UNL     1      -3.074  11.465  18.671  0.00  0.00    +0.000 A 
ENDBRANCH  11  18
ENDBRANCH   1  11
BRANCH   7  19
ATOM     19  C   UNL     1       1.677   6.496  20.499  0.00  0.00    +0.000 C 
BRANCH  19  20
ATOM     20  N   UNL     1       2.252   5.190  20.180  0.00  0.00    +0.000 NA
ATOM     21  C   UNL     1       1.591   4.406  19.142  0.00  0.00    +0.000 C 
ATOM     22  C   UNL     1       0.785   3.371  19.900  0.00  0.00    +0.000 C 
ATOM     23  C   UNL     1       1.668   3.050  21.094  0.00  0.00    +0.000 C 
ATOM     24  C   UNL     1       2.516   4.298  21.306  0.00  0.00    +0.000 C 
ENDBRANCH  19  20
ENDBRANCH   7  19
TORSDOF 4
ENDMDL
MODEL 9
REMARK VINA RESULT:      -5.9      3.333      7.118
REMARK  Name = 
REMARK  6 active torsions:
REMARK  status: ('A' for Active; 'I' for Inactive)
REMARK    1  A    between atoms: C_1  and  C_2
REMARK    2  A    between atoms: C_5  and  C_6
REMARK    3  A    between atoms: C_7  and  C_8
REMARK    4  A    between atoms: C_8  and  N_9
REMARK    5  A    between atoms: C_15  and  C_16
REMARK    6  A    between atoms: C_16  and  N_17
REMARK                            x       y       z     vdW  Elec       q    Type
REMARK                         _______ _______ _______ _____ _____    ______ ____
ROOT
ATOM      1  N   UNL     1       4.105   5.644  17.921  0.00  0.00    +0.000 NA
ATOM      2  C   UNL     1       4.865   4.387  18.041  0.00  0.00    +0.000 C 
ATOM      3  C   UNL     1       6.406   4.362  17.994  0.00  0.00    +0.000 C 
ATOM      4  C   UNL     1       7.098   5.635  18.353  0.00  0.00    +0.000 A 
ATOM      5  N   UNL     1       8.081   5.782  19.212  0.00  0.00    +0.000 NA
ATOM      6  C   UNL     1       8.521   7.067  19.044  0.00  0.00    +0.000 A 
ATOM      7  C   UNL     1       7.790   7.745  18.083  0.00  0.00    +0.000 A 
ATOM      8  N   UNL     1       6.882   6.803  17.649  0.00  0.00    +0.000 N 
ATOM      9  C   UNL     1       5.984   6.829  16.519  0.00  0.00    +0.000 C 
ATOM     10  C   UNL     1       4.507   6.610  16.882  0.00  0.00    +0.000 C 
ENDROOT
BRANCH   1  11
ATOM     11  C   UNL     1       2.646   5.392  17.830  0.00  0.00    +0.000 C 
BRANCH  11  18
ATOM     12  C   UNL     1       1.663   6.397  20.746  0.00  0.00    +0.000 C 
ATOM     13  C   UNL     1       1.707   5.007  20.239  0.00  0.00    +0.000 A 
ATOM     14  N   UNL     1       1.260   3.998  20.989  0.00  0.00    +0.000 NA
ATOM     15  O   UNL     1       1.370   2.869  20.212  0.00  0.00    +0.000 OA
ATOM     16  C   UNL     1       1.878   3.202  18.994  0.00  0.00    +0.000 A 
ATOM     17  C   UNL     1       1.967   2.086  18.031  0.00  0.00    +0.000 C 
ATOM     18  C   UNL     1       2.144   4.557  18.959  0.00  0.00    +0.000 A 
ENDBRANCH  11  18
ENDBRANCH   1  11
BRANCH   7  19
ATOM     19  C   UNL     1       8.046   9.100  17.494  0.00  0.00    +0.000 C 
BRANCH  19  20
ATOM     20  N   UNL     1       8.266  10.228  18.399  0.00  0.00    +0.000 NA
ATOM     21  C   UNL     1       8.422  11.546  17.792  0.00  0.00    +0.000 C 
ATOM     22  C   UNL     1       9.914  11.806  17.821  0.00  0.00    +0.000 C 
ATOM     23  C   UNL     1      10.354  11.160  19.124  0.00  0.00    +0.000 C 
ATOM     24  C   UNL     1       9.321  10.073  19.395  0.00  0.00    +0.000 C 
ENDBRANCH  19  20
ENDBRANCH   7  19
TORSDOF 4
ENDMDL
