MODEL 1
REMARK VINA RESULT:      -8.5      0.000      0.000
REMARK  Name = 
REMARK  9 active torsions:
REMARK  status: ('A' for Active; 'I' for Inactive)
REMARK    1  A    between atoms: C_1  and  O_2
REMARK    2  A    between atoms: O_2  and  C_3
REMARK    3  A    between atoms: C_5  and  O_6
REMARK    4  A    between atoms: O_6  and  C_7
REMARK    5  A    between atoms: C_7  and  C_8
REMARK    6  A    between atoms: C_11  and  C_12
REMARK    7  A    between atoms: C_21  and  C_22
REMARK    8  A    between atoms: C_26  and  O_27
REMARK    9  A    between atoms: O_27  and  C_28
REMARK                            x       y       z     vdW  Elec       q    Type
REMARK                         _______ _______ _______ _____ _____    ______ ____
ROOT
ATOM      1  C   UNL     1       0.129   9.804  22.007  0.00  0.00    +0.000 A 
ATOM      2  C   UNL     1      -0.237  10.663  20.955  0.00  0.00    +0.000 A 
ATOM      3  C   UNL     1       0.244  10.462  19.648  0.00  0.00    +0.000 A 
ATOM      4  C   UNL     1       1.110   9.374  19.424  0.00  0.00    +0.000 A 
ATOM      5  C   UNL     1       1.834   8.855  18.316  0.00  0.00    +0.000 A 
ATOM      6  C   UNL     1       2.479   7.719  18.758  0.00  0.00    +0.000 A 
ATOM      7  O   UNL     1       2.206   7.514  20.077  0.00  0.00    +0.000 OA
ATOM      8  C   UNL     1       1.397   8.524  20.479  0.00  0.00    +0.000 A 
ATOM      9  C   UNL     1       0.933   8.686  21.774  0.00  0.00    +0.000 A 
ENDROOT
BRANCH   6  10
ATOM     10  C   UNL     1       3.349   6.835  17.951  0.00  0.00    +0.000 A 
ATOM     11  C   UNL     1       4.210   7.301  16.970  0.00  0.00    +0.000 A 
ATOM     12  N   UNL     1       4.786   6.174  16.484  0.00  0.00    +0.000 N 
ATOM     13  N   UNL     1       5.703   5.977  15.515  0.00  0.00    +0.000 NA
ATOM     14  C   UNL     1       5.871   4.684  15.464  0.00  0.00    +0.000 A 
ATOM     15  S   UNL     1       4.933   3.665  16.581  0.00  0.00    +0.000 S 
ATOM     16  C   UNL     1       4.265   5.124  17.164  0.00  0.00    +0.000 A 
ATOM     17  N   UNL     1       3.394   5.459  18.078  0.00  0.00    +0.000 NA
BRANCH  14  18
ATOM     18  O   UNL     1       6.725   4.073  14.608  0.00  0.00    +0.000 OA
ATOM     19  C   UNL     1       6.190   3.749  13.321  0.00  0.00    +0.000 C 
ENDBRANCH  14  18
ENDBRANCH   6  10
BRANCH   1  21
ATOM     20  C   UNL     1      -1.404  11.107  23.238  0.00  0.00    +0.000 C 
ATOM     21  O   UNL     1      -0.364  10.126  23.249  0.00  0.00    +0.000 OA
ENDBRANCH   1  21
BRANCH   3  22
ATOM     22  O   UNL     1      -0.017  11.273  18.579  0.00  0.00    +0.000 OA
BRANCH  22  23
ATOM     23  C   UNL     1      -0.991  12.301  18.780  0.00  0.00    +0.000 C 
BRANCH  23  24
ATOM     24  C   UNL     1      -2.333  11.894  18.239  0.00  0.00    +0.000 A 
ATOM     25  C   UNL     1      -2.613  11.346  17.002  0.00  0.00    +0.000 A 
ATOM     26  S   UNL     1      -4.289  11.011  16.862  0.00  0.00    +0.000 S 
ATOM     27  C   UNL     1      -4.528  11.609  18.458  0.00  0.00    +0.000 A 
ATOM     28  N   UNL     1      -3.441  12.030  19.056  0.00  0.00    +0.000 NA
BRANCH  27  29
ATOM     29  C   UNL     1      -5.905  11.619  19.088  0.00  0.00    +0.000 C 
ATOM     30  C   UNL     1      -6.037  12.745  20.127  0.00  0.00    +0.000 C 
ATOM     31  C   UNL     1      -6.100  14.140  19.507  0.00  0.00    +0.000 C 
ATOM     32  C   UNL     1      -7.163  14.245  18.415  0.00  0.00    +0.000 C 
ATOM     33  C   UNL     1      -7.079  13.127  17.379  0.00  0.00    +0.000 C 
ATOM     34  C   UNL     1      -7.008  11.742  18.023  0.00  0.00    +0.000 C 
ENDBRANCH  27  29
ENDBRANCH  23  24
ENDBRANCH  22  23
ENDBRANCH   3  22
TORSDOF 7
ENDMDL
MODEL 2
REMARK VINA RESULT:      -8.1      0.626      1.325
REMARK  Name = 
REMARK  9 active torsions:
REMARK  status: ('A' for Active; 'I' for Inactive)
REMARK    1  A    between atoms: C_1  and  O_2
REMARK    2  A    between atoms: O_2  and  C_3
REMARK    3  A    between atoms: C_5  and  O_6
REMARK    4  A    between atoms: O_6  and  C_7
REMARK    5  A    between atoms: C_7  and  C_8
REMARK    6  A    between atoms: C_11  and  C_12
REMARK    7  A    between atoms: C_21  and  C_22
REMARK    8  A    between atoms: C_26  and  O_27
REMARK    9  A    between atoms: O_27  and  C_28
REMARK                            x       y       z     vdW  Elec       q    Type
REMARK                         _______ _______ _______ _____ _____    ______ ____
ROOT
ATOM      1  C   UNL     1       0.064   9.541  21.946  0.00  0.00    +0.000 A 
ATOM      2  C   UNL     1      -0.245  10.467  20.932  0.00  0.00    +0.000 A 
ATOM      3  C   UNL     1       0.295  10.341  19.639  0.00  0.00    +0.000 A 
ATOM      4  C   UNL     1       1.163   9.260  19.390  0.00  0.00    +0.000 A 
ATOM      5  C   UNL     1       1.935   8.802  18.287  0.00  0.00    +0.000 A 
ATOM      6  C   UNL     1       2.551   7.634  18.689  0.00  0.00    +0.000 A 
ATOM      7  O   UNL     1       2.213   7.352  19.978  0.00  0.00    +0.000 OA
ATOM      8  C   UNL     1       1.394   8.345  20.403  0.00  0.00    +0.000 A 
ATOM      9  C   UNL     1       0.870   8.432  21.683  0.00  0.00    +0.000 A 
ENDROOT
BRANCH   6  10
ATOM     10  C   UNL     1       3.451   6.793  17.871  0.00  0.00    +0.000 A 
ATOM     11  C   UNL     1       4.217   7.286  16.826  0.00  0.00    +0.000 A 
ATOM     12  N   UNL     1       4.863   6.191  16.354  0.00  0.00    +0.000 N 
ATOM     13  N   UNL     1       5.743   6.031  15.345  0.00  0.00    +0.000 NA
ATOM     14  C   UNL     1       6.019   4.755  15.335  0.00  0.00    +0.000 A 
ATOM     15  S   UNL     1       5.231   3.710  16.541  0.00  0.00    +0.000 S 
ATOM     16  C   UNL     1       4.470   5.132  17.102  0.00  0.00    +0.000 A 
ATOM     17  N   UNL     1       3.622   5.432  18.049  0.00  0.00    +0.000 NA
BRANCH  14  18
ATOM     18  O   UNL     1       6.878   4.182  14.458  0.00  0.00    +0.000 OA
ATOM     19  C   UNL     1       6.321   3.814  13.193  0.00  0.00    +0.000 C 
ENDBRANCH  14  18
ENDBRANCH   6  10
BRANCH   1  21
ATOM     20  C   UNL     1      -1.310  10.959  23.237  0.00  0.00    +0.000 C 
ATOM     21  O   UNL     1      -0.485   9.793  23.181  0.00  0.00    +0.000 OA
ENDBRANCH   1  21
BRANCH   3  22
ATOM     22  O   UNL     1       0.091  11.218  18.611  0.00  0.00    +0.000 OA
BRANCH  22  23
ATOM     23  C   UNL     1      -0.964  12.169  18.783  0.00  0.00    +0.000 C 
BRANCH  23  24
ATOM     24  C   UNL     1      -2.282  11.609  18.322  0.00  0.00    +0.000 A 
ATOM     25  C   UNL     1      -2.514  10.388  17.718  0.00  0.00    +0.000 A 
ATOM     26  S   UNL     1      -4.190  10.183  17.416  0.00  0.00    +0.000 S 
ATOM     27  C   UNL     1      -4.493  11.726  18.115  0.00  0.00    +0.000 A 
ATOM     28  N   UNL     1      -3.425  12.354  18.544  0.00  0.00    +0.000 NA
BRANCH  27  29
ATOM     29  C   UNL     1      -5.902  12.271  18.217  0.00  0.00    +0.000 C 
ATOM     30  C   UNL     1      -6.939  11.136  18.256  0.00  0.00    +0.000 C 
ATOM     31  C   UNL     1      -6.939  10.357  19.569  0.00  0.00    +0.000 C 
ATOM     32  C   UNL     1      -7.049  11.270  20.789  0.00  0.00    +0.000 C 
ATOM     33  C   UNL     1      -6.051  12.425  20.772  0.00  0.00    +0.000 C 
ATOM     34  C   UNL     1      -6.062  13.184  19.445  0.00  0.00    +0.000 C 
ENDBRANCH  27  29
ENDBRANCH  23  24
ENDBRANCH  22  23
ENDBRANCH   3  22
TORSDOF 7
ENDMDL
MODEL 3
REMARK VINA RESULT:      -8.1      3.234      4.652
REMARK  Name = 
REMARK  9 active torsions:
REMARK  status: ('A' for Active; 'I' for Inactive)
REMARK    1  A    between atoms: C_1  and  O_2
REMARK    2  A    between atoms: O_2  and  C_3
REMARK    3  A    between atoms: C_5  and  O_6
REMARK    4  A    between atoms: O_6  and  C_7
REMARK    5  A    between atoms: C_7  and  C_8
REMARK    6  A    between atoms: C_11  and  C_12
REMARK    7  A    between atoms: C_21  and  C_22
REMARK    8  A    between atoms: C_26  and  O_27
REMARK    9  A    between atoms: O_27  and  C_28
REMARK                            x       y       z     vdW  Elec       q    Type
REMARK                         _______ _______ _______ _____ _____    ______ ____
ROOT
ATOM      1  C   UNL     1      -0.301  10.288  22.165  0.00  0.00    +0.000 A 
ATOM      2  C   UNL     1      -0.711  11.005  21.026  0.00  0.00    +0.000 A 
ATOM      3  C   UNL     1      -0.255  10.657  19.741  0.00  0.00    +0.000 A 
ATOM      4  C   UNL     1       0.632   9.568  19.629  0.00  0.00    +0.000 A 
ATOM      5  C   UNL     1       1.343   8.933  18.575  0.00  0.00    +0.000 A 
ATOM      6  C   UNL     1       2.025   7.873  19.135  0.00  0.00    +0.000 A 
ATOM      7  O   UNL     1       1.786   7.824  20.475  0.00  0.00    +0.000 OA
ATOM      8  C   UNL     1       0.963   8.859  20.772  0.00  0.00    +0.000 A 
ATOM      9  C   UNL     1       0.524   9.168  22.049  0.00  0.00    +0.000 A 
ENDROOT
BRANCH   6  10
ATOM     10  C   UNL     1       2.897   6.916  18.419  0.00  0.00    +0.000 A 
ATOM     11  C   UNL     1       3.816   7.295  17.453  0.00  0.00    +0.000 A 
ATOM     12  N   UNL     1       4.373   6.124  17.058  0.00  0.00    +0.000 N 
ATOM     13  N   UNL     1       5.324   5.842  16.145  0.00  0.00    +0.000 NA
ATOM     14  C   UNL     1       5.447   4.543  16.174  0.00  0.00    +0.000 A 
ATOM     15  S   UNL     1       4.425   3.621  17.302  0.00  0.00    +0.000 S 
ATOM     16  C   UNL     1       3.785   5.133  17.771  0.00  0.00    +0.000 A 
ATOM     17  N   UNL     1       2.887   5.548  18.625  0.00  0.00    +0.000 NA
BRANCH  14  18
ATOM     18  O   UNL     1       6.315   3.856  15.393  0.00  0.00    +0.000 OA
ATOM     19  C   UNL     1       6.842   4.571  14.271  0.00  0.00    +0.000 C 
ENDBRANCH  14  18
ENDBRANCH   6  10
BRANCH   1  21
ATOM     20  C   UNL     1      -1.759  11.780  23.267  0.00  0.00    +0.000 C 
ATOM     21  O   UNL     1      -0.773  10.749  23.371  0.00  0.00    +0.000 OA
ENDBRANCH   1  21
BRANCH   3  22
ATOM     22  O   UNL     1      -0.558  11.326  18.589  0.00  0.00    +0.000 OA
BRANCH  22  23
ATOM     23  C   UNL     1      -0.768  12.736  18.706  0.00  0.00    +0.000 C 
BRANCH  23  24
ATOM     24  C   UNL     1       0.529  13.491  18.605  0.00  0.00    +0.000 A 
ATOM     25  C   UNL     1       1.762  13.000  18.223  0.00  0.00    +0.000 A 
ATOM     26  S   UNL     1       2.930  14.256  18.224  0.00  0.00    +0.000 S 
ATOM     27  C   UNL     1       1.716  15.368  18.724  0.00  0.00    +0.000 A 
ATOM     28  N   UNL     1       0.524  14.846  18.882  0.00  0.00    +0.000 NA
BRANCH  27  29
ATOM     29  C   UNL     1       2.042  16.830  18.942  0.00  0.00    +0.000 C 
ATOM     30  C   UNL     1       2.996  17.357  17.856  0.00  0.00    +0.000 C 
ATOM     31  C   UNL     1       2.335  17.510  16.488  0.00  0.00    +0.000 C 
ATOM     32  C   UNL     1       1.041  18.320  16.552  0.00  0.00    +0.000 C 
ATOM     33  C   UNL     1       0.080  17.841  17.637  0.00  0.00    +0.000 C 
ATOM     34  C   UNL     1       0.766  17.687  18.995  0.00  0.00    +0.000 C 
ENDBRANCH  27  29
ENDBRANCH  23  24
ENDBRANCH  22  23
ENDBRANCH   3  22
TORSDOF 7
ENDMDL
MODEL 4
REMARK VINA RESULT:      -7.8      3.803     11.180
REMARK  Name = 
REMARK  9 active torsions:
REMARK  status: ('A' for Active; 'I' for Inactive)
REMARK    1  A    between atoms: C_1  and  O_2
REMARK    2  A    between atoms: O_2  and  C_3
REMARK    3  A    between atoms: C_5  and  O_6
REMARK    4  A    between atoms: O_6  and  C_7
REMARK    5  A    between atoms: C_7  and  C_8
REMARK    6  A    between atoms: C_11  and  C_12
REMARK    7  A    between atoms: C_21  and  C_22
REMARK    8  A    between atoms: C_26  and  O_27
REMARK    9  A    between atoms: O_27  and  C_28
REMARK                            x       y       z     vdW  Elec       q    Type
REMARK                         _______ _______ _______ _____ _____    ______ ____
ROOT
ATOM      1  C   UNL     1      -2.056  10.596  17.157  0.00  0.00    +0.000 A 
ATOM      2  C   UNL     1      -0.925   9.854  17.546  0.00  0.00    +0.000 A 
ATOM      3  C   UNL     1      -0.272  10.105  18.767  0.00  0.00    +0.000 A 
ATOM      4  C   UNL     1      -0.783  11.128  19.589  0.00  0.00    +0.000 A 
ATOM      5  C   UNL     1      -0.419  11.719  20.830  0.00  0.00    +0.000 A 
ATOM      6  C   UNL     1      -1.377  12.670  21.115  0.00  0.00    +0.000 A 
ATOM      7  O   UNL     1      -2.303  12.708  20.117  0.00  0.00    +0.000 OA
ATOM      8  C   UNL     1      -1.930  11.792  19.190  0.00  0.00    +0.000 A 
ATOM      9  C   UNL     1      -2.604  11.563  18.001  0.00  0.00    +0.000 A 
ENDROOT
BRANCH   6  10
ATOM     10  C   UNL     1      -1.420  13.538  22.312  0.00  0.00    +0.000 A 
ATOM     11  C   UNL     1      -0.418  14.439  22.638  0.00  0.00    +0.000 A 
ATOM     12  N   UNL     1      -0.851  14.999  23.795  0.00  0.00    +0.000 N 
ATOM     13  N   UNL     1      -0.310  15.937  24.598  0.00  0.00    +0.000 NA
ATOM     14  C   UNL     1      -1.158  16.072  25.582  0.00  0.00    +0.000 A 
ATOM     15  S   UNL     1      -2.633  15.075  25.569  0.00  0.00    +0.000 S 
ATOM     16  C   UNL     1      -2.042  14.430  24.102  0.00  0.00    +0.000 A 
ATOM     17  N   UNL     1      -2.450  13.543  23.235  0.00  0.00    +0.000 NA
BRANCH  14  18
ATOM     18  O   UNL     1      -0.980  16.933  26.612  0.00  0.00    +0.000 OA
ATOM     19  C   UNL     1       0.024  16.565  27.562  0.00  0.00    +0.000 C 
ENDBRANCH  14  18
ENDBRANCH   6  10
BRANCH   1  21
ATOM     20  C   UNL     1      -3.915  10.764  15.715  0.00  0.00    +0.000 C 
ATOM     21  O   UNL     1      -2.581  10.294  15.923  0.00  0.00    +0.000 OA
ENDBRANCH   1  21
BRANCH   3  22
ATOM     22  O   UNL     1       0.859   9.472  19.199  0.00  0.00    +0.000 OA
BRANCH  22  23
ATOM     23  C   UNL     1       1.808   9.101  18.195  0.00  0.00    +0.000 C 
BRANCH  23  24
ATOM     24  C   UNL     1       2.497   7.811  18.545  0.00  0.00    +0.000 A 
ATOM     25  C   UNL     1       2.254   6.993  19.632  0.00  0.00    +0.000 A 
ATOM     26  S   UNL     1       3.267   5.610  19.576  0.00  0.00    +0.000 S 
ATOM     27  C   UNL     1       3.953   6.188  18.106  0.00  0.00    +0.000 A 
ATOM     28  N   UNL     1       3.466   7.329  17.684  0.00  0.00    +0.000 NA
BRANCH  27  29
ATOM     29  C   UNL     1       5.025   5.399  17.385  0.00  0.00    +0.000 C 
ATOM     30  C   UNL     1       5.912   6.318  16.527  0.00  0.00    +0.000 C 
ATOM     31  C   UNL     1       6.846   7.203  17.350  0.00  0.00    +0.000 C 
ATOM     32  C   UNL     1       7.665   6.404  18.363  0.00  0.00    +0.000 C 
ATOM     33  C   UNL     1       6.819   5.461  19.215  0.00  0.00    +0.000 C 
ATOM     34  C   UNL     1       5.886   4.592  18.371  0.00  0.00    +0.000 C 
ENDBRANCH  27  29
ENDBRANCH  23  24
ENDBRANCH  22  23
ENDBRANCH   3  22
TORSDOF 7
ENDMDL
MODEL 5
REMARK VINA RESULT:      -7.8      1.049      1.207
REMARK  Name = 
REMARK  9 active torsions:
REMARK  status: ('A' for Active; 'I' for Inactive)
REMARK    1  A    between atoms: C_1  and  O_2
REMARK    2  A    between atoms: O_2  and  C_3
REMARK    3  A    between atoms: C_5  and  O_6
REMARK    4  A    between atoms: O_6  and  C_7
REMARK    5  A    between atoms: C_7  and  C_8
REMARK    6  A    between atoms: C_11  and  C_12
REMARK    7  A    between atoms: C_21  and  C_22
REMARK    8  A    between atoms: C_26  and  O_27
REMARK    9  A    between atoms: O_27  and  C_28
REMARK                            x       y       z     vdW  Elec       q    Type
REMARK                         _______ _______ _______ _____ _____    ______ ____
ROOT
ATOM      1  C   UNL     1      -0.077  10.178  22.076  0.00  0.00    +0.000 A 
ATOM      2  C   UNL     1      -0.577  10.907  20.981  0.00  0.00    +0.000 A 
ATOM      3  C   UNL     1      -0.165  10.624  19.666  0.00  0.00    +0.000 A 
ATOM      4  C   UNL     1       0.770   9.588  19.478  0.00  0.00    +0.000 A 
ATOM      5  C   UNL     1       1.462   9.025  18.371  0.00  0.00    +0.000 A 
ATOM      6  C   UNL     1       2.224   7.985  18.863  0.00  0.00    +0.000 A 
ATOM      7  O   UNL     1       2.052   7.882  20.211  0.00  0.00    +0.000 OA
ATOM      8  C   UNL     1       1.191   8.862  20.579  0.00  0.00    +0.000 A 
ATOM      9  C   UNL     1       0.798   9.108  21.885  0.00  0.00    +0.000 A 
ENDROOT
BRANCH   6  10
ATOM     10  C   UNL     1       3.110   7.099  18.077  0.00  0.00    +0.000 A 
ATOM     11  C   UNL     1       2.871   5.746  17.896  0.00  0.00    +0.000 A 
ATOM     12  N   UNL     1       3.919   5.331  17.142  0.00  0.00    +0.000 N 
ATOM     13  N   UNL     1       4.247   4.120  16.646  0.00  0.00    +0.000 NA
ATOM     14  C   UNL     1       5.373   4.308  16.012  0.00  0.00    +0.000 A 
ATOM     15  S   UNL     1       6.069   5.945  15.991  0.00  0.00    +0.000 S 
ATOM     16  C   UNL     1       4.710   6.407  16.917  0.00  0.00    +0.000 A 
ATOM     17  N   UNL     1       4.269   7.516  17.448  0.00  0.00    +0.000 NA
BRANCH  14  18
ATOM     18  O   UNL     1       6.040   3.322  15.365  0.00  0.00    +0.000 OA
ATOM     19  C   UNL     1       6.283   3.547  13.973  0.00  0.00    +0.000 C 
ENDBRANCH  14  18
ENDBRANCH   6  10
BRANCH   1  21
ATOM     20  C   UNL     1      -1.604  11.502  23.293  0.00  0.00    +0.000 C 
ATOM     21  O   UNL     1      -0.515  10.576  23.317  0.00  0.00    +0.000 OA
ENDBRANCH   1  21
BRANCH   3  22
ATOM     22  O   UNL     1      -0.557  11.312  18.552  0.00  0.00    +0.000 OA
BRANCH  22  23
ATOM     23  C   UNL     1      -1.439  12.418  18.762  0.00  0.00    +0.000 C 
BRANCH  23  24
ATOM     24  C   UNL     1      -2.873  12.020  18.548  0.00  0.00    +0.000 A 
ATOM     25  C   UNL     1      -3.421  11.405  17.438  0.00  0.00    +0.000 A 
ATOM     26  S   UNL     1      -5.094  11.116  17.681  0.00  0.00    +0.000 S 
ATOM     27  C   UNL     1      -4.976  11.820  19.247  0.00  0.00    +0.000 A 
ATOM     28  N   UNL     1      -3.778  12.243  19.570  0.00  0.00    +0.000 NA
BRANCH  27  29
ATOM     29  C   UNL     1      -6.186  11.913  20.152  0.00  0.00    +0.000 C 
ATOM     30  C   UNL     1      -5.954  12.919  21.292  0.00  0.00    +0.000 C 
ATOM     31  C   UNL     1      -5.950  14.374  20.828  0.00  0.00    +0.000 C 
ATOM     32  C   UNL     1      -7.184  14.726  20.000  0.00  0.00    +0.000 C 
ATOM     33  C   UNL     1      -7.460  13.734  18.874  0.00  0.00    +0.000 C 
ATOM     34  C   UNL     1      -7.451  12.284  19.360  0.00  0.00    +0.000 C 
ENDBRANCH  27  29
ENDBRANCH  23  24
ENDBRANCH  22  23
ENDBRANCH   3  22
TORSDOF 7
ENDMDL
MODEL 6
REMARK VINA RESULT:      -7.8      3.713     10.610
REMARK  Name = 
REMARK  9 active torsions:
REMARK  status: ('A' for Active; 'I' for Inactive)
REMARK    1  A    between atoms: C_1  and  O_2
REMARK    2  A    between atoms: O_2  and  C_3
REMARK    3  A    between atoms: C_5  and  O_6
REMARK    4  A    between atoms: O_6  and  C_7
REMARK    5  A    between atoms: C_7  and  C_8
REMARK    6  A    between atoms: C_11  and  C_12
REMARK    7  A    between atoms: C_21  and  C_22
REMARK    8  A    between atoms: C_26  and  O_27
REMARK    9  A    between atoms: O_27  and  C_28
REMARK                            x       y       z     vdW  Elec       q    Type
REMARK                         _______ _______ _______ _____ _____    ______ ____
ROOT
ATOM      1  C   UNL     1       2.492  13.607  18.477  0.00  0.00    +0.000 A 
ATOM      2  C   UNL     1       2.405  12.264  18.067  0.00  0.00    +0.000 A 
ATOM      3  C   UNL     1       1.350  11.437  18.495  0.00  0.00    +0.000 A 
ATOM      4  C   UNL     1       0.383  11.994  19.354  0.00  0.00    +0.000 A 
ATOM      5  C   UNL     1      -0.773  11.523  20.033  0.00  0.00    +0.000 A 
ATOM      6  C   UNL     1      -1.314  12.604  20.699  0.00  0.00    +0.000 A 
ATOM      7  O   UNL     1      -0.552  13.711  20.479  0.00  0.00    +0.000 OA
ATOM      8  C   UNL     1       0.480  13.335  19.685  0.00  0.00    +0.000 A 
ATOM      9  C   UNL     1       1.499  14.180  19.274  0.00  0.00    +0.000 A 
ENDROOT
BRANCH   6  10
ATOM     10  C   UNL     1      -2.533  12.597  21.537  0.00  0.00    +0.000 A 
ATOM     11  C   UNL     1      -3.817  12.587  21.017  0.00  0.00    +0.000 A 
ATOM     12  N   UNL     1      -4.611  12.599  22.116  0.00  0.00    +0.000 N 
ATOM     13  N   UNL     1      -5.952  12.602  22.258  0.00  0.00    +0.000 NA
ATOM     14  C   UNL     1      -6.157  12.636  23.547  0.00  0.00    +0.000 A 
ATOM     15  S   UNL     1      -4.743  12.664  24.627  0.00  0.00    +0.000 S 
ATOM     16  C   UNL     1      -3.802  12.621  23.203  0.00  0.00    +0.000 A 
ATOM     17  N   UNL     1      -2.527  12.608  22.920  0.00  0.00    +0.000 NA
BRANCH  14  18
ATOM     18  O   UNL     1      -7.390  12.648  24.109  0.00  0.00    +0.000 OA
ATOM     19  C   UNL     1      -7.912  13.939  24.435  0.00  0.00    +0.000 C 
ENDBRANCH  14  18
ENDBRANCH   6  10
BRANCH   1  21
ATOM     20  C   UNL     1       4.147  15.207  18.993  0.00  0.00    +0.000 C 
ATOM     21  O   UNL     1       3.591  14.303  18.035  0.00  0.00    +0.000 OA
ENDBRANCH   1  21
BRANCH   3  22
ATOM     22  O   UNL     1       1.214  10.112  18.190  0.00  0.00    +0.000 OA
BRANCH  22  23
ATOM     23  C   UNL     1       1.353   9.189  19.274  0.00  0.00    +0.000 C 
BRANCH  23  24
ATOM     24  C   UNL     1       2.194   8.006  18.878  0.00  0.00    +0.000 A 
ATOM     25  C   UNL     1       2.957   7.858  17.736  0.00  0.00    +0.000 A 
ATOM     26  S   UNL     1       3.769   6.348  17.753  0.00  0.00    +0.000 S 
ATOM     27  C   UNL     1       3.058   5.997  19.281  0.00  0.00    +0.000 A 
ATOM     28  N   UNL     1       2.270   6.934  19.749  0.00  0.00    +0.000 NA
BRANCH  27  29
ATOM     29  C   UNL     1       3.358   4.698  19.999  0.00  0.00    +0.000 C 
ATOM     30  C   UNL     1       2.278   4.377  21.046  0.00  0.00    +0.000 C 
ATOM     31  C   UNL     1       0.944   3.955  20.435  0.00  0.00    +0.000 C 
ATOM     32  C   UNL     1       1.100   2.829  19.414  0.00  0.00    +0.000 C 
ATOM     33  C   UNL     1       2.183   3.102  18.373  0.00  0.00    +0.000 C 
ATOM     34  C   UNL     1       3.506   3.531  19.008  0.00  0.00    +0.000 C 
ENDBRANCH  27  29
ENDBRANCH  23  24
ENDBRANCH  22  23
ENDBRANCH   3  22
TORSDOF 7
ENDMDL
MODEL 7
REMARK VINA RESULT:      -7.7      1.423      2.064
REMARK  Name = 
REMARK  9 active torsions:
REMARK  status: ('A' for Active; 'I' for Inactive)
REMARK    1  A    between atoms: C_1  and  O_2
REMARK    2  A    between atoms: O_2  and  C_3
REMARK    3  A    between atoms: C_5  and  O_6
REMARK    4  A    between atoms: O_6  and  C_7
REMARK    5  A    between atoms: C_7  and  C_8
REMARK    6  A    between atoms: C_11  and  C_12
REMARK    7  A    between atoms: C_21  and  C_22
REMARK    8  A    between atoms: C_26  and  O_27
REMARK    9  A    between atoms: O_27  and  C_28
REMARK                            x       y       z     vdW  Elec       q    Type
REMARK                         _______ _______ _______ _____ _____    ______ ____
ROOT
ATOM      1  C   UNL     1      -0.510  10.705  22.150  0.00  0.00    +0.000 A 
ATOM      2  C   UNL     1      -1.164  11.232  21.021  0.00  0.00    +0.000 A 
ATOM      3  C   UNL     1      -0.829  10.813  19.720  0.00  0.00    +0.000 A 
ATOM      4  C   UNL     1       0.188   9.848  19.581  0.00  0.00    +0.000 A 
ATOM      5  C   UNL     1       0.844   9.206  18.496  0.00  0.00    +0.000 A 
ATOM      6  C   UNL     1       1.742   8.313  19.045  0.00  0.00    +0.000 A 
ATOM      7  O   UNL     1       1.686   8.377  20.404  0.00  0.00    +0.000 OA
ATOM      8  C   UNL     1       0.763   9.318  20.722  0.00  0.00    +0.000 A 
ATOM      9  C   UNL     1       0.450   9.700  22.017  0.00  0.00    +0.000 A 
ENDROOT
BRANCH   6  10
ATOM     10  C   UNL     1       2.648   7.412  18.300  0.00  0.00    +0.000 A 
ATOM     11  C   UNL     1       2.565   6.030  18.355  0.00  0.00    +0.000 A 
ATOM     12  N   UNL     1       3.575   5.613  17.551  0.00  0.00    +0.000 N 
ATOM     13  N   UNL     1       4.002   4.381  17.208  0.00  0.00    +0.000 NA
ATOM     14  C   UNL     1       5.024   4.583  16.422  0.00  0.00    +0.000 A 
ATOM     15  S   UNL     1       5.501   6.261  16.070  0.00  0.00    +0.000 S 
ATOM     16  C   UNL     1       4.197   6.717  17.073  0.00  0.00    +0.000 A 
ATOM     17  N   UNL     1       3.675   7.843  17.480  0.00  0.00    +0.000 NA
BRANCH  14  18
ATOM     18  O   UNL     1       5.741   3.583  15.855  0.00  0.00    +0.000 OA
ATOM     19  C   UNL     1       6.362   3.896  14.604  0.00  0.00    +0.000 C 
ENDBRANCH  14  18
ENDBRANCH   6  10
BRANCH   1  21
ATOM     20  C   UNL     1      -2.140  11.914  23.351  0.00  0.00    +0.000 C 
ATOM     21  O   UNL     1      -0.888  11.225  23.364  0.00  0.00    +0.000 OA
ENDBRANCH   1  21
BRANCH   3  22
ATOM     22  O   UNL     1      -1.374  11.307  18.568  0.00  0.00    +0.000 OA
BRANCH  22  23
ATOM     23  C   UNL     1      -2.416  10.531  17.971  0.00  0.00    +0.000 C 
BRANCH  23  24
ATOM     24  C   UNL     1      -3.693  11.320  17.869  0.00  0.00    +0.000 A 
ATOM     25  C   UNL     1      -4.643  11.261  16.868  0.00  0.00    +0.000 A 
ATOM     26  S   UNL     1      -5.945  12.322  17.217  0.00  0.00    +0.000 S 
ATOM     27  C   UNL     1      -5.161  12.781  18.679  0.00  0.00    +0.000 A 
ATOM     28  N   UNL     1      -4.012  12.190  18.896  0.00  0.00    +0.000 NA
BRANCH  27  29
ATOM     29  C   UNL     1      -5.794  13.785  19.619  0.00  0.00    +0.000 C 
ATOM     30  C   UNL     1      -7.302  13.525  19.781  0.00  0.00    +0.000 C 
ATOM     31  C   UNL     1      -7.619  12.274  20.596  0.00  0.00    +0.000 C 
ATOM     32  C   UNL     1      -6.890  12.251  21.939  0.00  0.00    +0.000 C 
ATOM     33  C   UNL     1      -5.394  12.532  21.819  0.00  0.00    +0.000 C 
ATOM     34  C   UNL     1      -5.101  13.784  20.991  0.00  0.00    +0.000 C 
ENDBRANCH  27  29
ENDBRANCH  23  24
ENDBRANCH  22  23
ENDBRANCH   3  22
TORSDOF 7
ENDMDL
MODEL 8
REMARK VINA RESULT:      -7.6      3.881     10.683
REMARK  Name = 
REMARK  9 active torsions:
REMARK  status: ('A' for Active; 'I' for Inactive)
REMARK    1  A    between atoms: C_1  and  O_2
REMARK    2  A    between atoms: O_2  and  C_3
REMARK    3  A    between atoms: C_5  and  O_6
REMARK    4  A    between atoms: O_6  and  C_7
REMARK    5  A    between atoms: C_7  and  C_8
REMARK    6  A    between atoms: C_11  and  C_12
REMARK    7  A    between atoms: C_21  and  C_22
REMARK    8  A    between atoms: C_26  and  O_27
REMARK    9  A    between atoms: O_27  and  C_28
REMARK                            x       y       z     vdW  Elec       q    Type
REMARK                         _______ _______ _______ _____ _____    ______ ____
ROOT
ATOM      1  C   UNL     1      -2.048  10.627  16.985  0.00  0.00    +0.000 A 
ATOM      2  C   UNL     1      -1.038   9.767  17.452  0.00  0.00    +0.000 A 
ATOM      3  C   UNL     1      -0.480   9.924  18.734  0.00  0.00    +0.000 A 
ATOM      4  C   UNL     1      -0.962  10.975  19.538  0.00  0.00    +0.000 A 
ATOM      5  C   UNL     1      -0.659  11.500  20.824  0.00  0.00    +0.000 A 
ATOM      6  C   UNL     1      -1.540  12.538  21.049  0.00  0.00    +0.000 A 
ATOM      7  O   UNL     1      -2.361  12.691  19.973  0.00  0.00    +0.000 OA
ATOM      8  C   UNL     1      -1.995  11.761  19.056  0.00  0.00    +0.000 A 
ATOM      9  C   UNL     1      -2.574  11.628  17.804  0.00  0.00    +0.000 A 
ENDROOT
BRANCH   6  10
ATOM     10  C   UNL     1      -1.609  13.381  22.263  0.00  0.00    +0.000 A 
ATOM     11  C   UNL     1      -0.522  14.071  22.776  0.00  0.00    +0.000 A 
ATOM     12  N   UNL     1      -1.020  14.685  23.878  0.00  0.00    +0.000 N 
ATOM     13  N   UNL     1      -0.448  15.492  24.794  0.00  0.00    +0.000 NA
ATOM     14  C   UNL     1      -1.399  15.770  25.643  0.00  0.00    +0.000 A 
ATOM     15  S   UNL     1      -3.011  15.069  25.364  0.00  0.00    +0.000 S 
ATOM     16  C   UNL     1      -2.328  14.347  23.976  0.00  0.00    +0.000 A 
ATOM     17  N   UNL     1      -2.752  13.566  23.019  0.00  0.00    +0.000 NA
BRANCH  14  18
ATOM     18  O   UNL     1      -1.228  16.566  26.725  0.00  0.00    +0.000 OA
ATOM     19  C   UNL     1      -0.804  17.905  26.451  0.00  0.00    +0.000 C 
ENDBRANCH  14  18
ENDBRANCH   6  10
BRANCH   1  21
ATOM     20  C   UNL     1      -3.902  10.453  15.537  0.00  0.00    +0.000 C 
ATOM     21  O   UNL     1      -2.482  10.407  15.699  0.00  0.00    +0.000 OA
ENDBRANCH   1  21
BRANCH   3  22
ATOM     22  O   UNL     1       0.536   9.170  19.249  0.00  0.00    +0.000 OA
BRANCH  22  23
ATOM     23  C   UNL     1       1.828   9.354  18.663  0.00  0.00    +0.000 C 
BRANCH  23  24
ATOM     24  C   UNL     1       2.529   8.038  18.463  0.00  0.00    +0.000 A 
ATOM     25  C   UNL     1       3.283   7.642  17.375  0.00  0.00    +0.000 A 
ATOM     26  S   UNL     1       3.913   6.066  17.629  0.00  0.00    +0.000 S 
ATOM     27  C   UNL     1       3.147   6.022  19.169  0.00  0.00    +0.000 A 
ATOM     28  N   UNL     1       2.469   7.100  19.477  0.00  0.00    +0.000 NA
BRANCH  27  29
ATOM     29  C   UNL     1       3.283   4.814  20.071  0.00  0.00    +0.000 C 
ATOM     30  C   UNL     1       2.068   4.673  21.004  0.00  0.00    +0.000 C 
ATOM     31  C   UNL     1       0.796   4.232  20.283  0.00  0.00    +0.000 C 
ATOM     32  C   UNL     1       1.011   2.979  19.435  0.00  0.00    +0.000 C 
ATOM     33  C   UNL     1       2.226   3.073  18.514  0.00  0.00    +0.000 C 
ATOM     34  C   UNL     1       3.484   3.525  19.256  0.00  0.00    +0.000 C 
ENDBRANCH  27  29
ENDBRANCH  23  24
ENDBRANCH  22  23
ENDBRANCH   3  22
TORSDOF 7
ENDMDL
MODEL 9
REMARK VINA RESULT:      -7.6      2.324      2.719
REMARK  Name = 
REMARK  9 active torsions:
REMARK  status: ('A' for Active; 'I' for Inactive)
REMARK    1  A    between atoms: C_1  and  O_2
REMARK    2  A    between atoms: O_2  and  C_3
REMARK    3  A    between atoms: C_5  and  O_6
REMARK    4  A    between atoms: O_6  and  C_7
REMARK    5  A    between atoms: C_7  and  C_8
REMARK    6  A    between atoms: C_11  and  C_12
REMARK    7  A    between atoms: C_21  and  C_22
REMARK    8  A    between atoms: C_26  and  O_27
REMARK    9  A    between atoms: O_27  and  C_28
REMARK                            x       y       z     vdW  Elec       q    Type
REMARK                         _______ _______ _______ _____ _____    ______ ____
ROOT
ATOM      1  C   UNL     1      -0.746  11.620  22.508  0.00  0.00    +0.000 A 
ATOM      2  C   UNL     1      -0.649  12.185  21.223  0.00  0.00    +0.000 A 
ATOM      3  C   UNL     1      -0.032  11.493  20.165  0.00  0.00    +0.000 A 
ATOM      4  C   UNL     1       0.492  10.213  20.433  0.00  0.00    +0.000 A 
ATOM      5  C   UNL     1       1.207   9.228  19.699  0.00  0.00    +0.000 A 
ATOM      6  C   UNL     1       1.395   8.156  20.547  0.00  0.00    +0.000 A 
ATOM      7  O   UNL     1       0.849   8.428  21.765  0.00  0.00    +0.000 OA
ATOM      8  C   UNL     1       0.324   9.676  21.698  0.00  0.00    +0.000 A 
ATOM      9  C   UNL     1      -0.287  10.326  22.759  0.00  0.00    +0.000 A 
ENDROOT
BRANCH   6  10
ATOM     10  C   UNL     1       2.086   6.890  20.219  0.00  0.00    +0.000 A 
ATOM     11  C   UNL     1       1.750   5.669  20.782  0.00  0.00    +0.000 A 
ATOM     12  N   UNL     1       2.630   4.802  20.223  0.00  0.00    +0.000 N 
ATOM     13  N   UNL     1       2.806   3.474  20.376  0.00  0.00    +0.000 NA
ATOM     14  C   UNL     1       3.814   3.174  19.602  0.00  0.00    +0.000 A 
ATOM     15  S   UNL     1       4.578   4.479  18.665  0.00  0.00    +0.000 S 
ATOM     16  C   UNL     1       3.425   5.512  19.386  0.00  0.00    +0.000 A 
ATOM     17  N   UNL     1       3.139   6.785  19.329  0.00  0.00    +0.000 NA
BRANCH  14  18
ATOM     18  O   UNL     1       4.308   1.919  19.470  0.00  0.00    +0.000 OA
ATOM     19  C   UNL     1       3.736   1.134  18.420  0.00  0.00    +0.000 C 
ENDBRANCH  14  18
ENDBRANCH   6  10
BRANCH   1  21
ATOM     20  C   UNL     1      -1.135  13.813  23.285  0.00  0.00    +0.000 C 
ATOM     21  O   UNL     1      -1.326  12.409  23.473  0.00  0.00    +0.000 OA
ENDBRANCH   1  21
BRANCH   3  22
ATOM     22  O   UNL     1       0.151  11.983  18.903  0.00  0.00    +0.000 OA
BRANCH  22  23
ATOM     23  C   UNL     1      -0.937  12.721  18.340  0.00  0.00    +0.000 C 
BRANCH  23  24
ATOM     24  C   UNL     1      -2.109  11.825  18.047  0.00  0.00    +0.000 A 
ATOM     25  C   UNL     1      -2.131  10.702  17.244  0.00  0.00    +0.000 A 
ATOM     26  S   UNL     1      -3.692   9.991  17.255  0.00  0.00    +0.000 S 
ATOM     27  C   UNL     1      -4.230  11.219  18.334  0.00  0.00    +0.000 A 
ATOM     28  N   UNL     1      -3.316  12.099  18.664  0.00  0.00    +0.000 NA
BRANCH  27  29
ATOM     29  C   UNL     1      -5.654  11.236  18.846  0.00  0.00    +0.000 C 
ATOM     30  C   UNL     1      -5.785  12.110  20.105  0.00  0.00    +0.000 C 
ATOM     31  C   UNL     1      -5.665  13.606  19.822  0.00  0.00    +0.000 C 
ATOM     32  C   UNL     1      -6.605  14.067  18.709  0.00  0.00    +0.000 C 
ATOM     33  C   UNL     1      -6.522  13.205  17.452  0.00  0.00    +0.000 C 
ATOM     34  C   UNL     1      -6.635  11.712  17.761  0.00  0.00    +0.000 C 
ENDBRANCH  27  29
ENDBRANCH  23  24
ENDBRANCH  22  23
ENDBRANCH   3  22
TORSDOF 7
ENDMDL
