MODEL 1
REMARK VINA RESULT:      -8.6      0.000      0.000
REMARK  Name = 
REMARK  4 active torsions:
REMARK  status: ('A' for Active; 'I' for Inactive)
REMARK    1  A    between atoms: C_4  and  C_5
REMARK    2  A    between atoms: C_5  and  C_6
REMARK    3  A    between atoms: N_11  and  C_12
REMARK    4  A    between atoms: C_12  and  C_13
REMARK                            x       y       z     vdW  Elec       q    Type
REMARK                         _______ _______ _______ _____ _____    ______ ____
ROOT
ATOM      1  C   UNL     1       2.997   6.611  19.355  0.00  0.00    +0.000 C 
ENDROOT
BRANCH   1   5
ATOM      2  O   UNL     1       1.822   3.543  16.756  0.00  0.00    +0.000 OA
ATOM      3  C   UNL     1       2.480   4.034  17.669  0.00  0.00    +0.000 C 
ATOM      4  N   UNL     1       3.351   5.050  17.413  0.00  0.00    +0.000 N 
ATOM      5  C   UNL     1       3.966   5.912  18.403  0.00  0.00    +0.000 C 
ATOM      6  C   UNL     1       5.016   5.108  19.174  0.00  0.00    +0.000 C 
ATOM      7  O   UNL     1       6.148   5.562  19.369  0.00  0.00    +0.000 OA
ATOM      8  N   UNL     1       4.653   3.958  19.825  0.00  0.00    +0.000 N 
ATOM      9  C   UNL     1       3.354   3.442  19.986  0.00  0.00    +0.000 A 
ATOM     10  C   UNL     1       3.090   2.846  21.229  0.00  0.00    +0.000 A 
ATOM     11  C   UNL     1       1.789   2.483  21.586  0.00  0.00    +0.000 A 
ATOM     12  C   UNL     1       0.743   2.668  20.689  0.00  0.00    +0.000 A 
ATOM     13  C   UNL     1       1.006   3.168  19.417  0.00  0.00    +0.000 A 
ATOM     14  C   UNL     1       2.309   3.548  19.054  0.00  0.00    +0.000 A 
ATOM     15  H   UNL     1       3.259   5.406  16.467  0.00  0.00    +0.000 HD
ATOM     16  H   UNL     1       5.376   3.637  20.457  0.00  0.00    +0.000 HD
ENDBRANCH   1   5
BRANCH   1  17
ATOM     17  C   UNL     1       2.474   7.909  18.781  0.00  0.00    +0.000 C 
ATOM     18  O   UNL     1       2.753   8.221  17.623  0.00  0.00    +0.000 OA
ATOM     19  N   UNL     1       1.608   8.659  19.549  0.00  0.00    +0.000 N 
ATOM     20  C   UNL     1       0.935   9.808  18.930  0.00  0.00    +0.000 C 
ATOM     21  C   UNL     1      -0.456  10.075  19.558  0.00  0.00    +0.000 C 
ATOM     22  N   UNL     1      -0.498  10.079  21.045  0.00  0.00    +0.000 NA
ATOM     23  C   UNL     1       0.155   8.842  21.526  0.00  0.00    +0.000 C 
ATOM     24  C   UNL     1       1.587   8.662  21.012  0.00  0.00    +0.000 C 
BRANCH  22  25
ATOM     25  C   UNL     1       0.127  11.308  21.581  0.00  0.00    +0.000 C 
BRANCH  25  26
ATOM     26  C   UNL     1      -0.838  12.224  22.314  0.00  0.00    +0.000 A 
ATOM     27  C   UNL     1      -2.017  11.671  22.850  0.00  0.00    +0.000 A 
ATOM     28  C   UNL     1      -2.932  12.460  23.550  0.00  0.00    +0.000 A 
ATOM     29  C   UNL     1      -2.682  13.816  23.739  0.00  0.00    +0.000 A 
ATOM     30  C   UNL     1      -1.528  14.385  23.206  0.00  0.00    +0.000 A 
ATOM     31  C   UNL     1      -0.619  13.603  22.485  0.00  0.00    +0.000 A 
ATOM     32 CL   UNL     1       0.752  14.420  21.822  0.00  0.00    +0.000 Cl
ENDBRANCH  25  26
ENDBRANCH  22  25
ENDBRANCH   1  17
TORSDOF 4
ENDMDL
MODEL 2
REMARK VINA RESULT:      -8.6      1.268      1.472
REMARK  Name = 
REMARK  4 active torsions:
REMARK  status: ('A' for Active; 'I' for Inactive)
REMARK    1  A    between atoms: C_4  and  C_5
REMARK    2  A    between atoms: C_5  and  C_6
REMARK    3  A    between atoms: N_11  and  C_12
REMARK    4  A    between atoms: C_12  and  C_13
REMARK                            x       y       z     vdW  Elec       q    Type
REMARK                         _______ _______ _______ _____ _____    ______ ____
ROOT
ATOM      1  C   UNL     1       3.533   6.288  19.017  0.00  0.00    +0.000 C 
ENDROOT
BRANCH   1   5
ATOM      2  O   UNL     1       2.030   3.170  16.658  0.00  0.00    +0.000 OA
ATOM      3  C   UNL     1       2.727   3.654  17.545  0.00  0.00    +0.000 C 
ATOM      4  N   UNL     1       3.725   4.527  17.228  0.00  0.00    +0.000 N 
ATOM      5  C   UNL     1       4.425   5.392  18.159  0.00  0.00    +0.000 C 
ATOM      6  C   UNL     1       5.350   4.535  19.028  0.00  0.00    +0.000 C 
ATOM      7  O   UNL     1       6.526   4.861  19.217  0.00  0.00    +0.000 OA
ATOM      8  N   UNL     1       4.831   3.502  19.765  0.00  0.00    +0.000 N 
ATOM      9  C   UNL     1       3.474   3.168  19.930  0.00  0.00    +0.000 A 
ATOM     10  C   UNL     1       3.113   2.724  21.211  0.00  0.00    +0.000 A 
ATOM     11  C   UNL     1       1.770   2.559  21.558  0.00  0.00    +0.000 A 
ATOM     12  C   UNL     1       0.773   2.791  20.617  0.00  0.00    +0.000 A 
ATOM     13  C   UNL     1       1.122   3.139  19.315  0.00  0.00    +0.000 A 
ATOM     14  C   UNL     1       2.470   3.320  18.961  0.00  0.00    +0.000 A 
ATOM     15  H   UNL     1       3.697   4.806  16.253  0.00  0.00    +0.000 HD
ATOM     16  H   UNL     1       5.496   3.152  20.444  0.00  0.00    +0.000 HD
ENDBRANCH   1   5
BRANCH   1  17
ATOM     17  C   UNL     1       3.117   7.543  18.283  0.00  0.00    +0.000 C 
ATOM     18  O   UNL     1       3.597   7.792  17.178  0.00  0.00    +0.000 OA
ATOM     19  N   UNL     1       2.122   8.322  18.838  0.00  0.00    +0.000 N 
ATOM     20  C   UNL     1       1.566   9.423  18.041  0.00  0.00    +0.000 C 
ATOM     21  C   UNL     1       0.084   9.704  18.393  0.00  0.00    +0.000 C 
ATOM     22  N   UNL     1      -0.226   9.793  19.845  0.00  0.00    +0.000 NA
ATOM     23  C   UNL     1       0.336   8.595  20.508  0.00  0.00    +0.000 C 
ATOM     24  C   UNL     1       1.838   8.408  20.271  0.00  0.00    +0.000 C 
BRANCH  22  25
ATOM     25  C   UNL     1       0.287  11.060  20.412  0.00  0.00    +0.000 C 
BRANCH  25  26
ATOM     26  C   UNL     1      -0.750  11.856  21.185  0.00  0.00    +0.000 A 
ATOM     27  C   UNL     1      -1.269  13.029  20.606  0.00  0.00    +0.000 A 
ATOM     28  C   UNL     1      -2.238  13.791  21.261  0.00  0.00    +0.000 A 
ATOM     29  C   UNL     1      -2.718  13.389  22.504  0.00  0.00    +0.000 A 
ATOM     30  C   UNL     1      -2.209  12.238  23.100  0.00  0.00    +0.000 A 
ATOM     31  C   UNL     1      -1.222  11.483  22.457  0.00  0.00    +0.000 A 
ATOM     32 CL   UNL     1      -0.622  10.103  23.308  0.00  0.00    +0.000 Cl
ENDBRANCH  25  26
ENDBRANCH  22  25
ENDBRANCH   1  17
TORSDOF 4
ENDMDL
MODEL 3
REMARK VINA RESULT:      -8.1      1.038      1.056
REMARK  Name = 
REMARK  4 active torsions:
REMARK  status: ('A' for Active; 'I' for Inactive)
REMARK    1  A    between atoms: C_4  and  C_5
REMARK    2  A    between atoms: C_5  and  C_6
REMARK    3  A    between atoms: N_11  and  C_12
REMARK    4  A    between atoms: C_12  and  C_13
REMARK                            x       y       z     vdW  Elec       q    Type
REMARK                         _______ _______ _______ _____ _____    ______ ____
ROOT
ATOM      1  C   UNL     1       3.046   6.615  19.130  0.00  0.00    +0.000 C 
ENDROOT
BRANCH   1   5
ATOM      2  O   UNL     1       2.081   3.412  16.609  0.00  0.00    +0.000 OA
ATOM      3  C   UNL     1       2.655   3.948  17.553  0.00  0.00    +0.000 C 
ATOM      4  N   UNL     1       3.563   4.939  17.325  0.00  0.00    +0.000 N 
ATOM      5  C   UNL     1       4.092   5.852  18.319  0.00  0.00    +0.000 C 
ATOM      6  C   UNL     1       5.050   5.084  19.234  0.00  0.00    +0.000 C 
ATOM      7  O   UNL     1       6.165   5.537  19.512  0.00  0.00    +0.000 OA
ATOM      8  N   UNL     1       4.607   3.977  19.912  0.00  0.00    +0.000 N 
ATOM      9  C   UNL     1       3.291   3.485  19.974  0.00  0.00    +0.000 A 
ATOM     10  C   UNL     1       2.898   2.966  21.218  0.00  0.00    +0.000 A 
ATOM     11  C   UNL     1       1.563   2.638  21.466  0.00  0.00    +0.000 A 
ATOM     12  C   UNL     1       0.612   2.780  20.462  0.00  0.00    +0.000 A 
ATOM     13  C   UNL     1       1.005   3.202  19.195  0.00  0.00    +0.000 A 
ATOM     14  C   UNL     1       2.343   3.547  18.940  0.00  0.00    +0.000 A 
ATOM     15  H   UNL     1       3.569   5.239  16.355  0.00  0.00    +0.000 HD
ATOM     16  H   UNL     1       5.260   3.687  20.629  0.00  0.00    +0.000 HD
ENDBRANCH   1   5
BRANCH   1  17
ATOM     17  C   UNL     1       2.586   7.870  18.423  0.00  0.00    +0.000 C 
ATOM     18  O   UNL     1       2.963   8.097  17.274  0.00  0.00    +0.000 OA
ATOM     19  N   UNL     1       1.664   8.676  19.060  0.00  0.00    +0.000 N 
ATOM     20  C   UNL     1       1.056   9.779  18.306  0.00  0.00    +0.000 C 
ATOM     21  C   UNL     1      -0.380  10.094  18.793  0.00  0.00    +0.000 C 
ATOM     22  N   UNL     1      -0.548  10.205  20.267  0.00  0.00    +0.000 NA
ATOM     23  C   UNL     1       0.052   9.004  20.889  0.00  0.00    +0.000 C 
ATOM     24  C   UNL     1       1.520   8.783  20.512  0.00  0.00    +0.000 C 
BRANCH  22  25
ATOM     25  C   UNL     1       0.042  11.468  20.766  0.00  0.00    +0.000 C 
BRANCH  25  26
ATOM     26  C   UNL     1      -0.974  12.573  21.002  0.00  0.00    +0.000 A 
ATOM     27  C   UNL     1      -2.055  12.321  21.868  0.00  0.00    +0.000 A 
ATOM     28  C   UNL     1      -3.009  13.305  22.138  0.00  0.00    +0.000 A 
ATOM     29  C   UNL     1      -2.896  14.564  21.556  0.00  0.00    +0.000 A 
ATOM     30  C   UNL     1      -1.841  14.830  20.686  0.00  0.00    +0.000 A 
ATOM     31  C   UNL     1      -0.895  13.840  20.396  0.00  0.00    +0.000 A 
ATOM     32 CL   UNL     1       0.343  14.257  19.263  0.00  0.00    +0.000 Cl
ENDBRANCH  25  26
ENDBRANCH  22  25
ENDBRANCH   1  17
TORSDOF 4
ENDMDL
MODEL 4
REMARK VINA RESULT:      -8.0      2.808      4.594
REMARK  Name = 
REMARK  4 active torsions:
REMARK  status: ('A' for Active; 'I' for Inactive)
REMARK    1  A    between atoms: C_4  and  C_5
REMARK    2  A    between atoms: C_5  and  C_6
REMARK    3  A    between atoms: N_11  and  C_12
REMARK    4  A    between atoms: C_12  and  C_13
REMARK                            x       y       z     vdW  Elec       q    Type
REMARK                         _______ _______ _______ _____ _____    ______ ____
ROOT
ATOM      1  C   UNL     1       3.838   5.676  18.795  0.00  0.00    +0.000 C 
ENDROOT
BRANCH   1   5
ATOM      2  O   UNL     1       7.979   5.043  18.766  0.00  0.00    +0.000 OA
ATOM      3  C   UNL     1       6.810   4.756  18.524  0.00  0.00    +0.000 C 
ATOM      4  N   UNL     1       5.941   4.515  19.546  0.00  0.00    +0.000 N 
ATOM      5  C   UNL     1       4.497   4.456  19.438  0.00  0.00    +0.000 C 
ATOM      6  C   UNL     1       4.108   3.168  18.706  0.00  0.00    +0.000 C 
ATOM      7  O   UNL     1       3.219   2.431  19.144  0.00  0.00    +0.000 OA
ATOM      8  N   UNL     1       4.608   2.917  17.454  0.00  0.00    +0.000 N 
ATOM      9  C   UNL     1       5.384   3.777  16.656  0.00  0.00    +0.000 A 
ATOM     10  C   UNL     1       5.105   3.741  15.281  0.00  0.00    +0.000 A 
ATOM     11  C   UNL     1       5.657   4.688  14.415  0.00  0.00    +0.000 A 
ATOM     12  C   UNL     1       6.531   5.653  14.902  0.00  0.00    +0.000 A 
ATOM     13  C   UNL     1       6.891   5.640  16.247  0.00  0.00    +0.000 A 
ATOM     14  C   UNL     1       6.331   4.700  17.128  0.00  0.00    +0.000 A 
ATOM     15  H   UNL     1       6.338   4.744  20.451  0.00  0.00    +0.000 HD
ATOM     16  H   UNL     1       4.124   2.151  17.001  0.00  0.00    +0.000 HD
ENDBRANCH   1   5
BRANCH   1  17
ATOM     17  C   UNL     1       2.691   6.205  19.627  0.00  0.00    +0.000 C 
ATOM     18  O   UNL     1       2.333   5.593  20.633  0.00  0.00    +0.000 OA
ATOM     19  N   UNL     1       2.147   7.426  19.284  0.00  0.00    +0.000 N 
ATOM     20  C   UNL     1       1.179   8.045  20.199  0.00  0.00    +0.000 C 
ATOM     21  C   UNL     1       1.222   9.592  20.131  0.00  0.00    +0.000 C 
ATOM     22  N   UNL     1       1.219  10.174  18.761  0.00  0.00    +0.000 NA
ATOM     23  C   UNL     1       2.277   9.505  17.975  0.00  0.00    +0.000 C 
ATOM     24  C   UNL     1       2.139   7.979  17.929  0.00  0.00    +0.000 C 
BRANCH  22  25
ATOM     25  C   UNL     1      -0.122  10.052  18.147  0.00  0.00    +0.000 C 
BRANCH  25  26
ATOM     26  C   UNL     1      -1.162  10.986  18.742  0.00  0.00    +0.000 A 
ATOM     27  C   UNL     1      -0.741  11.968  19.659  0.00  0.00    +0.000 A 
ATOM     28  C   UNL     1      -1.649  12.866  20.224  0.00  0.00    +0.000 A 
ATOM     29  C   UNL     1      -2.995  12.809  19.875  0.00  0.00    +0.000 A 
ATOM     30  C   UNL     1      -3.434  11.837  18.979  0.00  0.00    +0.000 A 
ATOM     31  C   UNL     1      -2.531  10.921  18.427  0.00  0.00    +0.000 A 
ATOM     32 CL   UNL     1      -3.190   9.724  17.368  0.00  0.00    +0.000 Cl
ENDBRANCH  25  26
ENDBRANCH  22  25
ENDBRANCH   1  17
TORSDOF 4
ENDMDL
MODEL 5
REMARK VINA RESULT:      -7.9      1.361      1.775
REMARK  Name = 
REMARK  4 active torsions:
REMARK  status: ('A' for Active; 'I' for Inactive)
REMARK    1  A    between atoms: C_4  and  C_5
REMARK    2  A    between atoms: C_5  and  C_6
REMARK    3  A    between atoms: N_11  and  C_12
REMARK    4  A    between atoms: C_12  and  C_13
REMARK                            x       y       z     vdW  Elec       q    Type
REMARK                         _______ _______ _______ _____ _____    ______ ____
ROOT
ATOM      1  C   UNL     1       2.778   6.547  19.065  0.00  0.00    +0.000 C 
ENDROOT
BRANCH   1   5
ATOM      2  O   UNL     1       2.092   3.229  16.600  0.00  0.00    +0.000 OA
ATOM      3  C   UNL     1       2.611   3.827  17.539  0.00  0.00    +0.000 C 
ATOM      4  N   UNL     1       3.444   4.879  17.301  0.00  0.00    +0.000 N 
ATOM      5  C   UNL     1       3.889   5.849  18.282  0.00  0.00    +0.000 C 
ATOM      6  C   UNL     1       4.890   5.175  19.225  0.00  0.00    +0.000 C 
ATOM      7  O   UNL     1       5.963   5.717  19.507  0.00  0.00    +0.000 OA
ATOM      8  N   UNL     1       4.523   4.052  19.921  0.00  0.00    +0.000 N 
ATOM      9  C   UNL     1       3.247   3.462  19.977  0.00  0.00    +0.000 A 
ATOM     10  C   UNL     1       2.878   2.940  21.227  0.00  0.00    +0.000 A 
ATOM     11  C   UNL     1       1.568   2.516  21.466  0.00  0.00    +0.000 A 
ATOM     12  C   UNL     1       0.623   2.565  20.447  0.00  0.00    +0.000 A 
ATOM     13  C   UNL     1       1.000   2.991  19.177  0.00  0.00    +0.000 A 
ATOM     14  C   UNL     1       2.312   3.431  18.931  0.00  0.00    +0.000 A 
ATOM     15  H   UNL     1       3.441   5.160  16.326  0.00  0.00    +0.000 HD
ATOM     16  H   UNL     1       5.187   3.826  20.652  0.00  0.00    +0.000 HD
ENDBRANCH   1   5
BRANCH   1  17
ATOM     17  C   UNL     1       2.455   7.911  18.497  0.00  0.00    +0.000 C 
ATOM     18  O   UNL     1       2.870   8.222  17.381  0.00  0.00    +0.000 OA
ATOM     19  N   UNL     1       1.609   8.731  19.214  0.00  0.00    +0.000 N 
ATOM     20  C   UNL     1       1.125   9.966  18.582  0.00  0.00    +0.000 C 
ATOM     21  C   UNL     1      -0.280  10.369  19.095  0.00  0.00    +0.000 C 
ATOM     22  N   UNL     1      -0.458  10.336  20.572  0.00  0.00    +0.000 NA
ATOM     23  C   UNL     1       0.010   9.020  21.061  0.00  0.00    +0.000 C 
ATOM     24  C   UNL     1       1.454   8.695  20.669  0.00  0.00    +0.000 C 
BRANCH  22  25
ATOM     25  C   UNL     1       0.246  11.471  21.208  0.00  0.00    +0.000 C 
BRANCH  25  26
ATOM     26  C   UNL     1      -0.320  12.833  20.841  0.00  0.00    +0.000 A 
ATOM     27  C   UNL     1       0.425  13.665  19.985  0.00  0.00    +0.000 A 
ATOM     28  C   UNL     1      -0.053  14.919  19.599  0.00  0.00    +0.000 A 
ATOM     29  C   UNL     1      -1.292  15.362  20.052  0.00  0.00    +0.000 A 
ATOM     30  C   UNL     1      -2.041  14.559  20.909  0.00  0.00    +0.000 A 
ATOM     31  C   UNL     1      -1.555  13.311  21.317  0.00  0.00    +0.000 A 
ATOM     32 CL   UNL     1      -2.538  12.419  22.424  0.00  0.00    +0.000 Cl
ENDBRANCH  25  26
ENDBRANCH  22  25
ENDBRANCH   1  17
TORSDOF 4
ENDMDL
MODEL 6
REMARK VINA RESULT:      -7.8      1.794      2.087
REMARK  Name = 
REMARK  4 active torsions:
REMARK  status: ('A' for Active; 'I' for Inactive)
REMARK    1  A    between atoms: C_4  and  C_5
REMARK    2  A    between atoms: C_5  and  C_6
REMARK    3  A    between atoms: N_11  and  C_12
REMARK    4  A    between atoms: C_12  and  C_13
REMARK                            x       y       z     vdW  Elec       q    Type
REMARK                         _______ _______ _______ _____ _____    ______ ____
ROOT
ATOM      1  C   UNL     1       3.844   6.366  18.602  0.00  0.00    +0.000 C 
ENDROOT
BRANCH   1   5
ATOM      2  O   UNL     1       4.536   3.954  15.247  0.00  0.00    +0.000 OA
ATOM      3  C   UNL     1       4.613   4.252  16.436  0.00  0.00    +0.000 C 
ATOM      4  N   UNL     1       5.308   5.360  16.818  0.00  0.00    +0.000 N 
ATOM      5  C   UNL     1       5.246   5.995  18.120  0.00  0.00    +0.000 C 
ATOM      6  C   UNL     1       5.963   5.104  19.138  0.00  0.00    +0.000 C 
ATOM      7  O   UNL     1       6.785   5.577  19.930  0.00  0.00    +0.000 OA
ATOM      8  N   UNL     1       5.559   3.806  19.314  0.00  0.00    +0.000 N 
ATOM      9  C   UNL     1       4.443   3.174  18.736  0.00  0.00    +0.000 A 
ATOM     10  C   UNL     1       3.761   2.273  19.569  0.00  0.00    +0.000 A 
ATOM     11  C   UNL     1       2.528   1.741  19.187  0.00  0.00    +0.000 A 
ATOM     12  C   UNL     1       1.982   2.063  17.950  0.00  0.00    +0.000 A 
ATOM     13  C   UNL     1       2.694   2.879  17.074  0.00  0.00    +0.000 A 
ATOM     14  C   UNL     1       3.929   3.429  17.455  0.00  0.00    +0.000 A 
ATOM     15  H   UNL     1       5.589   5.930  16.026  0.00  0.00    +0.000 HD
ATOM     16  H   UNL     1       5.967   3.393  20.144  0.00  0.00    +0.000 HD
ENDBRANCH   1   5
BRANCH   1  17
ATOM     17  C   UNL     1       3.359   7.661  17.990  0.00  0.00    +0.000 C 
ATOM     18  O   UNL     1       3.805   8.028  16.903  0.00  0.00    +0.000 OA
ATOM     19  N   UNL     1       2.344   8.343  18.629  0.00  0.00    +0.000 N 
ATOM     20  C   UNL     1       1.725   9.485  17.944  0.00  0.00    +0.000 C 
ATOM     21  C   UNL     1       0.240   9.668  18.344  0.00  0.00    +0.000 C 
ATOM     22  N   UNL     1      -0.043   9.613  19.804  0.00  0.00    +0.000 NA
ATOM     23  C   UNL     1       0.584   8.388  20.347  0.00  0.00    +0.000 C 
ATOM     24  C   UNL     1       2.087   8.290  20.069  0.00  0.00    +0.000 C 
BRANCH  22  25
ATOM     25  C   UNL     1       0.428  10.847  20.472  0.00  0.00    +0.000 C 
BRANCH  25  26
ATOM     26  C   UNL     1      -0.647  11.564  21.271  0.00  0.00    +0.000 A 
ATOM     27  C   UNL     1      -1.265  12.695  20.706  0.00  0.00    +0.000 A 
ATOM     28  C   UNL     1      -2.272  13.384  21.386  0.00  0.00    +0.000 A 
ATOM     29  C   UNL     1      -2.689  12.949  22.640  0.00  0.00    +0.000 A 
ATOM     30  C   UNL     1      -2.082  11.840  23.223  0.00  0.00    +0.000 A 
ATOM     31  C   UNL     1      -1.058  11.160  22.555  0.00  0.00    +0.000 A 
ATOM     32 CL   UNL     1      -0.335   9.830  23.390  0.00  0.00    +0.000 Cl
ENDBRANCH  25  26
ENDBRANCH  22  25
ENDBRANCH   1  17
TORSDOF 4
ENDMDL
MODEL 7
REMARK VINA RESULT:      -7.8      3.566      9.289
REMARK  Name = 
REMARK  4 active torsions:
REMARK  status: ('A' for Active; 'I' for Inactive)
REMARK    1  A    between atoms: C_4  and  C_5
REMARK    2  A    between atoms: C_5  and  C_6
REMARK    3  A    between atoms: N_11  and  C_12
REMARK    4  A    between atoms: C_12  and  C_13
REMARK                            x       y       z     vdW  Elec       q    Type
REMARK                         _______ _______ _______ _____ _____    ______ ____
ROOT
ATOM      1  C   UNL     1       0.924   9.638  20.270  0.00  0.00    +0.000 C 
ENDROOT
BRANCH   1   5
ATOM      2  O   UNL     1      -1.239  12.273  17.835  0.00  0.00    +0.000 OA
ATOM      3  C   UNL     1      -0.629  11.945  18.849  0.00  0.00    +0.000 C 
ATOM      4  N   UNL     1      -1.125  10.965  19.657  0.00  0.00    +0.000 N 
ATOM      5  C   UNL     1      -0.395  10.276  20.703  0.00  0.00    +0.000 C 
ATOM      6  C   UNL     1      -0.186  11.239  21.875  0.00  0.00    +0.000 C 
ATOM      7  O   UNL     1      -0.425  10.889  23.035  0.00  0.00    +0.000 OA
ATOM      8  N   UNL     1       0.454  12.434  21.672  0.00  0.00    +0.000 N 
ATOM      9  C   UNL     1       1.078  12.878  20.492  0.00  0.00    +0.000 A 
ATOM     10  C   UNL     1       2.265  13.605  20.673  0.00  0.00    +0.000 A 
ATOM     11  C   UNL     1       3.083  13.921  19.586  0.00  0.00    +0.000 A 
ATOM     12  C   UNL     1       2.703  13.557  18.299  0.00  0.00    +0.000 A 
ATOM     13  C   UNL     1       1.482  12.920  18.095  0.00  0.00    +0.000 A 
ATOM     14  C   UNL     1       0.659  12.587  19.184  0.00  0.00    +0.000 A 
ATOM     15  H   UNL     1      -1.919  10.489  19.241  0.00  0.00    +0.000 HD
ATOM     16  H   UNL     1       0.710  12.879  22.545  0.00  0.00    +0.000 HD
ENDBRANCH   1   5
BRANCH   1  17
ATOM     17  C   UNL     1       1.156   8.304  20.943  0.00  0.00    +0.000 C 
ATOM     18  O   UNL     1       0.727   8.110  22.080  0.00  0.00    +0.000 OA
ATOM     19  N   UNL     1       1.757   7.301  20.211  0.00  0.00    +0.000 N 
ATOM     20  C   UNL     1       1.801   5.947  20.778  0.00  0.00    +0.000 C 
ATOM     21  C   UNL     1       1.782   4.855  19.679  0.00  0.00    +0.000 C 
ATOM     22  N   UNL     1       2.725   5.068  18.547  0.00  0.00    +0.000 NA
ATOM     23  C   UNL     1       2.528   6.442  18.038  0.00  0.00    +0.000 C 
ATOM     24  C   UNL     1       2.693   7.526  19.108  0.00  0.00    +0.000 C 
BRANCH  22  25
ATOM     25  C   UNL     1       4.117   4.804  18.972  0.00  0.00    +0.000 C 
BRANCH  25  26
ATOM     26  C   UNL     1       5.098   4.661  17.821  0.00  0.00    +0.000 A 
ATOM     27  C   UNL     1       4.637   4.123  16.605  0.00  0.00    +0.000 A 
ATOM     28  C   UNL     1       5.487   3.986  15.506  0.00  0.00    +0.000 A 
ATOM     29  C   UNL     1       6.815   4.394  15.597  0.00  0.00    +0.000 A 
ATOM     30  C   UNL     1       7.295   4.918  16.795  0.00  0.00    +0.000 A 
ATOM     31  C   UNL     1       6.451   5.037  17.905  0.00  0.00    +0.000 A 
ATOM     32 CL   UNL     1       7.162   5.648  19.358  0.00  0.00    +0.000 Cl
ENDBRANCH  25  26
ENDBRANCH  22  25
ENDBRANCH   1  17
TORSDOF 4
ENDMDL
MODEL 8
REMARK VINA RESULT:      -7.6      3.774      9.292
REMARK  Name = 
REMARK  4 active torsions:
REMARK  status: ('A' for Active; 'I' for Inactive)
REMARK    1  A    between atoms: C_4  and  C_5
REMARK    2  A    between atoms: C_5  and  C_6
REMARK    3  A    between atoms: N_11  and  C_12
REMARK    4  A    between atoms: C_12  and  C_13
REMARK                            x       y       z     vdW  Elec       q    Type
REMARK                         _______ _______ _______ _____ _____    ______ ____
ROOT
ATOM      1  C   UNL     1      -0.411  10.048  20.038  0.00  0.00    +0.000 C 
ENDROOT
BRANCH   1   5
ATOM      2  O   UNL     1      -3.273  12.981  20.908  0.00  0.00    +0.000 OA
ATOM      3  C   UNL     1      -2.390  12.456  20.235  0.00  0.00    +0.000 C 
ATOM      4  N   UNL     1      -1.123  12.362  20.728  0.00  0.00    +0.000 N 
ATOM      5  C   UNL     1      -0.063  11.528  20.194  0.00  0.00    +0.000 C 
ATOM      6  C   UNL     1       0.417  12.126  18.869  0.00  0.00    +0.000 C 
ATOM      7  O   UNL     1       1.621  12.270  18.635  0.00  0.00    +0.000 OA
ATOM      8  N   UNL     1      -0.476  12.329  17.848  0.00  0.00    +0.000 N 
ATOM      9  C   UNL     1      -1.827  11.941  17.806  0.00  0.00    +0.000 A 
ATOM     10  C   UNL     1      -2.287  11.489  16.560  0.00  0.00    +0.000 A 
ATOM     11  C   UNL     1      -3.541  10.885  16.436  0.00  0.00    +0.000 A 
ATOM     12  C   UNL     1      -4.371  10.768  17.546  0.00  0.00    +0.000 A 
ATOM     13  C   UNL     1      -3.966  11.299  18.768  0.00  0.00    +0.000 A 
ATOM     14  C   UNL     1      -2.701  11.896  18.904  0.00  0.00    +0.000 A 
ATOM     15  H   UNL     1      -1.069  12.627  21.706  0.00  0.00    +0.000 HD
ATOM     16  H   UNL     1      -0.009  12.531  16.973  0.00  0.00    +0.000 HD
ENDBRANCH   1   5
BRANCH   1  17
ATOM     17  C   UNL     1       0.650   9.151  20.637  0.00  0.00    +0.000 C 
ATOM     18  O   UNL     1       0.724   9.024  21.858  0.00  0.00    +0.000 OA
ATOM     19  N   UNL     1       1.440   8.416  19.777  0.00  0.00    +0.000 N 
ATOM     20  C   UNL     1       2.328   7.392  20.343  0.00  0.00    +0.000 C 
ATOM     21  C   UNL     1       2.556   6.214  19.363  0.00  0.00    +0.000 C 
ATOM     22  N   UNL     1       2.889   6.598  17.965  0.00  0.00    +0.000 NA
ATOM     23  C   UNL     1       1.883   7.580  17.506  0.00  0.00    +0.000 C 
ATOM     24  C   UNL     1       1.770   8.813  18.408  0.00  0.00    +0.000 C 
BRANCH  22  25
ATOM     25  C   UNL     1       4.275   7.109  17.881  0.00  0.00    +0.000 C 
BRANCH  25  26
ATOM     26  C   UNL     1       5.229   6.190  17.138  0.00  0.00    +0.000 A 
ATOM     27  C   UNL     1       5.115   6.089  15.738  0.00  0.00    +0.000 A 
ATOM     28  C   UNL     1       5.976   5.275  15.000  0.00  0.00    +0.000 A 
ATOM     29  C   UNL     1       6.977   4.554  15.643  0.00  0.00    +0.000 A 
ATOM     30  C   UNL     1       7.100   4.631  17.029  0.00  0.00    +0.000 A 
ATOM     31  C   UNL     1       6.225   5.428  17.775  0.00  0.00    +0.000 A 
ATOM     32 CL   UNL     1       6.432   5.410  19.492  0.00  0.00    +0.000 Cl
ENDBRANCH  25  26
ENDBRANCH  22  25
ENDBRANCH   1  17
TORSDOF 4
ENDMDL
MODEL 9
REMARK VINA RESULT:      -7.5      1.786      2.058
REMARK  Name = 
REMARK  4 active torsions:
REMARK  status: ('A' for Active; 'I' for Inactive)
REMARK    1  A    between atoms: C_4  and  C_5
REMARK    2  A    between atoms: C_5  and  C_6
REMARK    3  A    between atoms: N_11  and  C_12
REMARK    4  A    between atoms: C_12  and  C_13
REMARK                            x       y       z     vdW  Elec       q    Type
REMARK                         _______ _______ _______ _____ _____    ______ ____
ROOT
ATOM      1  C   UNL     1       3.930   6.402  18.683  0.00  0.00    +0.000 C 
ENDROOT
BRANCH   1   5
ATOM      2  O   UNL     1       4.553   4.097  15.241  0.00  0.00    +0.000 OA
ATOM      3  C   UNL     1       4.649   4.354  16.438  0.00  0.00    +0.000 C 
ATOM      4  N   UNL     1       5.360   5.442  16.847  0.00  0.00    +0.000 N 
ATOM      5  C   UNL     1       5.322   6.034  18.170  0.00  0.00    +0.000 C 
ATOM      6  C   UNL     1       6.043   5.103  19.149  0.00  0.00    +0.000 C 
ATOM      7  O   UNL     1       6.879   5.541  19.945  0.00  0.00    +0.000 OA
ATOM      8  N   UNL     1       5.628   3.803  19.287  0.00  0.00    +0.000 N 
ATOM      9  C   UNL     1       4.498   3.201  18.703  0.00  0.00    +0.000 A 
ATOM     10  C   UNL     1       3.818   2.280  19.515  0.00  0.00    +0.000 A 
ATOM     11  C   UNL     1       2.574   1.773  19.131  0.00  0.00    +0.000 A 
ATOM     12  C   UNL     1       2.016   2.142  17.913  0.00  0.00    +0.000 A 
ATOM     13  C   UNL     1       2.724   2.979  17.056  0.00  0.00    +0.000 A 
ATOM     14  C   UNL     1       3.970   3.505  17.438  0.00  0.00    +0.000 A 
ATOM     15  H   UNL     1       5.636   6.036  16.072  0.00  0.00    +0.000 HD
ATOM     16  H   UNL     1       6.042   3.359  20.097  0.00  0.00    +0.000 HD
ENDBRANCH   1   5
BRANCH   1  17
ATOM     17  C   UNL     1       3.365   7.610  17.970  0.00  0.00    +0.000 C 
ATOM     18  O   UNL     1       3.758   7.891  16.838  0.00  0.00    +0.000 OA
ATOM     19  N   UNL     1       2.341   8.306  18.579  0.00  0.00    +0.000 N 
ATOM     20  C   UNL     1       1.647   9.349  17.813  0.00  0.00    +0.000 C 
ATOM     21  C   UNL     1       0.168   9.504  18.249  0.00  0.00    +0.000 C 
ATOM     22  N   UNL     1      -0.063   9.578  19.717  0.00  0.00    +0.000 NA
ATOM     23  C   UNL     1       0.637   8.439  20.349  0.00  0.00    +0.000 C 
ATOM     24  C   UNL     1       2.134   8.379  20.026  0.00  0.00    +0.000 C 
BRANCH  22  25
ATOM     25  C   UNL     1       0.370  10.889  20.248  0.00  0.00    +0.000 C 
BRANCH  25  26
ATOM     26  C   UNL     1      -0.717  11.643  20.995  0.00  0.00    +0.000 A 
ATOM     27  C   UNL     1      -0.668  11.677  22.401  0.00  0.00    +0.000 A 
ATOM     28  C   UNL     1      -1.629  12.370  23.141  0.00  0.00    +0.000 A 
ATOM     29  C   UNL     1      -2.652  13.052  22.489  0.00  0.00    +0.000 A 
ATOM     30  C   UNL     1      -2.725  13.021  21.099  0.00  0.00    +0.000 A 
ATOM     31  C   UNL     1      -1.777  12.310  20.355  0.00  0.00    +0.000 A 
ATOM     32 CL   UNL     1      -1.992  12.291  18.639  0.00  0.00    +0.000 Cl
ENDBRANCH  25  26
ENDBRANCH  22  25
ENDBRANCH   1  17
TORSDOF 4
ENDMDL
