MODEL 1
REMARK VINA RESULT:      -8.8      0.000      0.000
REMARK  Name = 
REMARK  5 active torsions:
REMARK  status: ('A' for Active; 'I' for Inactive)
REMARK    1  A    between atoms: C_2  and  C_3
REMARK    2  A    between atoms: C_3  and  C_4
REMARK    3  A    between atoms: C_4  and  C_5
REMARK    4  A    between atoms: N_22  and  C_23
REMARK    5  A    between atoms: C_23  and  C_24
REMARK                            x       y       z     vdW  Elec       q    Type
REMARK                         _______ _______ _______ _____ _____    ______ ____
ROOT
ATOM      1  C   UNL     1       4.709   6.515  16.985  0.00  0.00    +0.000 C 
ATOM      2  O   UNL     1       4.411   7.208  16.010  0.00  0.00    +0.000 OA
ATOM      3  N   UNL     1       4.012   6.494  18.210  0.00  0.00    +0.000 N 
ATOM      4  C   UNL     1       4.365   5.538  19.265  0.00  0.00    +0.000 C 
ATOM      5  C   UNL     1       3.255   4.580  19.540  0.00  0.00    +0.000 A 
ATOM      6  C   UNL     1       3.302   3.235  19.158  0.00  0.00    +0.000 A 
ATOM      7  C   UNL     1       2.256   2.381  19.502  0.00  0.00    +0.000 A 
ATOM      8  C   UNL     1       1.166   2.868  20.226  0.00  0.00    +0.000 A 
ATOM      9  C   UNL     1       1.112   4.216  20.591  0.00  0.00    +0.000 A 
ATOM     10  C   UNL     1       2.147   5.069  20.218  0.00  0.00    +0.000 A 
ATOM     11  O   UNL     1       2.143   6.368  20.647  0.00  0.00    +0.000 OA
ATOM     12  C   UNL     1       2.102   7.353  19.684  0.00  0.00    +0.000 A 
ATOM     13  N   UNL     1       1.190   8.304  20.038  0.00  0.00    +0.000 NA
ATOM     14  C   UNL     1       1.018   9.354  19.221  0.00  0.00    +0.000 A 
ATOM     15  C   UNL     1       1.718   9.512  18.050  0.00  0.00    +0.000 A 
ATOM     16  C   UNL     1       2.672   8.550  17.713  0.00  0.00    +0.000 A 
ATOM     17  C   UNL     1       2.926   7.432  18.529  0.00  0.00    +0.000 A 
ENDROOT
BRANCH   1  18
ATOM     18  C   UNL     1       5.886   5.561  16.825  0.00  0.00    +0.000 C 
BRANCH  18  19
ATOM     19  C   UNL     1       7.193   6.303  16.571  0.00  0.00    +0.000 C 
BRANCH  19  21
ATOM     20  O   UNL     1       7.748   6.326  18.922  0.00  0.00    +0.000 OA
ATOM     21  C   UNL     1       7.707   6.924  17.855  0.00  0.00    +0.000 C 
ATOM     22  N   UNL     1       8.110   8.228  17.685  0.00  0.00    +0.000 N 
ATOM     23  H   UNL     1       8.071   8.647  16.765  0.00  0.00    +0.000 HD
BRANCH  22  24
ATOM     24  C   UNL     1       8.651   9.019  18.768  0.00  0.00    +0.000 C 
BRANCH  24  25
ATOM     25  C   UNL     1       9.027  10.397  18.294  0.00  0.00    +0.000 A 
ATOM     26  C   UNL     1      10.377  10.748  18.135  0.00  0.00    +0.000 A 
ATOM     27  C   UNL     1      10.739  12.031  17.720  0.00  0.00    +0.000 A 
ATOM     28  C   UNL     1       9.753  12.985  17.472  0.00  0.00    +0.000 A 
ATOM     29  C   UNL     1       8.411  12.649  17.635  0.00  0.00    +0.000 A 
ATOM     30 CL   UNL     1       7.195  13.833  17.347  0.00  0.00    +0.000 Cl
ATOM     31  C   UNL     1       8.044  11.364  18.040  0.00  0.00    +0.000 A 
ENDBRANCH  24  25
ENDBRANCH  22  24
ENDBRANCH  19  21
ENDBRANCH  18  19
ENDBRANCH   1  18
TORSDOF 5
ENDMDL
MODEL 2
REMARK VINA RESULT:      -8.6      4.315      7.645
REMARK  Name = 
REMARK  5 active torsions:
REMARK  status: ('A' for Active; 'I' for Inactive)
REMARK    1  A    between atoms: C_2  and  C_3
REMARK    2  A    between atoms: C_3  and  C_4
REMARK    3  A    between atoms: C_4  and  C_5
REMARK    4  A    between atoms: N_22  and  C_23
REMARK    5  A    between atoms: C_23  and  C_24
REMARK                            x       y       z     vdW  Elec       q    Type
REMARK                         _______ _______ _______ _____ _____    ______ ____
ROOT
ATOM      1  C   UNL     1       2.802   7.641  17.935  0.00  0.00    +0.000 C 
ATOM      2  O   UNL     1       3.723   8.437  17.741  0.00  0.00    +0.000 OA
ATOM      3  N   UNL     1       2.890   6.243  17.781  0.00  0.00    +0.000 N 
ATOM      4  C   UNL     1       1.776   5.368  18.163  0.00  0.00    +0.000 C 
ATOM      5  C   UNL     1       2.144   4.459  19.287  0.00  0.00    +0.000 A 
ATOM      6  C   UNL     1       1.654   4.623  20.587  0.00  0.00    +0.000 A 
ATOM      7  C   UNL     1       1.990   3.699  21.575  0.00  0.00    +0.000 A 
ATOM      8  C   UNL     1       2.813   2.615  21.266  0.00  0.00    +0.000 A 
ATOM      9  C   UNL     1       3.318   2.464  19.972  0.00  0.00    +0.000 A 
ATOM     10  C   UNL     1       3.002   3.406  18.999  0.00  0.00    +0.000 A 
ATOM     11  O   UNL     1       3.419   3.215  17.710  0.00  0.00    +0.000 OA
ATOM     12  C   UNL     1       4.258   4.166  17.169  0.00  0.00    +0.000 A 
ATOM     13  N   UNL     1       5.285   3.553  16.514  0.00  0.00    +0.000 NA
ATOM     14  C   UNL     1       6.204   4.323  15.910  0.00  0.00    +0.000 A 
ATOM     15  C   UNL     1       6.153   5.696  15.924  0.00  0.00    +0.000 A 
ATOM     16  C   UNL     1       5.080   6.313  16.570  0.00  0.00    +0.000 A 
ATOM     17  C   UNL     1       4.065   5.573  17.206  0.00  0.00    +0.000 A 
ENDROOT
BRANCH   1  18
ATOM     18  C   UNL     1       1.484   8.215  18.442  0.00  0.00    +0.000 C 
BRANCH  18  19
ATOM     19  C   UNL     1       1.511   8.467  19.945  0.00  0.00    +0.000 C 
BRANCH  19  21
ATOM     20  O   UNL     1       1.012  10.425  21.268  0.00  0.00    +0.000 OA
ATOM     21  C   UNL     1       0.768   9.745  20.280  0.00  0.00    +0.000 C 
ATOM     22  N   UNL     1      -0.207  10.044  19.359  0.00  0.00    +0.000 N 
ATOM     23  H   UNL     1      -0.333   9.448  18.552  0.00  0.00    +0.000 HD
BRANCH  22  24
ATOM     24  C   UNL     1      -1.035  11.225  19.464  0.00  0.00    +0.000 C 
BRANCH  24  25
ATOM     25  C   UNL     1      -2.145  11.199  18.448  0.00  0.00    +0.000 A 
ATOM     26  C   UNL     1      -3.417  11.695  18.774  0.00  0.00    +0.000 A 
ATOM     27  C   UNL     1      -4.461  11.653  17.848  0.00  0.00    +0.000 A 
ATOM     28  C   UNL     1      -4.248  11.101  16.585  0.00  0.00    +0.000 A 
ATOM     29  C   UNL     1      -2.991  10.600  16.255  0.00  0.00    +0.000 A 
ATOM     30 CL   UNL     1      -2.734   9.901  14.702  0.00  0.00    +0.000 Cl
ATOM     31  C   UNL     1      -1.942  10.648  17.174  0.00  0.00    +0.000 A 
ENDBRANCH  24  25
ENDBRANCH  22  24
ENDBRANCH  19  21
ENDBRANCH  18  19
ENDBRANCH   1  18
TORSDOF 5
ENDMDL
MODEL 3
REMARK VINA RESULT:      -8.6      3.237      7.081
REMARK  Name = 
REMARK  5 active torsions:
REMARK  status: ('A' for Active; 'I' for Inactive)
REMARK    1  A    between atoms: C_2  and  C_3
REMARK    2  A    between atoms: C_3  and  C_4
REMARK    3  A    between atoms: C_4  and  C_5
REMARK    4  A    between atoms: N_22  and  C_23
REMARK    5  A    between atoms: C_23  and  C_24
REMARK                            x       y       z     vdW  Elec       q    Type
REMARK                         _______ _______ _______ _____ _____    ______ ____
ROOT
ATOM      1  C   UNL     1       4.628   3.278  18.169  0.00  0.00    +0.000 C 
ATOM      2  O   UNL     1       5.170   2.875  19.200  0.00  0.00    +0.000 OA
ATOM      3  N   UNL     1       5.100   4.334  17.363  0.00  0.00    +0.000 N 
ATOM      4  C   UNL     1       4.458   4.655  16.084  0.00  0.00    +0.000 C 
ATOM      5  C   UNL     1       5.377   4.434  14.930  0.00  0.00    +0.000 A 
ATOM      6  C   UNL     1       5.228   3.369  14.035  0.00  0.00    +0.000 A 
ATOM      7  C   UNL     1       6.086   3.259  12.942  0.00  0.00    +0.000 A 
ATOM      8  C   UNL     1       7.090   4.208  12.744  0.00  0.00    +0.000 A 
ATOM      9  C   UNL     1       7.249   5.260  13.650  0.00  0.00    +0.000 A 
ATOM     10  C   UNL     1       6.407   5.347  14.754  0.00  0.00    +0.000 A 
ATOM     11  O   UNL     1       6.500   6.423  15.594  0.00  0.00    +0.000 OA
ATOM     12  C   UNL     1       6.826   6.172  16.910  0.00  0.00    +0.000 A 
ATOM     13  N   UNL     1       7.777   7.057  17.325  0.00  0.00    +0.000 NA
ATOM     14  C   UNL     1       8.214   6.973  18.591  0.00  0.00    +0.000 A 
ATOM     15  C   UNL     1       7.746   6.038  19.482  0.00  0.00    +0.000 A 
ATOM     16  C   UNL     1       6.750   5.156  19.056  0.00  0.00    +0.000 A 
ATOM     17  C   UNL     1       6.225   5.197  17.751  0.00  0.00    +0.000 A 
ENDROOT
BRANCH   1  18
ATOM     18  C   UNL     1       3.385   2.532  17.700  0.00  0.00    +0.000 C 
BRANCH  18  19
ATOM     19  C   UNL     1       2.628   1.896  18.860  0.00  0.00    +0.000 C 
BRANCH  19  21
ATOM     20  O   UNL     1       0.568   2.908  19.613  0.00  0.00    +0.000 OA
ATOM     21  C   UNL     1       1.791   2.936  19.579  0.00  0.00    +0.000 C 
ATOM     22  N   UNL     1       2.558   3.908  20.176  0.00  0.00    +0.000 N 
ATOM     23  H   UNL     1       3.567   3.849  20.128  0.00  0.00    +0.000 HD
BRANCH  22  24
ATOM     24  C   UNL     1       1.978   4.996  20.932  0.00  0.00    +0.000 C 
BRANCH  24  25
ATOM     25  C   UNL     1       1.972   6.269  20.129  0.00  0.00    +0.000 A 
ATOM     26  C   UNL     1       2.530   6.298  18.842  0.00  0.00    +0.000 A 
ATOM     27  C   UNL     1       2.552   7.479  18.098  0.00  0.00    +0.000 A 
ATOM     28  C   UNL     1       2.024   8.651  18.639  0.00  0.00    +0.000 A 
ATOM     29  C   UNL     1       1.475   8.634  19.918  0.00  0.00    +0.000 A 
ATOM     30 CL   UNL     1       0.841  10.085  20.593  0.00  0.00    +0.000 Cl
ATOM     31  C   UNL     1       1.442   7.453  20.663  0.00  0.00    +0.000 A 
ENDBRANCH  24  25
ENDBRANCH  22  24
ENDBRANCH  19  21
ENDBRANCH  18  19
ENDBRANCH   1  18
TORSDOF 5
ENDMDL
MODEL 4
REMARK VINA RESULT:      -8.6      4.389      7.755
REMARK  Name = 
REMARK  5 active torsions:
REMARK  status: ('A' for Active; 'I' for Inactive)
REMARK    1  A    between atoms: C_2  and  C_3
REMARK    2  A    between atoms: C_3  and  C_4
REMARK    3  A    between atoms: C_4  and  C_5
REMARK    4  A    between atoms: N_22  and  C_23
REMARK    5  A    between atoms: C_23  and  C_24
REMARK                            x       y       z     vdW  Elec       q    Type
REMARK                         _______ _______ _______ _____ _____    ______ ____
ROOT
ATOM      1  C   UNL     1       2.919   7.554  17.798  0.00  0.00    +0.000 C 
ATOM      2  O   UNL     1       3.797   8.409  17.672  0.00  0.00    +0.000 OA
ATOM      3  N   UNL     1       3.117   6.163  17.685  0.00  0.00    +0.000 N 
ATOM      4  C   UNL     1       2.036   5.217  17.982  0.00  0.00    +0.000 C 
ATOM      5  C   UNL     1       2.360   4.354  19.155  0.00  0.00    +0.000 A 
ATOM      6  C   UNL     1       1.741   4.504  20.401  0.00  0.00    +0.000 A 
ATOM      7  C   UNL     1       2.047   3.622  21.436  0.00  0.00    +0.000 A 
ATOM      8  C   UNL     1       2.969   2.595  21.228  0.00  0.00    +0.000 A 
ATOM      9  C   UNL     1       3.601   2.459  19.990  0.00  0.00    +0.000 A 
ATOM     10  C   UNL     1       3.311   3.360  18.970  0.00  0.00    +0.000 A 
ATOM     11  O   UNL     1       3.858   3.179  17.730  0.00  0.00    +0.000 OA
ATOM     12  C   UNL     1       4.676   4.178  17.246  0.00  0.00    +0.000 A 
ATOM     13  N   UNL     1       5.800   3.629  16.702  0.00  0.00    +0.000 NA
ATOM     14  C   UNL     1       6.715   4.453  16.167  0.00  0.00    +0.000 A 
ATOM     15  C   UNL     1       6.569   5.818  16.146  0.00  0.00    +0.000 A 
ATOM     16  C   UNL     1       5.400   6.368  16.678  0.00  0.00    +0.000 A 
ATOM     17  C   UNL     1       4.384   5.569  17.235  0.00  0.00    +0.000 A 
ENDROOT
BRANCH   1  18
ATOM     18  C   UNL     1       1.523   8.040  18.170  0.00  0.00    +0.000 C 
BRANCH  18  19
ATOM     19  C   UNL     1       1.521   8.825  19.477  0.00  0.00    +0.000 C 
BRANCH  19  21
ATOM     20  O   UNL     1       1.372  11.180  18.957  0.00  0.00    +0.000 OA
ATOM     21  C   UNL     1       0.805  10.149  19.297  0.00  0.00    +0.000 C 
ATOM     22  N   UNL     1      -0.540  10.061  19.565  0.00  0.00    +0.000 N 
ATOM     23  H   UNL     1      -0.943   9.167  19.816  0.00  0.00    +0.000 HD
BRANCH  22  24
ATOM     24  C   UNL     1      -1.430  11.195  19.447  0.00  0.00    +0.000 C 
BRANCH  24  25
ATOM     25  C   UNL     1      -2.338  11.047  18.255  0.00  0.00    +0.000 A 
ATOM     26  C   UNL     1      -1.929  10.298  17.141  0.00  0.00    +0.000 A 
ATOM     27  C   UNL     1      -2.753  10.174  16.020  0.00  0.00    +0.000 A 
ATOM     28  C   UNL     1      -3.993  10.811  15.996  0.00  0.00    +0.000 A 
ATOM     29  C   UNL     1      -4.403  11.564  17.094  0.00  0.00    +0.000 A 
ATOM     30 CL   UNL     1      -5.927  12.366  17.056  0.00  0.00    +0.000 Cl
ATOM     31  C   UNL     1      -3.588  11.682  18.220  0.00  0.00    +0.000 A 
ENDBRANCH  24  25
ENDBRANCH  22  24
ENDBRANCH  19  21
ENDBRANCH  18  19
ENDBRANCH   1  18
TORSDOF 5
ENDMDL
MODEL 5
REMARK VINA RESULT:      -8.5      6.350     11.352
REMARK  Name = 
REMARK  5 active torsions:
REMARK  status: ('A' for Active; 'I' for Inactive)
REMARK    1  A    between atoms: C_2  and  C_3
REMARK    2  A    between atoms: C_3  and  C_4
REMARK    3  A    between atoms: C_4  and  C_5
REMARK    4  A    between atoms: N_22  and  C_23
REMARK    5  A    between atoms: C_23  and  C_24
REMARK                            x       y       z     vdW  Elec       q    Type
REMARK                         _______ _______ _______ _____ _____    ______ ____
ROOT
ATOM      1  C   UNL     1      -0.680  10.999  22.613  0.00  0.00    +0.000 C 
ATOM      2  O   UNL     1      -0.567  10.114  23.463  0.00  0.00    +0.000 OA
ATOM      3  N   UNL     1      -0.288  10.885  21.264  0.00  0.00    +0.000 N 
ATOM      4  C   UNL     1      -0.583  11.947  20.296  0.00  0.00    +0.000 C 
ATOM      5  C   UNL     1      -1.514  11.482  19.228  0.00  0.00    +0.000 A 
ATOM      6  C   UNL     1      -2.850  11.891  19.155  0.00  0.00    +0.000 A 
ATOM      7  C   UNL     1      -3.647  11.466  18.094  0.00  0.00    +0.000 A 
ATOM      8  C   UNL     1      -3.112  10.636  17.107  0.00  0.00    +0.000 A 
ATOM      9  C   UNL     1      -1.783  10.213  17.192  0.00  0.00    +0.000 A 
ATOM     10  C   UNL     1      -1.002  10.618  18.270  0.00  0.00    +0.000 A 
ATOM     11  O   UNL     1       0.323  10.281  18.312  0.00  0.00    +0.000 OA
ATOM     12  C   UNL     1       0.746   9.505  19.370  0.00  0.00    +0.000 A 
ATOM     13  N   UNL     1       1.555   8.506  18.912  0.00  0.00    +0.000 NA
ATOM     14  C   UNL     1       2.075   7.650  19.806  0.00  0.00    +0.000 A 
ATOM     15  C   UNL     1       1.828   7.736  21.154  0.00  0.00    +0.000 A 
ATOM     16  C   UNL     1       1.023   8.780  21.615  0.00  0.00    +0.000 A 
ATOM     17  C   UNL     1       0.461   9.731  20.743  0.00  0.00    +0.000 A 
ENDROOT
BRANCH   1  18
ATOM     18  C   UNL     1      -1.354  12.296  23.045  0.00  0.00    +0.000 C 
BRANCH  18  19
ATOM     19  C   UNL     1      -2.829  12.092  23.369  0.00  0.00    +0.000 C 
BRANCH  19  21
ATOM     20  O   UNL     1      -3.225  13.976  21.910  0.00  0.00    +0.000 OA
ATOM     21  C   UNL     1      -3.685  13.051  22.566  0.00  0.00    +0.000 C 
ATOM     22  N   UNL     1      -5.027  12.769  22.666  0.00  0.00    +0.000 N 
ATOM     23  H   UNL     1      -5.331  11.971  23.207  0.00  0.00    +0.000 HD
BRANCH  22  24
ATOM     24  C   UNL     1      -6.034  13.542  21.974  0.00  0.00    +0.000 C 
BRANCH  24  25
ATOM     25  C   UNL     1      -6.416  12.888  20.672  0.00  0.00    +0.000 A 
ATOM     26  C   UNL     1      -6.709  13.670  19.544  0.00  0.00    +0.000 A 
ATOM     27  C   UNL     1      -7.088  13.076  18.340  0.00  0.00    +0.000 A 
ATOM     28  C   UNL     1      -7.192  11.688  18.252  0.00  0.00    +0.000 A 
ATOM     29  C   UNL     1      -6.912  10.904  19.368  0.00  0.00    +0.000 A 
ATOM     30 CL   UNL     1      -7.059   9.191  19.265  0.00  0.00    +0.000 Cl
ATOM     31  C   UNL     1      -6.523  11.493  20.572  0.00  0.00    +0.000 A 
ENDBRANCH  24  25
ENDBRANCH  22  24
ENDBRANCH  19  21
ENDBRANCH  18  19
ENDBRANCH   1  18
TORSDOF 5
ENDMDL
MODEL 6
REMARK VINA RESULT:      -8.5      4.441      8.300
REMARK  Name = 
REMARK  5 active torsions:
REMARK  status: ('A' for Active; 'I' for Inactive)
REMARK    1  A    between atoms: C_2  and  C_3
REMARK    2  A    between atoms: C_3  and  C_4
REMARK    3  A    between atoms: C_4  and  C_5
REMARK    4  A    between atoms: N_22  and  C_23
REMARK    5  A    between atoms: C_23  and  C_24
REMARK                            x       y       z     vdW  Elec       q    Type
REMARK                         _______ _______ _______ _____ _____    ______ ____
ROOT
ATOM      1  C   UNL     1       1.536   8.701  19.290  0.00  0.00    +0.000 C 
ATOM      2  O   UNL     1       1.829   7.864  20.146  0.00  0.00    +0.000 OA
ATOM      3  N   UNL     1       0.851   9.909  19.534  0.00  0.00    +0.000 N 
ATOM      4  C   UNL     1       0.664  10.903  18.472  0.00  0.00    +0.000 C 
ATOM      5  C   UNL     1       1.373  12.179  18.775  0.00  0.00    +0.000 A 
ATOM      6  C   UNL     1       2.532  12.582  18.102  0.00  0.00    +0.000 A 
ATOM      7  C   UNL     1       3.107  13.817  18.393  0.00  0.00    +0.000 A 
ATOM      8  C   UNL     1       2.528  14.649  19.353  0.00  0.00    +0.000 A 
ATOM      9  C   UNL     1       1.382  14.237  20.038  0.00  0.00    +0.000 A 
ATOM     10  C   UNL     1       0.830  12.990  19.763  0.00  0.00    +0.000 A 
ATOM     11  O   UNL     1      -0.341  12.618  20.365  0.00  0.00    +0.000 OA
ATOM     12  C   UNL     1      -0.313  11.500  21.170  0.00  0.00    +0.000 A 
ATOM     13  N   UNL     1      -0.983  11.753  22.331  0.00  0.00    +0.000 NA
ATOM     14  C   UNL     1      -1.070  10.770  23.241  0.00  0.00    +0.000 A 
ATOM     15  C   UNL     1      -0.516   9.528  23.054  0.00  0.00    +0.000 A 
ATOM     16  C   UNL     1       0.141   9.269  21.849  0.00  0.00    +0.000 A 
ATOM     17  C   UNL     1       0.255  10.241  20.836  0.00  0.00    +0.000 A 
ENDROOT
BRANCH   1  18
ATOM     18  C   UNL     1       2.010   8.434  17.866  0.00  0.00    +0.000 C 
BRANCH  18  19
ATOM     19  C   UNL     1       3.421   7.860  17.832  0.00  0.00    +0.000 C 
BRANCH  19  21
ATOM     20  O   UNL     1       4.352   5.688  17.333  0.00  0.00    +0.000 OA
ATOM     21  C   UNL     1       3.377   6.356  17.648  0.00  0.00    +0.000 C 
ATOM     22  N   UNL     1       2.123   5.836  17.867  0.00  0.00    +0.000 N 
ATOM     23  H   UNL     1       1.370   6.449  18.151  0.00  0.00    +0.000 HD
BRANCH  22  24
ATOM     24  C   UNL     1       1.843   4.422  17.763  0.00  0.00    +0.000 C 
BRANCH  24  25
ATOM     25  C   UNL     1       2.070   3.728  19.080  0.00  0.00    +0.000 A 
ATOM     26  C   UNL     1       1.097   3.789  20.091  0.00  0.00    +0.000 A 
ATOM     27  C   UNL     1       1.308   3.170  21.324  0.00  0.00    +0.000 A 
ATOM     28  C   UNL     1       2.502   2.493  21.568  0.00  0.00    +0.000 A 
ATOM     29  C   UNL     1       3.476   2.434  20.574  0.00  0.00    +0.000 A 
ATOM     30 CL   UNL     1       4.959   1.614  20.881  0.00  0.00    +0.000 Cl
ATOM     31  C   UNL     1       3.267   3.043  19.335  0.00  0.00    +0.000 A 
ENDBRANCH  24  25
ENDBRANCH  22  24
ENDBRANCH  19  21
ENDBRANCH  18  19
ENDBRANCH   1  18
TORSDOF 5
ENDMDL
MODEL 7
REMARK VINA RESULT:      -8.5      3.269      7.217
REMARK  Name = 
REMARK  5 active torsions:
REMARK  status: ('A' for Active; 'I' for Inactive)
REMARK    1  A    between atoms: C_2  and  C_3
REMARK    2  A    between atoms: C_3  and  C_4
REMARK    3  A    between atoms: C_4  and  C_5
REMARK    4  A    between atoms: N_22  and  C_23
REMARK    5  A    between atoms: C_23  and  C_24
REMARK                            x       y       z     vdW  Elec       q    Type
REMARK                         _______ _______ _______ _____ _____    ______ ____
ROOT
ATOM      1  C   UNL     1       4.540   3.196  18.092  0.00  0.00    +0.000 C 
ATOM      2  O   UNL     1       5.049   2.748  19.120  0.00  0.00    +0.000 OA
ATOM      3  N   UNL     1       5.049   4.270  17.334  0.00  0.00    +0.000 N 
ATOM      4  C   UNL     1       4.444   4.646  16.052  0.00  0.00    +0.000 C 
ATOM      5  C   UNL     1       5.388   4.449  14.914  0.00  0.00    +0.000 A 
ATOM      6  C   UNL     1       5.245   3.418  13.979  0.00  0.00    +0.000 A 
ATOM      7  C   UNL     1       6.127   3.330  12.904  0.00  0.00    +0.000 A 
ATOM      8  C   UNL     1       7.151   4.268  12.764  0.00  0.00    +0.000 A 
ATOM      9  C   UNL     1       7.306   5.285  13.709  0.00  0.00    +0.000 A 
ATOM     10  C   UNL     1       6.438   5.349  14.794  0.00  0.00    +0.000 A 
ATOM     11  O   UNL     1       6.528   6.393  15.674  0.00  0.00    +0.000 OA
ATOM     12  C   UNL     1       6.816   6.092  16.988  0.00  0.00    +0.000 A 
ATOM     13  N   UNL     1       7.771   6.946  17.457  0.00  0.00    +0.000 NA
ATOM     14  C   UNL     1       8.175   6.810  18.729  0.00  0.00    +0.000 A 
ATOM     15  C   UNL     1       7.670   5.853  19.576  0.00  0.00    +0.000 A 
ATOM     16  C   UNL     1       6.670   5.005  19.095  0.00  0.00    +0.000 A 
ATOM     17  C   UNL     1       6.178   5.099  17.780  0.00  0.00    +0.000 A 
ENDROOT
BRANCH   1  18
ATOM     18  C   UNL     1       3.296   2.488  17.567  0.00  0.00    +0.000 C 
BRANCH  18  19
ATOM     19  C   UNL     1       2.554   1.744  18.670  0.00  0.00    +0.000 C 
BRANCH  19  21
ATOM     20  O   UNL     1       0.470   2.735  19.385  0.00  0.00    +0.000 OA
ATOM     21  C   UNL     1       1.691   2.702  19.467  0.00  0.00    +0.000 C 
ATOM     22  N   UNL     1       2.433   3.528  20.279  0.00  0.00    +0.000 N 
ATOM     23  H   UNL     1       3.438   3.424  20.313  0.00  0.00    +0.000 HD
BRANCH  22  24
ATOM     24  C   UNL     1       1.824   4.514  21.143  0.00  0.00    +0.000 C 
BRANCH  24  25
ATOM     25  C   UNL     1       1.887   5.886  20.525  0.00  0.00    +0.000 A 
ATOM     26  C   UNL     1       1.197   6.959  21.110  0.00  0.00    +0.000 A 
ATOM     27  C   UNL     1       1.228   8.230  20.532  0.00  0.00    +0.000 A 
ATOM     28  C   UNL     1       1.941   8.440  19.352  0.00  0.00    +0.000 A 
ATOM     29  C   UNL     1       2.622   7.379  18.760  0.00  0.00    +0.000 A 
ATOM     30 CL   UNL     1       3.486   7.633  17.292  0.00  0.00    +0.000 Cl
ATOM     31  C   UNL     1       2.602   6.108  19.338  0.00  0.00    +0.000 A 
ENDBRANCH  24  25
ENDBRANCH  22  24
ENDBRANCH  19  21
ENDBRANCH  18  19
ENDBRANCH   1  18
TORSDOF 5
ENDMDL
MODEL 8
REMARK VINA RESULT:      -8.5      4.276      7.970
REMARK  Name = 
REMARK  5 active torsions:
REMARK  status: ('A' for Active; 'I' for Inactive)
REMARK    1  A    between atoms: C_2  and  C_3
REMARK    2  A    between atoms: C_3  and  C_4
REMARK    3  A    between atoms: C_4  and  C_5
REMARK    4  A    between atoms: N_22  and  C_23
REMARK    5  A    between atoms: C_23  and  C_24
REMARK                            x       y       z     vdW  Elec       q    Type
REMARK                         _______ _______ _______ _____ _____    ______ ____
ROOT
ATOM      1  C   UNL     1       1.696   8.423  19.228  0.00  0.00    +0.000 C 
ATOM      2  O   UNL     1       2.042   7.600  20.077  0.00  0.00    +0.000 OA
ATOM      3  N   UNL     1       0.974   9.605  19.489  0.00  0.00    +0.000 N 
ATOM      4  C   UNL     1       0.723  10.589  18.430  0.00  0.00    +0.000 C 
ATOM      5  C   UNL     1       1.392  11.892  18.713  0.00  0.00    +0.000 A 
ATOM      6  C   UNL     1       2.518  12.335  18.010  0.00  0.00    +0.000 A 
ATOM      7  C   UNL     1       3.054  13.591  18.284  0.00  0.00    +0.000 A 
ATOM      8  C   UNL     1       2.470  14.403  19.257  0.00  0.00    +0.000 A 
ATOM      9  C   UNL     1       1.358  13.951  19.973  0.00  0.00    +0.000 A 
ATOM     10  C   UNL     1       0.845  12.684  19.713  0.00  0.00    +0.000 A 
ATOM     11  O   UNL     1      -0.296  12.271  20.345  0.00  0.00    +0.000 OA
ATOM     12  C   UNL     1      -0.205  11.156  21.151  0.00  0.00    +0.000 A 
ATOM     13  N   UNL     1      -0.854  11.387  22.329  0.00  0.00    +0.000 NA
ATOM     14  C   UNL     1      -0.881  10.404  23.243  0.00  0.00    +0.000 A 
ATOM     15  C   UNL     1      -0.287   9.182  23.043  0.00  0.00    +0.000 A 
ATOM     16  C   UNL     1       0.348   8.946  21.822  0.00  0.00    +0.000 A 
ATOM     17  C   UNL     1       0.399   9.918  20.805  0.00  0.00    +0.000 A 
ENDROOT
BRANCH   1  18
ATOM     18  C   UNL     1       2.143   8.170  17.793  0.00  0.00    +0.000 C 
BRANCH  18  19
ATOM     19  C   UNL     1       3.659   8.225  17.649  0.00  0.00    +0.000 C 
BRANCH  19  21
ATOM     20  O   UNL     1       4.528   6.338  16.417  0.00  0.00    +0.000 OA
ATOM     21  C   UNL     1       4.227   6.828  17.497  0.00  0.00    +0.000 C 
ATOM     22  N   UNL     1       4.357   6.179  18.702  0.00  0.00    +0.000 N 
ATOM     23  H   UNL     1       4.112   6.659  19.558  0.00  0.00    +0.000 HD
BRANCH  22  24
ATOM     24  C   UNL     1       4.891   4.840  18.807  0.00  0.00    +0.000 C 
BRANCH  24  25
ATOM     25  C   UNL     1       3.786   3.826  18.938  0.00  0.00    +0.000 A 
ATOM     26  C   UNL     1       3.364   3.088  17.820  0.00  0.00    +0.000 A 
ATOM     27  C   UNL     1       2.324   2.163  17.925  0.00  0.00    +0.000 A 
ATOM     28  C   UNL     1       1.683   1.973  19.149  0.00  0.00    +0.000 A 
ATOM     29  C   UNL     1       2.090   2.705  20.261  0.00  0.00    +0.000 A 
ATOM     30 CL   UNL     1       1.286   2.484  21.768  0.00  0.00    +0.000 Cl
ATOM     31  C   UNL     1       3.136   3.625  20.164  0.00  0.00    +0.000 A 
ENDBRANCH  24  25
ENDBRANCH  22  24
ENDBRANCH  19  21
ENDBRANCH  18  19
ENDBRANCH   1  18
TORSDOF 5
ENDMDL
MODEL 9
REMARK VINA RESULT:      -8.4      1.229      1.457
REMARK  Name = 
REMARK  5 active torsions:
REMARK  status: ('A' for Active; 'I' for Inactive)
REMARK    1  A    between atoms: C_2  and  C_3
REMARK    2  A    between atoms: C_3  and  C_4
REMARK    3  A    between atoms: C_4  and  C_5
REMARK    4  A    between atoms: N_22  and  C_23
REMARK    5  A    between atoms: C_23  and  C_24
REMARK                            x       y       z     vdW  Elec       q    Type
REMARK                         _______ _______ _______ _____ _____    ______ ____
ROOT
ATOM      1  C   UNL     1       4.109   6.875  17.345  0.00  0.00    +0.000 C 
ATOM      2  O   UNL     1       3.694   7.766  16.602  0.00  0.00    +0.000 OA
ATOM      3  N   UNL     1       3.548   6.529  18.591  0.00  0.00    +0.000 N 
ATOM      4  C   UNL     1       4.031   5.366  19.343  0.00  0.00    +0.000 C 
ATOM      5  C   UNL     1       2.978   4.319  19.485  0.00  0.00    +0.000 A 
ATOM      6  C   UNL     1       3.012   3.108  18.786  0.00  0.00    +0.000 A 
ATOM      7  C   UNL     1       2.028   2.149  19.014  0.00  0.00    +0.000 A 
ATOM      8  C   UNL     1       1.012   2.398  19.938  0.00  0.00    +0.000 A 
ATOM      9  C   UNL     1       0.968   3.616  20.622  0.00  0.00    +0.000 A 
ATOM     10  C   UNL     1       1.938   4.580  20.367  0.00  0.00    +0.000 A 
ATOM     11  O   UNL     1       1.952   5.737  21.097  0.00  0.00    +0.000 OA
ATOM     12  C   UNL     1       1.788   6.921  20.410  0.00  0.00    +0.000 A 
ATOM     13  N   UNL     1       0.898   7.716  21.072  0.00  0.00    +0.000 NA
ATOM     14  C   UNL     1       0.618   8.922  20.555  0.00  0.00    +0.000 A 
ATOM     15  C   UNL     1       1.185   9.388  19.394  0.00  0.00    +0.000 A 
ATOM     16  C   UNL     1       2.118   8.579  18.742  0.00  0.00    +0.000 A 
ATOM     17  C   UNL     1       2.482   7.311  19.233  0.00  0.00    +0.000 A 
ENDROOT
BRANCH   1  18
ATOM     18  C   UNL     1       5.283   6.042  16.844  0.00  0.00    +0.000 C 
BRANCH  18  19
ATOM     19  C   UNL     1       6.461   6.912  16.420  0.00  0.00    +0.000 C 
BRANCH  19  21
ATOM     20  O   UNL     1       7.703   6.271  18.390  0.00  0.00    +0.000 OA
ATOM     21  C   UNL     1       7.393   7.146  17.592  0.00  0.00    +0.000 C 
ATOM     22  N   UNL     1       7.840   8.445  17.658  0.00  0.00    +0.000 N 
ATOM     23  H   UNL     1       7.562   9.106  16.945  0.00  0.00    +0.000 HD
BRANCH  22  24
ATOM     24  C   UNL     1       8.753   8.898  18.683  0.00  0.00    +0.000 C 
BRANCH  24  25
ATOM     25  C   UNL     1       8.974  10.384  18.591  0.00  0.00    +0.000 A 
ATOM     26  C   UNL     1       8.285  11.146  17.633  0.00  0.00    +0.000 A 
ATOM     27  C   UNL     1       8.501  12.521  17.523  0.00  0.00    +0.000 A 
ATOM     28  C   UNL     1       9.419  13.150  18.362  0.00  0.00    +0.000 A 
ATOM     29  C   UNL     1      10.112  12.402  19.310  0.00  0.00    +0.000 A 
ATOM     30 CL   UNL     1      11.260  13.176  20.334  0.00  0.00    +0.000 Cl
ATOM     31  C   UNL     1       9.894  11.028  19.432  0.00  0.00    +0.000 A 
ENDBRANCH  24  25
ENDBRANCH  22  24
ENDBRANCH  19  21
ENDBRANCH  18  19
ENDBRANCH   1  18
TORSDOF 5
ENDMDL
