MODEL 1
REMARK VINA RESULT:      -7.7      0.000      0.000
REMARK  Name = 
REMARK  7 active torsions:
REMARK  status: ('A' for Active; 'I' for Inactive)
REMARK    1  A    between atoms: C_1  and  O_2
REMARK    2  A    between atoms: O_2  and  C_3
REMARK    3  A    between atoms: C_3  and  C_4
REMARK    4  A    between atoms: C_4  and  N_5
REMARK    5  A    between atoms: C_11  and  C_12
REMARK    6  A    between atoms: N_14  and  C_15
REMARK    7  A    between atoms: C_15  and  C_16
REMARK                            x       y       z     vdW  Elec       q    Type
REMARK                         _______ _______ _______ _____ _____    ______ ____
ROOT
ATOM      1  N   UNL     1       4.687   4.655  17.225  0.00  0.00    +0.000 N 
ATOM      2  C   UNL     1       4.152   4.021  18.312  0.00  0.00    +0.000 C 
ATOM      3  O   UNL     1       4.330   2.888  18.715  0.00  0.00    +0.000 OA
ATOM      4  C   UNL     1       3.311   4.999  18.994  0.00  0.00    +0.000 A 
ATOM      5  C   UNL     1       2.582   4.878  20.161  0.00  0.00    +0.000 A 
ATOM      6  C   UNL     1       1.922   6.023  20.628  0.00  0.00    +0.000 A 
ATOM      7  C   UNL     1       1.996   7.244  19.914  0.00  0.00    +0.000 A 
ATOM      8  C   UNL     1       2.754   7.334  18.732  0.00  0.00    +0.000 A 
ATOM      9  C   UNL     1       3.401   6.190  18.299  0.00  0.00    +0.000 A 
ATOM     10  C   UNL     1       4.306   5.969  17.169  0.00  0.00    +0.000 C 
ATOM     11  O   UNL     1       4.650   6.844  16.397  0.00  0.00    +0.000 OA
ENDROOT
BRANCH   7  12
ATOM     12  C   UNL     1       1.346   8.482  20.431  0.00  0.00    +0.000 C 
ATOM     13  O   UNL     1       1.110   8.582  21.629  0.00  0.00    +0.000 OA
ATOM     14  N   UNL     1       1.055   9.463  19.508  0.00  0.00    +0.000 N 
ATOM     15  H   UNL     1       1.390   9.387  18.559  0.00  0.00    +0.000 HD
BRANCH  14  16
ATOM     16  C   UNL     1       0.429  10.713  19.894  0.00  0.00    +0.000 C 
BRANCH  16  17
ATOM     17  C   UNL     1      -0.871  10.933  19.176  0.00  0.00    +0.000 A 
ATOM     18  C   UNL     1      -1.206  10.204  18.029  0.00  0.00    +0.000 A 
ATOM     19  C   UNL     1      -2.444  10.395  17.421  0.00  0.00    +0.000 A 
ATOM     20  C   UNL     1      -3.316  11.312  17.983  0.00  0.00    +0.000 A 
ATOM     21  N   UNL     1      -3.031  12.039  19.084  0.00  0.00    +0.000 NA
ATOM     22  C   UNL     1      -1.821  11.830  19.656  0.00  0.00    +0.000 A 
ENDBRANCH  16  17
ENDBRANCH  14  16
ENDBRANCH   7  12
BRANCH   1  23
ATOM     23  C   UNL     1       5.667   4.046  16.338  0.00  0.00    +0.000 C 
BRANCH  23  24
ATOM     24  C   UNL     1       7.092   4.557  16.569  0.00  0.00    +0.000 C 
BRANCH  24  26
ATOM     25  C   UNL     1       7.001   4.883  14.239  0.00  0.00    +0.000 C 
ATOM     26  O   UNL     1       7.486   5.389  15.476  0.00  0.00    +0.000 OA
ENDBRANCH  24  26
ENDBRANCH  23  24
ENDBRANCH   1  23
TORSDOF 6
ENDMDL
MODEL 2
REMARK VINA RESULT:      -7.5      1.237      1.674
REMARK  Name = 
REMARK  7 active torsions:
REMARK  status: ('A' for Active; 'I' for Inactive)
REMARK    1  A    between atoms: C_1  and  O_2
REMARK    2  A    between atoms: O_2  and  C_3
REMARK    3  A    between atoms: C_3  and  C_4
REMARK    4  A    between atoms: C_4  and  N_5
REMARK    5  A    between atoms: C_11  and  C_12
REMARK    6  A    between atoms: N_14  and  C_15
REMARK    7  A    between atoms: C_15  and  C_16
REMARK                            x       y       z     vdW  Elec       q    Type
REMARK                         _______ _______ _______ _____ _____    ______ ____
ROOT
ATOM      1  N   UNL     1       4.930   4.856  17.366  0.00  0.00    +0.000 N 
ATOM      2  C   UNL     1       4.371   4.412  18.532  0.00  0.00    +0.000 C 
ATOM      3  O   UNL     1       4.585   3.390  19.155  0.00  0.00    +0.000 OA
ATOM      4  C   UNL     1       3.449   5.451  18.976  0.00  0.00    +0.000 A 
ATOM      5  C   UNL     1       2.668   5.514  20.114  0.00  0.00    +0.000 A 
ATOM      6  C   UNL     1       1.928   6.685  20.322  0.00  0.00    +0.000 A 
ATOM      7  C   UNL     1       1.977   7.749  19.388  0.00  0.00    +0.000 A 
ATOM      8  C   UNL     1       2.789   7.656  18.244  0.00  0.00    +0.000 A 
ATOM      9  C   UNL     1       3.514   6.490  18.067  0.00  0.00    +0.000 A 
ATOM     10  C   UNL     1       4.486   6.110  17.040  0.00  0.00    +0.000 C 
ATOM     11  O   UNL     1       4.825   6.840  16.127  0.00  0.00    +0.000 OA
ENDROOT
BRANCH   7  12
ATOM     12  C   UNL     1       1.240   9.022  19.628  0.00  0.00    +0.000 C 
ATOM     13  O   UNL     1       0.965   9.352  20.775  0.00  0.00    +0.000 OA
ATOM     14  N   UNL     1       0.917   9.772  18.518  0.00  0.00    +0.000 N 
ATOM     15  H   UNL     1       1.282   9.525  17.610  0.00  0.00    +0.000 HD
BRANCH  14  16
ATOM     16  C   UNL     1       0.207  11.032  18.627  0.00  0.00    +0.000 C 
BRANCH  16  17
ATOM     17  C   UNL     1      -1.249  10.885  18.291  0.00  0.00    +0.000 A 
ATOM     18  C   UNL     1      -2.219  11.718  18.861  0.00  0.00    +0.000 A 
ATOM     19  C   UNL     1      -3.553  11.590  18.484  0.00  0.00    +0.000 A 
ATOM     20  C   UNL     1      -3.879  10.629  17.541  0.00  0.00    +0.000 A 
ATOM     21  N   UNL     1      -2.976   9.803  16.973  0.00  0.00    +0.000 NA
ATOM     22  C   UNL     1      -1.686   9.953  17.356  0.00  0.00    +0.000 A 
ENDBRANCH  16  17
ENDBRANCH  14  16
ENDBRANCH   7  12
BRANCH   1  23
ATOM     23  C   UNL     1       5.983   4.148  16.655  0.00  0.00    +0.000 C 
BRANCH  23  24
ATOM     24  C   UNL     1       7.382   4.700  16.939  0.00  0.00    +0.000 C 
BRANCH  24  26
ATOM     25  C   UNL     1       7.867   5.685  19.022  0.00  0.00    +0.000 C 
ATOM     26  O   UNL     1       7.722   4.464  18.307  0.00  0.00    +0.000 OA
ENDBRANCH  24  26
ENDBRANCH  23  24
ENDBRANCH   1  23
TORSDOF 6
ENDMDL
MODEL 3
REMARK VINA RESULT:      -7.4      1.310      1.544
REMARK  Name = 
REMARK  7 active torsions:
REMARK  status: ('A' for Active; 'I' for Inactive)
REMARK    1  A    between atoms: C_1  and  O_2
REMARK    2  A    between atoms: O_2  and  C_3
REMARK    3  A    between atoms: C_3  and  C_4
REMARK    4  A    between atoms: C_4  and  N_5
REMARK    5  A    between atoms: C_11  and  C_12
REMARK    6  A    between atoms: N_14  and  C_15
REMARK    7  A    between atoms: C_15  and  C_16
REMARK                            x       y       z     vdW  Elec       q    Type
REMARK                         _______ _______ _______ _____ _____    ______ ____
ROOT
ATOM      1  N   UNL     1       5.720   5.126  16.416  0.00  0.00    +0.000 N 
ATOM      2  C   UNL     1       4.683   4.367  16.882  0.00  0.00    +0.000 C 
ATOM      3  O   UNL     1       4.547   3.159  16.888  0.00  0.00    +0.000 OA
ATOM      4  C   UNL     1       3.714   5.292  17.460  0.00  0.00    +0.000 A 
ATOM      5  C   UNL     1       2.517   5.035  18.099  0.00  0.00    +0.000 A 
ATOM      6  C   UNL     1       1.823   6.131  18.630  0.00  0.00    +0.000 A 
ATOM      7  C   UNL     1       2.334   7.445  18.498  0.00  0.00    +0.000 A 
ATOM      8  C   UNL     1       3.561   7.671  17.849  0.00  0.00    +0.000 A 
ATOM      9  C   UNL     1       4.228   6.570  17.340  0.00  0.00    +0.000 A 
ATOM     10  C   UNL     1       5.531   6.456  16.683  0.00  0.00    +0.000 C 
ATOM     11  O   UNL     1       6.276   7.399  16.489  0.00  0.00    +0.000 OA
ENDROOT
BRANCH   7  12
ATOM     12  C   UNL     1       1.635   8.611  19.108  0.00  0.00    +0.000 C 
ATOM     13  O   UNL     1       1.449   8.635  20.319  0.00  0.00    +0.000 OA
ATOM     14  N   UNL     1       1.242   9.618  18.254  0.00  0.00    +0.000 N 
ATOM     15  H   UNL     1       1.537   9.613  17.288  0.00  0.00    +0.000 HD
BRANCH  14  16
ATOM     16  C   UNL     1       0.560  10.805  18.734  0.00  0.00    +0.000 C 
BRANCH  16  17
ATOM     17  C   UNL     1      -0.893  10.807  18.355  0.00  0.00    +0.000 A 
ATOM     18  C   UNL     1      -1.409   9.892  17.430  0.00  0.00    +0.000 A 
ATOM     19  C   UNL     1      -2.772   9.886  17.144  0.00  0.00    +0.000 A 
ATOM     20  C   UNL     1      -3.583  10.799  17.798  0.00  0.00    +0.000 A 
ATOM     21  N   UNL     1      -3.125  11.701  18.692  0.00  0.00    +0.000 NA
ATOM     22  C   UNL     1      -1.796  11.681  18.952  0.00  0.00    +0.000 A 
ENDBRANCH  16  17
ENDBRANCH  14  16
ENDBRANCH   7  12
BRANCH   1  23
ATOM     23  C   UNL     1       6.940   4.567  15.855  0.00  0.00    +0.000 C 
BRANCH  23  24
ATOM     24  C   UNL     1       6.980   4.614  14.325  0.00  0.00    +0.000 C 
BRANCH  24  26
ATOM     25  C   UNL     1       6.264   3.509  12.374  0.00  0.00    +0.000 C 
ATOM     26  O   UNL     1       6.166   3.569  13.791  0.00  0.00    +0.000 OA
ENDBRANCH  24  26
ENDBRANCH  23  24
ENDBRANCH   1  23
TORSDOF 6
ENDMDL
MODEL 4
REMARK VINA RESULT:      -7.3      1.606      2.028
REMARK  Name = 
REMARK  7 active torsions:
REMARK  status: ('A' for Active; 'I' for Inactive)
REMARK    1  A    between atoms: C_1  and  O_2
REMARK    2  A    between atoms: O_2  and  C_3
REMARK    3  A    between atoms: C_3  and  C_4
REMARK    4  A    between atoms: C_4  and  N_5
REMARK    5  A    between atoms: C_11  and  C_12
REMARK    6  A    between atoms: N_14  and  C_15
REMARK    7  A    between atoms: C_15  and  C_16
REMARK                            x       y       z     vdW  Elec       q    Type
REMARK                         _______ _______ _______ _____ _____    ______ ____
ROOT
ATOM      1  N   UNL     1       4.666   5.109  17.650  0.00  0.00    +0.000 N 
ATOM      2  C   UNL     1       3.998   5.018  18.839  0.00  0.00    +0.000 C 
ATOM      3  O   UNL     1       4.067   4.167  19.705  0.00  0.00    +0.000 OA
ATOM      4  C   UNL     1       3.166   6.212  18.944  0.00  0.00    +0.000 A 
ATOM      5  C   UNL     1       2.331   6.622  19.965  0.00  0.00    +0.000 A 
ATOM      6  C   UNL     1       1.708   7.869  19.824  0.00  0.00    +0.000 A 
ATOM      7  C   UNL     1       1.923   8.660  18.670  0.00  0.00    +0.000 A 
ATOM      8  C   UNL     1       2.786   8.216  17.651  0.00  0.00    +0.000 A 
ATOM      9  C   UNL     1       3.393   6.984  17.820  0.00  0.00    +0.000 A 
ATOM     10  C   UNL     1       4.377   6.278  16.997  0.00  0.00    +0.000 C 
ATOM     11  O   UNL     1       4.843   6.726  15.967  0.00  0.00    +0.000 OA
ENDROOT
BRANCH   7  12
ATOM     12  C   UNL     1       1.312  10.013  18.535  0.00  0.00    +0.000 C 
ATOM     13  O   UNL     1       2.006  10.954  18.169  0.00  0.00    +0.000 OA
ATOM     14  N   UNL     1      -0.030  10.121  18.826  0.00  0.00    +0.000 N 
ATOM     15  H   UNL     1      -0.586   9.294  18.992  0.00  0.00    +0.000 HD
BRANCH  14  16
ATOM     16  C   UNL     1      -0.736  11.384  18.724  0.00  0.00    +0.000 C 
BRANCH  16  17
ATOM     17  C   UNL     1      -2.035  11.242  17.984  0.00  0.00    +0.000 A 
ATOM     18  C   UNL     1      -2.098  10.630  16.728  0.00  0.00    +0.000 A 
ATOM     19  C   UNL     1      -3.327  10.465  16.095  0.00  0.00    +0.000 A 
ATOM     20  C   UNL     1      -4.464  10.917  16.745  0.00  0.00    +0.000 A 
ATOM     21  N   UNL     1      -4.447  11.517  17.953  0.00  0.00    +0.000 NA
ATOM     22  C   UNL     1      -3.237  11.660  18.546  0.00  0.00    +0.000 A 
ENDBRANCH  16  17
ENDBRANCH  14  16
ENDBRANCH   7  12
BRANCH   1  23
ATOM     23  C   UNL     1       5.678   4.158  17.218  0.00  0.00    +0.000 C 
BRANCH  23  24
ATOM     24  C   UNL     1       7.077   4.770  17.107  0.00  0.00    +0.000 C 
BRANCH  24  26
ATOM     25  C   UNL     1       7.846   5.617  19.164  0.00  0.00    +0.000 C 
ATOM     26  O   UNL     1       7.819   4.492  18.295  0.00  0.00    +0.000 OA
ENDBRANCH  24  26
ENDBRANCH  23  24
ENDBRANCH   1  23
TORSDOF 6
ENDMDL
MODEL 5
REMARK VINA RESULT:      -7.3      1.559      1.999
REMARK  Name = 
REMARK  7 active torsions:
REMARK  status: ('A' for Active; 'I' for Inactive)
REMARK    1  A    between atoms: C_1  and  O_2
REMARK    2  A    between atoms: O_2  and  C_3
REMARK    3  A    between atoms: C_3  and  C_4
REMARK    4  A    between atoms: C_4  and  N_5
REMARK    5  A    between atoms: C_11  and  C_12
REMARK    6  A    between atoms: N_14  and  C_15
REMARK    7  A    between atoms: C_15  and  C_16
REMARK                            x       y       z     vdW  Elec       q    Type
REMARK                         _______ _______ _______ _____ _____    ______ ____
ROOT
ATOM      1  N   UNL     1       4.551   5.230  17.795  0.00  0.00    +0.000 N 
ATOM      2  C   UNL     1       3.864   5.137  18.974  0.00  0.00    +0.000 C 
ATOM      3  O   UNL     1       3.919   4.283  19.839  0.00  0.00    +0.000 OA
ATOM      4  C   UNL     1       3.031   6.330  19.069  0.00  0.00    +0.000 A 
ATOM      5  C   UNL     1       2.182   6.739  20.078  0.00  0.00    +0.000 A 
ATOM      6  C   UNL     1       1.561   7.986  19.931  0.00  0.00    +0.000 A 
ATOM      7  C   UNL     1       1.794   8.780  18.781  0.00  0.00    +0.000 A 
ATOM      8  C   UNL     1       2.672   8.338  17.775  0.00  0.00    +0.000 A 
ATOM      9  C   UNL     1       3.276   7.105  17.950  0.00  0.00    +0.000 A 
ATOM     10  C   UNL     1       4.272   6.401  17.141  0.00  0.00    +0.000 C 
ATOM     11  O   UNL     1       4.755   6.851  16.119  0.00  0.00    +0.000 OA
ENDROOT
BRANCH   7  12
ATOM     12  C   UNL     1       1.186  10.134  18.641  0.00  0.00    +0.000 C 
ATOM     13  O   UNL     1       1.893  11.081  18.320  0.00  0.00    +0.000 OA
ATOM     14  N   UNL     1      -0.168  10.234  18.874  0.00  0.00    +0.000 N 
ATOM     15  H   UNL     1      -0.728   9.404  19.003  0.00  0.00    +0.000 HD
BRANCH  14  16
ATOM     16  C   UNL     1      -0.872  11.498  18.760  0.00  0.00    +0.000 C 
BRANCH  16  17
ATOM     17  C   UNL     1      -2.158  11.356  17.999  0.00  0.00    +0.000 A 
ATOM     18  C   UNL     1      -3.388  11.703  18.570  0.00  0.00    +0.000 A 
ATOM     19  C   UNL     1      -4.555  11.611  17.816  0.00  0.00    +0.000 A 
ATOM     20  C   UNL     1      -4.456  11.174  16.506  0.00  0.00    +0.000 A 
ATOM     21  N   UNL     1      -3.292  10.824  15.920  0.00  0.00    +0.000 NA
ATOM     22  C   UNL     1      -2.173  10.927  16.675  0.00  0.00    +0.000 A 
ENDBRANCH  16  17
ENDBRANCH  14  16
ENDBRANCH   7  12
BRANCH   1  23
ATOM     23  C   UNL     1       5.569   4.279  17.377  0.00  0.00    +0.000 C 
BRANCH  23  24
ATOM     24  C   UNL     1       6.994   4.734  17.705  0.00  0.00    +0.000 C 
BRANCH  24  26
ATOM     25  C   UNL     1       7.050   4.433  15.371  0.00  0.00    +0.000 C 
ATOM     26  O   UNL     1       7.825   4.574  16.554  0.00  0.00    +0.000 OA
ENDBRANCH  24  26
ENDBRANCH  23  24
ENDBRANCH   1  23
TORSDOF 6
ENDMDL
MODEL 6
REMARK VINA RESULT:      -7.3      1.918      3.219
REMARK  Name = 
REMARK  7 active torsions:
REMARK  status: ('A' for Active; 'I' for Inactive)
REMARK    1  A    between atoms: C_1  and  O_2
REMARK    2  A    between atoms: O_2  and  C_3
REMARK    3  A    between atoms: C_3  and  C_4
REMARK    4  A    between atoms: C_4  and  N_5
REMARK    5  A    between atoms: C_11  and  C_12
REMARK    6  A    between atoms: N_14  and  C_15
REMARK    7  A    between atoms: C_15  and  C_16
REMARK                            x       y       z     vdW  Elec       q    Type
REMARK                         _______ _______ _______ _____ _____    ______ ____
ROOT
ATOM      1  N   UNL     1       3.835   4.419  19.342  0.00  0.00    +0.000 N 
ATOM      2  C   UNL     1       4.125   5.141  18.217  0.00  0.00    +0.000 C 
ATOM      3  O   UNL     1       4.790   4.832  17.247  0.00  0.00    +0.000 OA
ATOM      4  C   UNL     1       3.422   6.413  18.344  0.00  0.00    +0.000 A 
ATOM      5  C   UNL     1       3.350   7.476  17.464  0.00  0.00    +0.000 A 
ATOM      6  C   UNL     1       2.525   8.550  17.820  0.00  0.00    +0.000 A 
ATOM      7  C   UNL     1       1.808   8.540  19.042  0.00  0.00    +0.000 A 
ATOM      8  C   UNL     1       1.897   7.438  19.911  0.00  0.00    +0.000 A 
ATOM      9  C   UNL     1       2.715   6.388  19.531  0.00  0.00    +0.000 A 
ATOM     10  C   UNL     1       2.969   5.092  20.162  0.00  0.00    +0.000 C 
ATOM     11  O   UNL     1       2.438   4.726  21.194  0.00  0.00    +0.000 OA
ENDROOT
BRANCH   7  12
ATOM     12  C   UNL     1       0.883   9.650  19.404  0.00  0.00    +0.000 C 
ATOM     13  O   UNL     1       0.428   9.708  20.541  0.00  0.00    +0.000 OA
ATOM     14  N   UNL     1       0.599  10.571  18.419  0.00  0.00    +0.000 N 
ATOM     15  H   UNL     1       1.103  10.554  17.544  0.00  0.00    +0.000 HD
BRANCH  14  16
ATOM     16  C   UNL     1      -0.282  11.698  18.657  0.00  0.00    +0.000 C 
BRANCH  16  17
ATOM     17  C   UNL     1      -1.704  11.385  18.288  0.00  0.00    +0.000 A 
ATOM     18  C   UNL     1      -2.013  10.402  17.341  0.00  0.00    +0.000 A 
ATOM     19  C   UNL     1      -3.344  10.099  17.064  0.00  0.00    +0.000 A 
ATOM     20  C   UNL     1      -4.330  10.790  17.748  0.00  0.00    +0.000 A 
ATOM     21  N   UNL     1      -4.074  11.748  18.663  0.00  0.00    +0.000 NA
ATOM     22  C   UNL     1      -2.772  12.019  18.915  0.00  0.00    +0.000 A 
ENDBRANCH  16  17
ENDBRANCH  14  16
ENDBRANCH   7  12
BRANCH   1  23
ATOM     23  C   UNL     1       4.267   3.047  19.553  0.00  0.00    +0.000 C 
BRANCH  23  24
ATOM     24  C   UNL     1       3.273   2.011  19.020  0.00  0.00    +0.000 C 
BRANCH  24  26
ATOM     25  C   UNL     1       0.971   2.371  18.683  0.00  0.00    +0.000 C 
ATOM     26  O   UNL     1       2.284   2.661  18.221  0.00  0.00    +0.000 OA
ENDBRANCH  24  26
ENDBRANCH  23  24
ENDBRANCH   1  23
TORSDOF 6
ENDMDL
MODEL 7
REMARK VINA RESULT:      -7.2      2.897      9.309
REMARK  Name = 
REMARK  7 active torsions:
REMARK  status: ('A' for Active; 'I' for Inactive)
REMARK    1  A    between atoms: C_1  and  O_2
REMARK    2  A    between atoms: O_2  and  C_3
REMARK    3  A    between atoms: C_3  and  C_4
REMARK    4  A    between atoms: C_4  and  N_5
REMARK    5  A    between atoms: C_11  and  C_12
REMARK    6  A    between atoms: N_14  and  C_15
REMARK    7  A    between atoms: C_15  and  C_16
REMARK                            x       y       z     vdW  Elec       q    Type
REMARK                         _______ _______ _______ _____ _____    ______ ____
ROOT
ATOM      1  N   UNL     1      -0.563  11.365  21.893  0.00  0.00    +0.000 N 
ATOM      2  C   UNL     1      -0.430  11.588  20.550  0.00  0.00    +0.000 C 
ATOM      3  O   UNL     1      -0.752  12.557  19.889  0.00  0.00    +0.000 OA
ATOM      4  C   UNL     1       0.255  10.424  19.999  0.00  0.00    +0.000 A 
ATOM      5  C   UNL     1       0.666  10.170  18.705  0.00  0.00    +0.000 A 
ATOM      6  C   UNL     1       1.380   8.987  18.478  0.00  0.00    +0.000 A 
ATOM      7  C   UNL     1       1.652   8.089  19.539  0.00  0.00    +0.000 A 
ATOM      8  C   UNL     1       1.226   8.382  20.847  0.00  0.00    +0.000 A 
ATOM      9  C   UNL     1       0.529   9.562  21.043  0.00  0.00    +0.000 A 
ATOM     10  C   UNL     1       0.016  10.181  22.266  0.00  0.00    +0.000 C 
ATOM     11  O   UNL     1       0.158   9.705  23.377  0.00  0.00    +0.000 OA
ENDROOT
BRANCH   7  12
ATOM     12  C   UNL     1       2.460   6.856  19.321  0.00  0.00    +0.000 C 
ATOM     13  O   UNL     1       2.559   6.033  20.224  0.00  0.00    +0.000 OA
ATOM     14  N   UNL     1       3.050   6.709  18.085  0.00  0.00    +0.000 N 
ATOM     15  H   UNL     1       2.828   7.347  17.334  0.00  0.00    +0.000 HD
BRANCH  14  16
ATOM     16  C   UNL     1       3.853   5.548  17.754  0.00  0.00    +0.000 C 
BRANCH  16  17
ATOM     17  C   UNL     1       5.293   5.736  18.137  0.00  0.00    +0.000 A 
ATOM     18  C   UNL     1       6.141   6.574  17.405  0.00  0.00    +0.000 A 
ATOM     19  C   UNL     1       7.456   6.768  17.822  0.00  0.00    +0.000 A 
ATOM     20  C   UNL     1       7.884   6.117  18.966  0.00  0.00    +0.000 A 
ATOM     21  N   UNL     1       7.100   5.296  19.697  0.00  0.00    +0.000 NA
ATOM     22  C   UNL     1       5.826   5.129  19.270  0.00  0.00    +0.000 A 
ENDBRANCH  16  17
ENDBRANCH  14  16
ENDBRANCH   7  12
BRANCH   1  23
ATOM     23  C   UNL     1      -1.108  12.341  22.823  0.00  0.00    +0.000 C 
BRANCH  23  24
ATOM     24  C   UNL     1      -2.546  12.034  23.250  0.00  0.00    +0.000 C 
BRANCH  24  26
ATOM     25  C   UNL     1      -4.612  13.011  23.814  0.00  0.00    +0.000 C 
ATOM     26  O   UNL     1      -3.275  13.254  23.397  0.00  0.00    +0.000 OA
ENDBRANCH  24  26
ENDBRANCH  23  24
ENDBRANCH   1  23
TORSDOF 6
ENDMDL
MODEL 8
REMARK VINA RESULT:      -7.2      2.906      9.259
REMARK  Name = 
REMARK  7 active torsions:
REMARK  status: ('A' for Active; 'I' for Inactive)
REMARK    1  A    between atoms: C_1  and  O_2
REMARK    2  A    between atoms: O_2  and  C_3
REMARK    3  A    between atoms: C_3  and  C_4
REMARK    4  A    between atoms: C_4  and  N_5
REMARK    5  A    between atoms: C_11  and  C_12
REMARK    6  A    between atoms: N_14  and  C_15
REMARK    7  A    between atoms: C_15  and  C_16
REMARK                            x       y       z     vdW  Elec       q    Type
REMARK                         _______ _______ _______ _____ _____    ______ ____
ROOT
ATOM      1  N   UNL     1      -1.115  12.074  21.330  0.00  0.00    +0.000 N 
ATOM      2  C   UNL     1      -0.738  11.077  22.186  0.00  0.00    +0.000 C 
ATOM      3  O   UNL     1      -1.056  10.887  23.344  0.00  0.00    +0.000 OA
ATOM      4  C   UNL     1       0.128  10.181  21.428  0.00  0.00    +0.000 A 
ATOM      5  C   UNL     1       0.738   9.003  21.814  0.00  0.00    +0.000 A 
ATOM      6  C   UNL     1       1.459   8.303  20.838  0.00  0.00    +0.000 A 
ATOM      7  C   UNL     1       1.562   8.801  19.516  0.00  0.00    +0.000 A 
ATOM      8  C   UNL     1       0.921  10.000  19.154  0.00  0.00    +0.000 A 
ATOM      9  C   UNL     1       0.210  10.667  20.136  0.00  0.00    +0.000 A 
ATOM     10  C   UNL     1      -0.609  11.878  20.073  0.00  0.00    +0.000 C 
ATOM     11  O   UNL     1      -0.802  12.512  19.052  0.00  0.00    +0.000 OA
ENDROOT
BRANCH   7  12
ATOM     12  C   UNL     1       2.277   8.036  18.455  0.00  0.00    +0.000 C 
ATOM     13  O   UNL     1       2.456   8.552  17.358  0.00  0.00    +0.000 OA
ATOM     14  N   UNL     1       2.714   6.773  18.786  0.00  0.00    +0.000 N 
ATOM     15  H   UNL     1       2.661   6.447  19.741  0.00  0.00    +0.000 HD
BRANCH  14  16
ATOM     16  C   UNL     1       3.428   5.938  17.839  0.00  0.00    +0.000 C 
BRANCH  16  17
ATOM     17  C   UNL     1       4.906   5.930  18.103  0.00  0.00    +0.000 A 
ATOM     18  C   UNL     1       5.800   6.622  17.278  0.00  0.00    +0.000 A 
ATOM     19  C   UNL     1       7.158   6.639  17.585  0.00  0.00    +0.000 A 
ATOM     20  C   UNL     1       7.583   5.961  18.715  0.00  0.00    +0.000 A 
ATOM     21  N   UNL     1       6.756   5.278  19.534  0.00  0.00    +0.000 NA
ATOM     22  C   UNL     1       5.440   5.282  19.212  0.00  0.00    +0.000 A 
ENDBRANCH  16  17
ENDBRANCH  14  16
ENDBRANCH   7  12
BRANCH   1  23
ATOM     23  C   UNL     1      -2.067  13.118  21.678  0.00  0.00    +0.000 C 
BRANCH  23  24
ATOM     24  C   UNL     1      -3.525  12.705  21.462  0.00  0.00    +0.000 C 
BRANCH  24  26
ATOM     25  C   UNL     1      -4.331  13.347  23.578  0.00  0.00    +0.000 C 
ATOM     26  O   UNL     1      -4.086  12.258  22.697  0.00  0.00    +0.000 OA
ENDBRANCH  24  26
ENDBRANCH  23  24
ENDBRANCH   1  23
TORSDOF 6
ENDMDL
MODEL 9
REMARK VINA RESULT:      -7.2      3.106      9.330
REMARK  Name = 
REMARK  7 active torsions:
REMARK  status: ('A' for Active; 'I' for Inactive)
REMARK    1  A    between atoms: C_1  and  O_2
REMARK    2  A    between atoms: O_2  and  C_3
REMARK    3  A    between atoms: C_3  and  C_4
REMARK    4  A    between atoms: C_4  and  N_5
REMARK    5  A    between atoms: C_11  and  C_12
REMARK    6  A    between atoms: N_14  and  C_15
REMARK    7  A    between atoms: C_15  and  C_16
REMARK                            x       y       z     vdW  Elec       q    Type
REMARK                         _______ _______ _______ _____ _____    ______ ____
ROOT
ATOM      1  N   UNL     1      -1.354  12.038  22.135  0.00  0.00    +0.000 N 
ATOM      2  C   UNL     1      -1.392  12.325  20.799  0.00  0.00    +0.000 C 
ATOM      3  O   UNL     1      -1.918  13.257  20.221  0.00  0.00    +0.000 OA
ATOM      4  C   UNL     1      -0.605  11.297  20.127  0.00  0.00    +0.000 A 
ATOM      5  C   UNL     1      -0.296  11.153  18.789  0.00  0.00    +0.000 A 
ATOM      6  C   UNL     1       0.557  10.099  18.436  0.00  0.00    +0.000 A 
ATOM      7  C   UNL     1       1.063   9.216  19.420  0.00  0.00    +0.000 A 
ATOM      8  C   UNL     1       0.735   9.396  20.776  0.00  0.00    +0.000 A 
ATOM      9  C   UNL     1      -0.103  10.449  21.097  0.00  0.00    +0.000 A 
ATOM     10  C   UNL     1      -0.573  10.942  22.393  0.00  0.00    +0.000 C 
ATOM     11  O   UNL     1      -0.250  10.454  23.459  0.00  0.00    +0.000 OA
ENDROOT
BRANCH   7  12
ATOM     12  C   UNL     1       2.016   8.127  19.065  0.00  0.00    +0.000 C 
ATOM     13  O   UNL     1       2.614   8.175  17.996  0.00  0.00    +0.000 OA
ATOM     14  N   UNL     1       2.178   7.116  19.987  0.00  0.00    +0.000 N 
ATOM     15  H   UNL     1       1.767   7.191  20.906  0.00  0.00    +0.000 HD
BRANCH  14  16
ATOM     16  C   UNL     1       3.084   6.007  19.754  0.00  0.00    +0.000 C 
BRANCH  16  17
ATOM     17  C   UNL     1       2.345   4.740  19.428  0.00  0.00    +0.000 A 
ATOM     18  C   UNL     1       1.664   4.017  20.414  0.00  0.00    +0.000 A 
ATOM     19  C   UNL     1       0.943   2.878  20.066  0.00  0.00    +0.000 A 
ATOM     20  C   UNL     1       0.924   2.495  18.735  0.00  0.00    +0.000 A 
ATOM     21  N   UNL     1       1.571   3.160  17.756  0.00  0.00    +0.000 NA
ATOM     22  C   UNL     1       2.260   4.267  18.123  0.00  0.00    +0.000 A 
ENDBRANCH  16  17
ENDBRANCH  14  16
ENDBRANCH   7  12
BRANCH   1  23
ATOM     23  C   UNL     1      -1.938  12.888  23.161  0.00  0.00    +0.000 C 
BRANCH  23  24
ATOM     24  C   UNL     1      -3.305  12.400  23.646  0.00  0.00    +0.000 C 
BRANCH  24  26
ATOM     25  C   UNL     1      -3.694  14.638  23.031  0.00  0.00    +0.000 C 
ATOM     26  O   UNL     1      -4.293  13.397  23.382  0.00  0.00    +0.000 OA
ENDBRANCH  24  26
ENDBRANCH  23  24
ENDBRANCH   1  23
TORSDOF 6
ENDMDL
