MODEL 1
REMARK VINA RESULT:      -7.3      0.000      0.000
REMARK  Name = 
REMARK  3 active torsions:
REMARK  status: ('A' for Active; 'I' for Inactive)
REMARK    1  A    between atoms: O_1  and  C_2
REMARK    2  A    between atoms: C_7  and  C_8
REMARK    3  A    between atoms: C_11  and  C_12
REMARK                            x       y       z     vdW  Elec       q    Type
REMARK                         _______ _______ _______ _____ _____    ______ ____
ROOT
ATOM      1  C   UNL     1       4.267   3.814  18.435  0.00  0.00    +0.000 A 
ATOM      2  N   UNL     1       4.503   3.244  17.239  0.00  0.00    +0.000 NA
ATOM      3  N   UNL     1       5.599   3.900  16.831  0.00  0.00    +0.000 N 
ATOM      4  C   UNL     1       6.029   4.796  17.762  0.00  0.00    +0.000 A 
ATOM      5  N   UNL     1       5.218   4.747  18.796  0.00  0.00    +0.000 NA
ATOM      6  H   UNL     1       6.009   3.704  15.925  0.00  0.00    +0.000 HD
ENDROOT
BRANCH   1  12
ATOM      7  C   UNL     1       1.818   3.473  18.845  0.00  0.00    +0.000 A 
ATOM      8  C   UNL     1       0.764   3.137  19.701  0.00  0.00    +0.000 A 
ATOM      9  C   UNL     1       1.027   2.764  21.020  0.00  0.00    +0.000 A 
ATOM     10  C   UNL     1       2.340   2.722  21.481  0.00  0.00    +0.000 A 
ATOM     11  C   UNL     1       3.392   3.061  20.625  0.00  0.00    +0.000 A 
ATOM     12  C   UNL     1       3.146   3.449  19.296  0.00  0.00    +0.000 A 
BRANCH   7  13
ATOM     13  O   UNL     1       1.528   3.791  17.544  0.00  0.00    +0.000 OA
ATOM     14  H   UNL     1       0.599   4.052  17.476  0.00  0.00    +0.000 HD
ENDBRANCH   7  13
ENDBRANCH   1  12
BRANCH   4  15
ATOM     15  C   UNL     1       7.228   5.646  17.569  0.00  0.00    +0.000 C 
ATOM     16  C   UNL     1       7.785   6.201  18.871  0.00  0.00    +0.000 C 
ATOM     17  C   UNL     1       8.337   7.536  18.439  0.00  0.00    +0.000 C 
ATOM     18  C   UNL     1       7.335   7.972  17.395  0.00  0.00    +0.000 C 
ATOM     19  O   UNL     1       6.851   6.781  16.759  0.00  0.00    +0.000 OA
ENDBRANCH   4  15
TORSDOF 3
ENDMDL
MODEL 2
REMARK VINA RESULT:      -7.2      2.460      3.205
REMARK  Name = 
REMARK  3 active torsions:
REMARK  status: ('A' for Active; 'I' for Inactive)
REMARK    1  A    between atoms: O_1  and  C_2
REMARK    2  A    between atoms: C_7  and  C_8
REMARK    3  A    between atoms: C_11  and  C_12
REMARK                            x       y       z     vdW  Elec       q    Type
REMARK                         _______ _______ _______ _____ _____    ______ ____
ROOT
ATOM      1  C   UNL     1       4.758   4.156  18.396  0.00  0.00    +0.000 A 
ATOM      2  N   UNL     1       6.096   4.169  18.531  0.00  0.00    +0.000 NA
ATOM      3  N   UNL     1       6.499   4.443  17.281  0.00  0.00    +0.000 N 
ATOM      4  C   UNL     1       5.443   4.630  16.440  0.00  0.00    +0.000 A 
ATOM      5  N   UNL     1       4.331   4.476  17.123  0.00  0.00    +0.000 NA
ATOM      6  H   UNL     1       7.486   4.492  17.057  0.00  0.00    +0.000 HD
ENDROOT
BRANCH   1  12
ATOM      7  C   UNL     1       3.910   2.704  20.255  0.00  0.00    +0.000 A 
ATOM      8  C   UNL     1       3.000   2.462  21.290  0.00  0.00    +0.000 A 
ATOM      9  C   UNL     1       2.012   3.402  21.586  0.00  0.00    +0.000 A 
ATOM     10  C   UNL     1       1.935   4.583  20.853  0.00  0.00    +0.000 A 
ATOM     11  C   UNL     1       2.843   4.822  19.816  0.00  0.00    +0.000 A 
ATOM     12  C   UNL     1       3.839   3.882  19.497  0.00  0.00    +0.000 A 
BRANCH   7  13
ATOM     13  O   UNL     1       4.895   1.781  20.021  0.00  0.00    +0.000 OA
ATOM     14  H   UNL     1       4.616   0.920  20.361  0.00  0.00    +0.000 HD
ENDBRANCH   7  13
ENDBRANCH   1  12
BRANCH   4  15
ATOM     15  C   UNL     1       5.607   4.956  15.004  0.00  0.00    +0.000 C 
ATOM     16  C   UNL     1       5.607   3.728  14.107  0.00  0.00    +0.000 C 
ATOM     17  C   UNL     1       6.543   4.141  12.999  0.00  0.00    +0.000 C 
ATOM     18  C   UNL     1       7.571   4.964  13.741  0.00  0.00    +0.000 C 
ATOM     19  O   UNL     1       6.890   5.600  14.830  0.00  0.00    +0.000 OA
ENDBRANCH   4  15
TORSDOF 3
ENDMDL
MODEL 3
REMARK VINA RESULT:      -7.2      1.078      1.160
REMARK  Name = 
REMARK  3 active torsions:
REMARK  status: ('A' for Active; 'I' for Inactive)
REMARK    1  A    between atoms: O_1  and  C_2
REMARK    2  A    between atoms: C_7  and  C_8
REMARK    3  A    between atoms: C_11  and  C_12
REMARK                            x       y       z     vdW  Elec       q    Type
REMARK                         _______ _______ _______ _____ _____    ______ ____
ROOT
ATOM      1  C   UNL     1       4.256   3.993  18.151  0.00  0.00    +0.000 A 
ATOM      2  N   UNL     1       4.592   3.397  16.992  0.00  0.00    +0.000 NA
ATOM      3  N   UNL     1       5.738   4.021  16.682  0.00  0.00    +0.000 N 
ATOM      4  C   UNL     1       6.098   4.923  17.637  0.00  0.00    +0.000 A 
ATOM      5  N   UNL     1       5.190   4.911  18.588  0.00  0.00    +0.000 NA
ATOM      6  H   UNL     1       6.229   3.800  15.823  0.00  0.00    +0.000 HD
ENDROOT
BRANCH   1  12
ATOM      7  C   UNL     1       2.486   2.382  18.898  0.00  0.00    +0.000 A 
ATOM      8  C   UNL     1       1.316   2.109  19.614  0.00  0.00    +0.000 A 
ATOM      9  C   UNL     1       0.698   3.117  20.354  0.00  0.00    +0.000 A 
ATOM     10  C   UNL     1       1.248   4.395  20.383  0.00  0.00    +0.000 A 
ATOM     11  C   UNL     1       2.417   4.668  19.664  0.00  0.00    +0.000 A 
ATOM     12  C   UNL     1       3.048   3.668  18.904  0.00  0.00    +0.000 A 
BRANCH   7  13
ATOM     13  O   UNL     1       3.092   1.359  18.218  0.00  0.00    +0.000 OA
ATOM     14  H   UNL     1       4.007   1.271  18.519  0.00  0.00    +0.000 HD
ENDBRANCH   7  13
ENDBRANCH   1  12
BRANCH   4  15
ATOM     15  C   UNL     1       7.329   5.742  17.548  0.00  0.00    +0.000 C 
ATOM     16  C   UNL     1       7.807   6.255  18.898  0.00  0.00    +0.000 C 
ATOM     17  C   UNL     1       8.424   7.582  18.536  0.00  0.00    +0.000 C 
ATOM     18  C   UNL     1       7.511   8.068  17.434  0.00  0.00    +0.000 C 
ATOM     19  O   UNL     1       7.042   6.905  16.738  0.00  0.00    +0.000 OA
ENDBRANCH   4  15
TORSDOF 3
ENDMDL
MODEL 4
REMARK VINA RESULT:      -7.1      1.217      1.628
REMARK  Name = 
REMARK  3 active torsions:
REMARK  status: ('A' for Active; 'I' for Inactive)
REMARK    1  A    between atoms: O_1  and  C_2
REMARK    2  A    between atoms: C_7  and  C_8
REMARK    3  A    between atoms: C_11  and  C_12
REMARK                            x       y       z     vdW  Elec       q    Type
REMARK                         _______ _______ _______ _____ _____    ______ ____
ROOT
ATOM      1  C   UNL     1       4.256   4.123  18.473  0.00  0.00    +0.000 A 
ATOM      2  N   UNL     1       4.353   3.659  17.214  0.00  0.00    +0.000 NA
ATOM      3  N   UNL     1       5.420   4.328  16.753  0.00  0.00    +0.000 N 
ATOM      4  C   UNL     1       5.967   5.128  17.710  0.00  0.00    +0.000 A 
ATOM      5  N   UNL     1       5.264   5.002  18.813  0.00  0.00    +0.000 NA
ATOM      6  H   UNL     1       5.731   4.206  15.796  0.00  0.00    +0.000 HD
ENDROOT
BRANCH   1  12
ATOM      7  C   UNL     1       3.456   2.747  20.410  0.00  0.00    +0.000 A 
ATOM      8  C   UNL     1       2.435   2.350  21.279  0.00  0.00    +0.000 A 
ATOM      9  C   UNL     1       1.163   2.912  21.166  0.00  0.00    +0.000 A 
ATOM     10  C   UNL     1       0.912   3.872  20.188  0.00  0.00    +0.000 A 
ATOM     11  C   UNL     1       1.934   4.266  19.318  0.00  0.00    +0.000 A 
ATOM     12  C   UNL     1       3.218   3.703  19.411  0.00  0.00    +0.000 A 
BRANCH   7  13
ATOM     13  O   UNL     1       4.704   2.208  20.578  0.00  0.00    +0.000 OA
ATOM     14  H   UNL     1       4.731   1.327  20.181  0.00  0.00    +0.000 HD
ENDBRANCH   7  13
ENDBRANCH   1  12
BRANCH   4  15
ATOM     15  C   UNL     1       7.163   5.969  17.468  0.00  0.00    +0.000 C 
ATOM     16  C   UNL     1       7.862   6.398  18.749  0.00  0.00    +0.000 C 
ATOM     17  C   UNL     1       8.404   7.756  18.378  0.00  0.00    +0.000 C 
ATOM     18  C   UNL     1       7.315   8.300  17.482  0.00  0.00    +0.000 C 
ATOM     19  O   UNL     1       6.738   7.178  16.800  0.00  0.00    +0.000 OA
ENDBRANCH   4  15
TORSDOF 3
ENDMDL
MODEL 5
REMARK VINA RESULT:      -7.1      1.253      1.521
REMARK  Name = 
REMARK  3 active torsions:
REMARK  status: ('A' for Active; 'I' for Inactive)
REMARK    1  A    between atoms: O_1  and  C_2
REMARK    2  A    between atoms: C_7  and  C_8
REMARK    3  A    between atoms: C_11  and  C_12
REMARK                            x       y       z     vdW  Elec       q    Type
REMARK                         _______ _______ _______ _____ _____    ______ ____
ROOT
ATOM      1  C   UNL     1       4.113   4.242  17.904  0.00  0.00    +0.000 A 
ATOM      2  N   UNL     1       4.384   3.802  16.662  0.00  0.00    +0.000 NA
ATOM      3  N   UNL     1       5.556   4.402  16.404  0.00  0.00    +0.000 N 
ATOM      4  C   UNL     1       5.991   5.138  17.465  0.00  0.00    +0.000 A 
ATOM      5  N   UNL     1       5.109   5.037  18.434  0.00  0.00    +0.000 NA
ATOM      6  H   UNL     1       6.010   4.281  15.507  0.00  0.00    +0.000 HD
ENDROOT
BRANCH   1  12
ATOM      7  C   UNL     1       2.525   4.539  19.822  0.00  0.00    +0.000 A 
ATOM      8  C   UNL     1       1.378   4.151  20.520  0.00  0.00    +0.000 A 
ATOM      9  C   UNL     1       0.593   3.099  20.045  0.00  0.00    +0.000 A 
ATOM     10  C   UNL     1       0.952   2.438  18.874  0.00  0.00    +0.000 A 
ATOM     11  C   UNL     1       2.102   2.826  18.178  0.00  0.00    +0.000 A 
ATOM     12  C   UNL     1       2.909   3.877  18.645  0.00  0.00    +0.000 A 
BRANCH   7  13
ATOM     13  O   UNL     1       3.247   5.605  20.290  0.00  0.00    +0.000 OA
ATOM     14  H   UNL     1       3.908   5.292  20.923  0.00  0.00    +0.000 HD
ENDBRANCH   7  13
ENDBRANCH   1  12
BRANCH   4  15
ATOM     15  C   UNL     1       7.264   5.896  17.450  0.00  0.00    +0.000 C 
ATOM     16  C   UNL     1       7.751   6.275  18.840  0.00  0.00    +0.000 C 
ATOM     17  C   UNL     1       8.441   7.593  18.589  0.00  0.00    +0.000 C 
ATOM     18  C   UNL     1       7.568   8.210  17.521  0.00  0.00    +0.000 C 
ATOM     19  O   UNL     1       7.047   7.132  16.733  0.00  0.00    +0.000 OA
ENDBRANCH   4  15
TORSDOF 3
ENDMDL
MODEL 6
REMARK VINA RESULT:      -7.0      2.152      2.746
REMARK  Name = 
REMARK  3 active torsions:
REMARK  status: ('A' for Active; 'I' for Inactive)
REMARK    1  A    between atoms: O_1  and  C_2
REMARK    2  A    between atoms: C_7  and  C_8
REMARK    3  A    between atoms: C_11  and  C_12
REMARK                            x       y       z     vdW  Elec       q    Type
REMARK                         _______ _______ _______ _____ _____    ______ ____
ROOT
ATOM      1  C   UNL     1       4.498   3.871  18.528  0.00  0.00    +0.000 A 
ATOM      2  N   UNL     1       5.597   4.167  19.245  0.00  0.00    +0.000 NA
ATOM      3  N   UNL     1       6.542   4.222  18.294  0.00  0.00    +0.000 N 
ATOM      4  C   UNL     1       6.023   4.011  17.052  0.00  0.00    +0.000 A 
ATOM      5  N   UNL     1       4.729   3.808  17.169  0.00  0.00    +0.000 NA
ATOM      6  H   UNL     1       7.509   4.403  18.538  0.00  0.00    +0.000 HD
ENDROOT
BRANCH   1  12
ATOM      7  C   UNL     1       2.319   2.647  18.722  0.00  0.00    +0.000 A 
ATOM      8  C   UNL     1       1.049   2.509  19.293  0.00  0.00    +0.000 A 
ATOM      9  C   UNL     1       0.623   3.405  20.274  0.00  0.00    +0.000 A 
ATOM     10  C   UNL     1       1.464   4.435  20.687  0.00  0.00    +0.000 A 
ATOM     11  C   UNL     1       2.732   4.573  20.114  0.00  0.00    +0.000 A 
ATOM     12  C   UNL     1       3.175   3.686  19.118  0.00  0.00    +0.000 A 
BRANCH   7  13
ATOM     13  O   UNL     1       2.723   1.723  17.795  0.00  0.00    +0.000 OA
ATOM     14  H   UNL     1       3.661   1.527  17.925  0.00  0.00    +0.000 HD
ENDBRANCH   7  13
ENDBRANCH   1  12
BRANCH   4  15
ATOM     15  C   UNL     1       6.847   4.029  15.821  0.00  0.00    +0.000 C 
ATOM     16  C   UNL     1       7.013   5.421  15.231  0.00  0.00    +0.000 C 
ATOM     17  C   UNL     1       7.091   5.134  13.753  0.00  0.00    +0.000 C 
ATOM     18  C   UNL     1       6.127   3.980  13.601  0.00  0.00    +0.000 C 
ATOM     19  O   UNL     1       6.182   3.227  14.819  0.00  0.00    +0.000 OA
ENDBRANCH   4  15
TORSDOF 3
ENDMDL
MODEL 7
REMARK VINA RESULT:      -7.0      2.248      2.838
REMARK  Name = 
REMARK  3 active torsions:
REMARK  status: ('A' for Active; 'I' for Inactive)
REMARK    1  A    between atoms: O_1  and  C_2
REMARK    2  A    between atoms: C_7  and  C_8
REMARK    3  A    between atoms: C_11  and  C_12
REMARK                            x       y       z     vdW  Elec       q    Type
REMARK                         _______ _______ _______ _____ _____    ______ ____
ROOT
ATOM      1  C   UNL     1       4.278   3.946  18.207  0.00  0.00    +0.000 A 
ATOM      2  N   UNL     1       5.592   3.965  18.498  0.00  0.00    +0.000 NA
ATOM      3  N   UNL     1       6.132   4.305  17.318  0.00  0.00    +0.000 N 
ATOM      4  C   UNL     1       5.178   4.523  16.369  0.00  0.00    +0.000 A 
ATOM      5  N   UNL     1       3.997   4.324  16.910  0.00  0.00    +0.000 NA
ATOM      6  H   UNL     1       7.137   4.374  17.212  0.00  0.00    +0.000 HD
ENDROOT
BRANCH   1  12
ATOM      7  C   UNL     1       2.382   2.513  19.006  0.00  0.00    +0.000 A 
ATOM      8  C   UNL     1       1.385   2.229  19.945  0.00  0.00    +0.000 A 
ATOM      9  C   UNL     1       1.241   3.034  21.075  0.00  0.00    +0.000 A 
ATOM     10  C   UNL     1       2.093   4.118  21.270  0.00  0.00    +0.000 A 
ATOM     11  C   UNL     1       3.087   4.402  20.329  0.00  0.00    +0.000 A 
ATOM     12  C   UNL     1       3.242   3.609  19.179  0.00  0.00    +0.000 A 
BRANCH   7  13
ATOM     13  O   UNL     1       2.525   1.676  17.931  0.00  0.00    +0.000 OA
ATOM     14  H   UNL     1       3.162   0.981  18.147  0.00  0.00    +0.000 HD
ENDBRANCH   7  13
ENDBRANCH   1  12
BRANCH   4  15
ATOM     15  C   UNL     1       5.503   4.922  14.980  0.00  0.00    +0.000 C 
ATOM     16  C   UNL     1       5.616   3.741  14.028  0.00  0.00    +0.000 C 
ATOM     17  C   UNL     1       6.669   4.212  13.057  0.00  0.00    +0.000 C 
ATOM     18  C   UNL     1       7.598   4.999  13.952  0.00  0.00    +0.000 C 
ATOM     19  O   UNL     1       6.791   5.577  14.986  0.00  0.00    +0.000 OA
ENDBRANCH   4  15
TORSDOF 3
ENDMDL
MODEL 8
REMARK VINA RESULT:      -7.0      3.022      6.544
REMARK  Name = 
REMARK  3 active torsions:
REMARK  status: ('A' for Active; 'I' for Inactive)
REMARK    1  A    between atoms: O_1  and  C_2
REMARK    2  A    between atoms: C_7  and  C_8
REMARK    3  A    between atoms: C_11  and  C_12
REMARK                            x       y       z     vdW  Elec       q    Type
REMARK                         _______ _______ _______ _____ _____    ______ ____
ROOT
ATOM      1  C   UNL     1       5.124   4.720  15.886  0.00  0.00    +0.000 A 
ATOM      2  N   UNL     1       5.100   5.904  16.524  0.00  0.00    +0.000 NA
ATOM      3  N   UNL     1       4.362   5.620  17.608  0.00  0.00    +0.000 N 
ATOM      4  C   UNL     1       3.995   4.309  17.640  0.00  0.00    +0.000 A 
ATOM      5  N   UNL     1       4.481   3.711  16.575  0.00  0.00    +0.000 NA
ATOM      6  H   UNL     1       4.140   6.342  18.284  0.00  0.00    +0.000 HD
ENDROOT
BRANCH   1  12
ATOM      7  C   UNL     1       7.058   5.071  14.330  0.00  0.00    +0.000 A 
ATOM      8  C   UNL     1       7.676   4.861  13.093  0.00  0.00    +0.000 A 
ATOM      9  C   UNL     1       7.054   4.071  12.126  0.00  0.00    +0.000 A 
ATOM     10  C   UNL     1       5.818   3.489  12.394  0.00  0.00    +0.000 A 
ATOM     11  C   UNL     1       5.200   3.702  13.631  0.00  0.00    +0.000 A 
ATOM     12  C   UNL     1       5.807   4.503  14.614  0.00  0.00    +0.000 A 
BRANCH   7  13
ATOM     13  O   UNL     1       7.717   5.814  15.273  0.00  0.00    +0.000 OA
ATOM     14  H   UNL     1       7.736   6.741  14.997  0.00  0.00    +0.000 HD
ENDBRANCH   7  13
ENDBRANCH   1  12
BRANCH   4  15
ATOM     15  C   UNL     1       3.183   3.727  18.735  0.00  0.00    +0.000 C 
ATOM     16  C   UNL     1       1.704   3.625  18.395  0.00  0.00    +0.000 C 
ATOM     17  C   UNL     1       1.052   3.833  19.739  0.00  0.00    +0.000 C 
ATOM     18  C   UNL     1       1.967   4.850  20.382  0.00  0.00    +0.000 C 
ATOM     19  O   UNL     1       3.288   4.596  19.886  0.00  0.00    +0.000 OA
ENDBRANCH   4  15
TORSDOF 3
ENDMDL
MODEL 9
REMARK VINA RESULT:      -6.9      2.093      2.692
REMARK  Name = 
REMARK  3 active torsions:
REMARK  status: ('A' for Active; 'I' for Inactive)
REMARK    1  A    between atoms: O_1  and  C_2
REMARK    2  A    between atoms: C_7  and  C_8
REMARK    3  A    between atoms: C_11  and  C_12
REMARK                            x       y       z     vdW  Elec       q    Type
REMARK                         _______ _______ _______ _____ _____    ______ ____
ROOT
ATOM      1  C   UNL     1       3.301   5.309  18.311  0.00  0.00    +0.000 A 
ATOM      2  N   UNL     1       3.360   6.651  18.381  0.00  0.00    +0.000 NA
ATOM      3  N   UNL     1       4.170   6.947  17.354  0.00  0.00    +0.000 N 
ATOM      4  C   UNL     1       4.546   5.832  16.669  0.00  0.00    +0.000 A 
ATOM      5  N   UNL     1       3.994   4.784  17.239  0.00  0.00    +0.000 NA
ATOM      6  H   UNL     1       4.431   7.908  17.164  0.00  0.00    +0.000 HD
ENDROOT
BRANCH   1  12
ATOM      7  C   UNL     1       1.472   3.673  18.825  0.00  0.00    +0.000 A 
ATOM      8  C   UNL     1       0.747   2.911  19.747  0.00  0.00    +0.000 A 
ATOM      9  C   UNL     1       1.084   2.945  21.101  0.00  0.00    +0.000 A 
ATOM     10  C   UNL     1       2.146   3.735  21.533  0.00  0.00    +0.000 A 
ATOM     11  C   UNL     1       2.869   4.498  20.610  0.00  0.00    +0.000 A 
ATOM     12  C   UNL     1       2.538   4.485  19.244  0.00  0.00    +0.000 A 
BRANCH   7  13
ATOM     13  O   UNL     1       1.144   3.582  17.499  0.00  0.00    +0.000 OA
ATOM     14  H   UNL     1       1.928   3.338  16.989  0.00  0.00    +0.000 HD
ENDBRANCH   7  13
ENDBRANCH   1  12
BRANCH   4  15
ATOM     15  C   UNL     1       5.431   5.877  15.481  0.00  0.00    +0.000 C 
ATOM     16  C   UNL     1       5.321   4.639  14.605  0.00  0.00    +0.000 C 
ATOM     17  C   UNL     1       6.721   4.507  14.061  0.00  0.00    +0.000 C 
ATOM     18  C   UNL     1       7.562   4.956  15.234  0.00  0.00    +0.000 C 
ATOM     19  O   UNL     1       6.800   5.944  15.939  0.00  0.00    +0.000 OA
ENDBRANCH   4  15
TORSDOF 3
ENDMDL
