MODEL 1
REMARK VINA RESULT:      -6.9      0.000      0.000
REMARK  Name = 
REMARK  16 active torsions:
REMARK  status: ('A' for Active; 'I' for Inactive)
REMARK    1  A    between atoms: C_1  and  C_2
REMARK    2  A    between atoms: C_2  and  C_3
REMARK    3  A    between atoms: C_8  and  C_9
REMARK    4  A    between atoms: C_9  and  C_10
REMARK    5  A    between atoms: N_13  and  C_14
REMARK    6  A    between atoms: C_14  and  C_15
REMARK    7  A    between atoms: C_15  and  C_16
REMARK    8  A    between atoms: C_16  and  C_17
REMARK    9  A    between atoms: N_18  and  O_19
REMARK   10  A    between atoms: O_19  and  C_20
REMARK   11  A    between atoms: C_20  and  C_21
REMARK   12  A    between atoms: C_21  and  O_22
REMARK   13  A    between atoms: C_21  and  C_23
REMARK   14  A    between atoms: C_23  and  O_24
REMARK   15  A    between atoms: O_24  and  C_25
REMARK   16  A    between atoms: C_25  and  C_26
REMARK                            x       y       z     vdW  Elec       q    Type
REMARK                         _______ _______ _______ _____ _____    ______ ____
ROOT
ATOM      1  C   UNL     1       1.774   8.822  17.749  0.00  0.00    +0.000 C 
ENDROOT
BRANCH   1   2
ATOM      2  C   UNL     1       2.656   7.698  18.258  0.00  0.00    +0.000 C 
ATOM      3  C   UNL     1       2.277   7.001  19.544  0.00  0.00    +0.000 C 
ATOM      4  N   UNL     1       3.694   7.366  17.548  0.00  0.00    +0.000 NA
BRANCH   4   5
ATOM      5  O   UNL     1       4.376   6.285  18.123  0.00  0.00    +0.000 OA
BRANCH   5   6
ATOM      6  C   UNL     1       5.368   5.819  17.199  0.00  0.00    +0.000 C 
BRANCH   6   7
ATOM      7  C   UNL     1       4.815   4.584  16.477  0.00  0.00    +0.000 C 
BRANCH   7   8
ATOM      8  O   UNL     1       5.853   3.609  16.306  0.00  0.00    +0.000 OA
ATOM      9  H   UNL     1       6.429   3.945  15.593  0.00  0.00    +0.000 HD
ENDBRANCH   7   8
BRANCH   7  10
ATOM     10  C   UNL     1       3.644   3.943  17.230  0.00  0.00    +0.000 C 
BRANCH  10  11
ATOM     11  O   UNL     1       4.071   2.723  17.827  0.00  0.00    +0.000 OA
BRANCH  11  12
ATOM     12  C   UNL     1       2.970   1.872  18.142  0.00  0.00    +0.000 C 
BRANCH  12  13
ATOM     13  C   UNL     1       2.382   2.372  19.408  0.00  0.00    +0.000 A 
ATOM     14  C   UNL     1       1.118   2.790  19.771  0.00  0.00    +0.000 A 
ATOM     15  C   UNL     1       1.191   3.148  21.137  0.00  0.00    +0.000 A 
ATOM     16  C   UNL     1       2.494   2.936  21.519  0.00  0.00    +0.000 A 
ATOM     17  O   UNL     1       3.227   2.471  20.475  0.00  0.00    +0.000 OA
ENDBRANCH  12  13
ENDBRANCH  11  12
ENDBRANCH  10  11
ENDBRANCH   7  10
ENDBRANCH   6   7
ENDBRANCH   5   6
ENDBRANCH   4   5
ENDBRANCH   1   2
BRANCH   1  18
ATOM     18  C   UNL     1       1.254   9.698  18.893  0.00  0.00    +0.000 C 
BRANCH  18  27
ATOM     19  C   UNL     1      -3.898  12.872  20.218  0.00  0.00    +0.000 A 
ATOM     20  C   UNL     1      -2.557  12.481  20.351  0.00  0.00    +0.000 A 
ATOM     21  C   UNL     1      -1.997  11.556  19.470  0.00  0.00    +0.000 A 
ATOM     22  C   UNL     1      -2.806  11.069  18.453  0.00  0.00    +0.000 A 
ATOM     23  N   UNL     1      -4.095  11.455  18.278  0.00  0.00    +0.000 NA
ATOM     24  C   UNL     1      -4.636  12.343  19.149  0.00  0.00    +0.000 A 
ATOM     25  C   UNL     1      -2.295   9.993  17.541  0.00  0.00    +0.000 C 
ATOM     26  C   UNL     1      -0.766   9.935  17.510  0.00  0.00    +0.000 C 
ATOM     27  N   UNL     1      -0.212   9.895  18.879  0.00  0.00    +0.000 NA
ATOM     28  C   UNL     1      -0.547  11.157  19.576  0.00  0.00    +0.000 C 
BRANCH  19  30
ATOM     29  C   UNL     1      -3.484  14.085  22.362  0.00  0.00    +0.000 C 
ATOM     30  C   UNL     1      -4.498  13.773  21.268  0.00  0.00    +0.000 C 
ENDBRANCH  19  30
BRANCH  24  31
ATOM     31  C   UNL     1      -6.086  12.720  18.930  0.00  0.00    +0.000 C 
ATOM     32  C   UNL     1      -6.904  11.718  18.122  0.00  0.00    +0.000 C 
ENDBRANCH  24  31
ENDBRANCH  18  27
ENDBRANCH   1  18
TORSDOF 13
ENDMDL
MODEL 2
REMARK VINA RESULT:      -6.8      3.933     11.170
REMARK  Name = 
REMARK  16 active torsions:
REMARK  status: ('A' for Active; 'I' for Inactive)
REMARK    1  A    between atoms: C_1  and  C_2
REMARK    2  A    between atoms: C_2  and  C_3
REMARK    3  A    between atoms: C_8  and  C_9
REMARK    4  A    between atoms: C_9  and  C_10
REMARK    5  A    between atoms: N_13  and  C_14
REMARK    6  A    between atoms: C_14  and  C_15
REMARK    7  A    between atoms: C_15  and  C_16
REMARK    8  A    between atoms: C_16  and  C_17
REMARK    9  A    between atoms: N_18  and  O_19
REMARK   10  A    between atoms: O_19  and  C_20
REMARK   11  A    between atoms: C_20  and  C_21
REMARK   12  A    between atoms: C_21  and  O_22
REMARK   13  A    between atoms: C_21  and  C_23
REMARK   14  A    between atoms: C_23  and  O_24
REMARK   15  A    between atoms: O_24  and  C_25
REMARK   16  A    between atoms: C_25  and  C_26
REMARK                            x       y       z     vdW  Elec       q    Type
REMARK                         _______ _______ _______ _____ _____    ______ ____
ROOT
ATOM      1  C   UNL     1       3.133   4.149  19.033  0.00  0.00    +0.000 C 
ENDROOT
BRANCH   1   2
ATOM      2  C   UNL     1       2.115   4.937  19.837  0.00  0.00    +0.000 C 
ATOM      3  C   UNL     1       0.936   4.205  20.433  0.00  0.00    +0.000 C 
ATOM      4  N   UNL     1       2.319   6.211  19.999  0.00  0.00    +0.000 NA
BRANCH   4   5
ATOM      5  O   UNL     1       1.323   6.784  20.802  0.00  0.00    +0.000 OA
BRANCH   5   6
ATOM      6  C   UNL     1       1.489   8.208  20.798  0.00  0.00    +0.000 C 
BRANCH   6   7
ATOM      7  C   UNL     1       0.133   8.854  21.108  0.00  0.00    +0.000 C 
BRANCH   7   8
ATOM      8  O   UNL     1      -0.620   8.014  21.994  0.00  0.00    +0.000 OA
ATOM      9  H   UNL     1      -1.103   8.612  22.595  0.00  0.00    +0.000 HD
ENDBRANCH   7   8
BRANCH   7  10
ATOM     10  C   UNL     1       0.279  10.244  21.737  0.00  0.00    +0.000 C 
BRANCH  10  11
ATOM     11  O   UNL     1      -0.918  10.581  22.431  0.00  0.00    +0.000 OA
BRANCH  11  12
ATOM     12  C   UNL     1      -1.004  11.981  22.693  0.00  0.00    +0.000 C 
BRANCH  12  13
ATOM     13  C   UNL     1      -2.443  12.337  22.688  0.00  0.00    +0.000 A 
ATOM     14  C   UNL     1      -3.392  12.485  23.679  0.00  0.00    +0.000 A 
ATOM     15  C   UNL     1      -4.597  12.843  23.032  0.00  0.00    +0.000 A 
ATOM     16  C   UNL     1      -4.312  12.881  21.687  0.00  0.00    +0.000 A 
ATOM     17  O   UNL     1      -3.009  12.570  21.467  0.00  0.00    +0.000 OA
ENDBRANCH  12  13
ENDBRANCH  11  12
ENDBRANCH  10  11
ENDBRANCH   7  10
ENDBRANCH   6   7
ENDBRANCH   5   6
ENDBRANCH   4   5
ENDBRANCH   1   2
BRANCH   1  18
ATOM     18  C   UNL     1       4.569   4.502  19.432  0.00  0.00    +0.000 C 
BRANCH  18  27
ATOM     19  C   UNL     1       6.029   3.895  13.443  0.00  0.00    +0.000 A 
ATOM     20  C   UNL     1       5.294   3.674  14.618  0.00  0.00    +0.000 A 
ATOM     21  C   UNL     1       5.622   4.342  15.797  0.00  0.00    +0.000 A 
ATOM     22  C   UNL     1       6.675   5.246  15.749  0.00  0.00    +0.000 A 
ATOM     23  N   UNL     1       7.382   5.505  14.620  0.00  0.00    +0.000 NA
ATOM     24  C   UNL     1       7.066   4.839  13.483  0.00  0.00    +0.000 A 
ATOM     25  C   UNL     1       7.144   5.914  17.008  0.00  0.00    +0.000 C 
ATOM     26  C   UNL     1       6.070   5.920  18.098  0.00  0.00    +0.000 C 
ATOM     27  N   UNL     1       5.509   4.567  18.293  0.00  0.00    +0.000 NA
ATOM     28  C   UNL     1       4.816   4.145  17.055  0.00  0.00    +0.000 C 
BRANCH  19  30
ATOM     29  C   UNL     1       4.415   3.490  11.581  0.00  0.00    +0.000 C 
ATOM     30  C   UNL     1       5.724   3.056  12.228  0.00  0.00    +0.000 C 
ENDBRANCH  19  30
BRANCH  24  31
ATOM     31  C   UNL     1       7.901   5.142  12.257  0.00  0.00    +0.000 C 
ATOM     32  C   UNL     1       8.769   6.393  12.355  0.00  0.00    +0.000 C 
ENDBRANCH  24  31
ENDBRANCH  18  27
ENDBRANCH   1  18
TORSDOF 13
ENDMDL
MODEL 3
REMARK VINA RESULT:      -6.7      3.616     10.336
REMARK  Name = 
REMARK  16 active torsions:
REMARK  status: ('A' for Active; 'I' for Inactive)
REMARK    1  A    between atoms: C_1  and  C_2
REMARK    2  A    between atoms: C_2  and  C_3
REMARK    3  A    between atoms: C_8  and  C_9
REMARK    4  A    between atoms: C_9  and  C_10
REMARK    5  A    between atoms: N_13  and  C_14
REMARK    6  A    between atoms: C_14  and  C_15
REMARK    7  A    between atoms: C_15  and  C_16
REMARK    8  A    between atoms: C_16  and  C_17
REMARK    9  A    between atoms: N_18  and  O_19
REMARK   10  A    between atoms: O_19  and  C_20
REMARK   11  A    between atoms: C_20  and  C_21
REMARK   12  A    between atoms: C_21  and  O_22
REMARK   13  A    between atoms: C_21  and  C_23
REMARK   14  A    between atoms: C_23  and  O_24
REMARK   15  A    between atoms: O_24  and  C_25
REMARK   16  A    between atoms: C_25  and  C_26
REMARK                            x       y       z     vdW  Elec       q    Type
REMARK                         _______ _______ _______ _____ _____    ______ ____
ROOT
ATOM      1  C   UNL     1       3.244   3.329  19.150  0.00  0.00    +0.000 C 
ENDROOT
BRANCH   1   2
ATOM      2  C   UNL     1       2.416   4.549  18.790  0.00  0.00    +0.000 C 
ATOM      3  C   UNL     1       1.454   4.458  17.629  0.00  0.00    +0.000 C 
ATOM      4  N   UNL     1       2.555   5.618  19.516  0.00  0.00    +0.000 NA
BRANCH   4   5
ATOM      5  O   UNL     1       1.692   6.637  19.090  0.00  0.00    +0.000 OA
BRANCH   5   6
ATOM      6  C   UNL     1       2.213   7.899  19.526  0.00  0.00    +0.000 C 
BRANCH   6   7
ATOM      7  C   UNL     1       2.344   8.816  18.304  0.00  0.00    +0.000 C 
BRANCH   7   8
ATOM      8  O   UNL     1       2.913   8.092  17.205  0.00  0.00    +0.000 OA
ATOM      9  H   UNL     1       3.426   7.359  17.595  0.00  0.00    +0.000 HD
ENDBRANCH   7   8
BRANCH   7  10
ATOM     10  C   UNL     1       0.999   9.410  17.873  0.00  0.00    +0.000 C 
BRANCH  10  11
ATOM     11  O   UNL     1       0.626  10.451  18.771  0.00  0.00    +0.000 OA
BRANCH  11  12
ATOM     12  C   UNL     1      -0.705  10.282  19.256  0.00  0.00    +0.000 C 
BRANCH  12  13
ATOM     13  C   UNL     1      -0.627  10.245  20.736  0.00  0.00    +0.000 A 
ATOM     14  C   UNL     1      -0.604  11.219  21.713  0.00  0.00    +0.000 A 
ATOM     15  C   UNL     1      -0.523  10.543  22.953  0.00  0.00    +0.000 A 
ATOM     16  C   UNL     1      -0.491   9.201  22.655  0.00  0.00    +0.000 A 
ATOM     17  O   UNL     1      -0.547   9.009  21.312  0.00  0.00    +0.000 OA
ENDBRANCH  12  13
ENDBRANCH  11  12
ENDBRANCH  10  11
ENDBRANCH   7  10
ENDBRANCH   6   7
ENDBRANCH   5   6
ENDBRANCH   4   5
ENDBRANCH   1   2
BRANCH   1  18
ATOM     18  C   UNL     1       4.659   3.714  19.594  0.00  0.00    +0.000 C 
BRANCH  18  27
ATOM     19  C   UNL     1       6.157   3.860  13.585  0.00  0.00    +0.000 A 
ATOM     20  C   UNL     1       5.452   3.449  14.726  0.00  0.00    +0.000 A 
ATOM     21  C   UNL     1       5.713   4.027  15.969  0.00  0.00    +0.000 A 
ATOM     22  C   UNL     1       6.668   5.033  16.019  0.00  0.00    +0.000 A 
ATOM     23  N   UNL     1       7.341   5.475  14.927  0.00  0.00    +0.000 NA
ATOM     24  C   UNL     1       7.092   4.896  13.727  0.00  0.00    +0.000 A 
ATOM     25  C   UNL     1       7.069   5.617  17.342  0.00  0.00    +0.000 C 
ATOM     26  C   UNL     1       6.003   5.404  18.418  0.00  0.00    +0.000 C 
ATOM     27  N   UNL     1       5.584   3.988  18.474  0.00  0.00    +0.000 NA
ATOM     28  C   UNL     1       4.935   3.624  17.195  0.00  0.00    +0.000 C 
BRANCH  19  30
ATOM     29  C   UNL     1       4.541   3.386  11.741  0.00  0.00    +0.000 C 
ATOM     30  C   UNL     1       5.937   3.120  12.290  0.00  0.00    +0.000 C 
ENDBRANCH  19  30
BRANCH  24  31
ATOM     31  C   UNL     1       7.889   5.404  12.543  0.00  0.00    +0.000 C 
ATOM     32  C   UNL     1       9.197   6.106  12.893  0.00  0.00    +0.000 C 
ENDBRANCH  24  31
ENDBRANCH  18  27
ENDBRANCH   1  18
TORSDOF 13
ENDMDL
MODEL 4
REMARK VINA RESULT:      -6.7      3.710     10.934
REMARK  Name = 
REMARK  16 active torsions:
REMARK  status: ('A' for Active; 'I' for Inactive)
REMARK    1  A    between atoms: C_1  and  C_2
REMARK    2  A    between atoms: C_2  and  C_3
REMARK    3  A    between atoms: C_8  and  C_9
REMARK    4  A    between atoms: C_9  and  C_10
REMARK    5  A    between atoms: N_13  and  C_14
REMARK    6  A    between atoms: C_14  and  C_15
REMARK    7  A    between atoms: C_15  and  C_16
REMARK    8  A    between atoms: C_16  and  C_17
REMARK    9  A    between atoms: N_18  and  O_19
REMARK   10  A    between atoms: O_19  and  C_20
REMARK   11  A    between atoms: C_20  and  C_21
REMARK   12  A    between atoms: C_21  and  O_22
REMARK   13  A    between atoms: C_21  and  C_23
REMARK   14  A    between atoms: C_23  and  O_24
REMARK   15  A    between atoms: O_24  and  C_25
REMARK   16  A    between atoms: C_25  and  C_26
REMARK                            x       y       z     vdW  Elec       q    Type
REMARK                         _______ _______ _______ _____ _____    ______ ____
ROOT
ATOM      1  C   UNL     1       2.946   4.273  18.968  0.00  0.00    +0.000 C 
ENDROOT
BRANCH   1   2
ATOM      2  C   UNL     1       2.391   5.654  19.267  0.00  0.00    +0.000 C 
ATOM      3  C   UNL     1       1.736   5.899  20.605  0.00  0.00    +0.000 C 
ATOM      4  N   UNL     1       2.526   6.576  18.360  0.00  0.00    +0.000 NA
BRANCH   4   5
ATOM      5  O   UNL     1       2.009   7.801  18.804  0.00  0.00    +0.000 OA
BRANCH   5   6
ATOM      6  C   UNL     1       2.203   8.784  17.778  0.00  0.00    +0.000 C 
BRANCH   6   7
ATOM      7  C   UNL     1       1.747  10.144  18.318  0.00  0.00    +0.000 C 
BRANCH   7   8
ATOM      8  O   UNL     1       2.188  11.193  17.444  0.00  0.00    +0.000 OA
ATOM      9  H   UNL     1       1.972  10.904  16.538  0.00  0.00    +0.000 HD
ENDBRANCH   7   8
BRANCH   7  10
ATOM     10  C   UNL     1       0.225  10.229  18.476  0.00  0.00    +0.000 C 
BRANCH  10  11
ATOM     11  O   UNL     1      -0.156  11.581  18.711  0.00  0.00    +0.000 OA
BRANCH  11  12
ATOM     12  C   UNL     1      -0.891  11.722  19.927  0.00  0.00    +0.000 C 
BRANCH  12  13
ATOM     13  C   UNL     1      -0.220  12.780  20.720  0.00  0.00    +0.000 A 
ATOM     14  C   UNL     1       1.080  13.239  20.788  0.00  0.00    +0.000 A 
ATOM     15  C   UNL     1       1.088  14.282  21.743  0.00  0.00    +0.000 A 
ATOM     16  C   UNL     1      -0.203  14.387  22.204  0.00  0.00    +0.000 A 
ATOM     17  O   UNL     1      -1.004  13.476  21.594  0.00  0.00    +0.000 OA
ENDBRANCH  12  13
ENDBRANCH  11  12
ENDBRANCH  10  11
ENDBRANCH   7  10
ENDBRANCH   6   7
ENDBRANCH   5   6
ENDBRANCH   4   5
ENDBRANCH   1   2
BRANCH   1  18
ATOM     18  C   UNL     1       4.407   4.142  19.407  0.00  0.00    +0.000 C 
BRANCH  18  27
ATOM     19  C   UNL     1       5.998   3.786  13.431  0.00  0.00    +0.000 A 
ATOM     20  C   UNL     1       5.226   3.532  14.575  0.00  0.00    +0.000 A 
ATOM     21  C   UNL     1       5.547   4.128  15.795  0.00  0.00    +0.000 A 
ATOM     22  C   UNL     1       6.631   4.994  15.818  0.00  0.00    +0.000 A 
ATOM     23  N   UNL     1       7.375   5.285  14.721  0.00  0.00    +0.000 NA
ATOM     24  C   UNL     1       7.065   4.688  13.544  0.00  0.00    +0.000 A 
ATOM     25  C   UNL     1       7.091   5.582  17.120  0.00  0.00    +0.000 C 
ATOM     26  C   UNL     1       5.990   5.571  18.183  0.00  0.00    +0.000 C 
ATOM     27  N   UNL     1       5.378   4.231  18.296  0.00  0.00    +0.000 NA
ATOM     28  C   UNL     1       4.703   3.897  17.022  0.00  0.00    +0.000 C 
BRANCH  19  30
ATOM     29  C   UNL     1       4.378   3.479  11.556  0.00  0.00    +0.000 C 
ATOM     30  C   UNL     1       5.695   3.020  12.168  0.00  0.00    +0.000 C 
ENDBRANCH  19  30
BRANCH  24  31
ATOM     31  C   UNL     1       7.942   5.023  12.355  0.00  0.00    +0.000 C 
ATOM     32  C   UNL     1       8.803   6.273  12.513  0.00  0.00    +0.000 C 
ENDBRANCH  24  31
ENDBRANCH  18  27
ENDBRANCH   1  18
TORSDOF 13
ENDMDL
MODEL 5
REMARK VINA RESULT:      -6.7      3.246      4.197
REMARK  Name = 
REMARK  16 active torsions:
REMARK  status: ('A' for Active; 'I' for Inactive)
REMARK    1  A    between atoms: C_1  and  C_2
REMARK    2  A    between atoms: C_2  and  C_3
REMARK    3  A    between atoms: C_8  and  C_9
REMARK    4  A    between atoms: C_9  and  C_10
REMARK    5  A    between atoms: N_13  and  C_14
REMARK    6  A    between atoms: C_14  and  C_15
REMARK    7  A    between atoms: C_15  and  C_16
REMARK    8  A    between atoms: C_16  and  C_17
REMARK    9  A    between atoms: N_18  and  O_19
REMARK   10  A    between atoms: O_19  and  C_20
REMARK   11  A    between atoms: C_20  and  C_21
REMARK   12  A    between atoms: C_21  and  O_22
REMARK   13  A    between atoms: C_21  and  C_23
REMARK   14  A    between atoms: C_23  and  O_24
REMARK   15  A    between atoms: O_24  and  C_25
REMARK   16  A    between atoms: C_25  and  C_26
REMARK                            x       y       z     vdW  Elec       q    Type
REMARK                         _______ _______ _______ _____ _____    ______ ____
ROOT
ATOM      1  C   UNL     1       1.791   9.164  18.187  0.00  0.00    +0.000 C 
ENDROOT
BRANCH   1   2
ATOM      2  C   UNL     1       2.500   7.864  18.519  0.00  0.00    +0.000 C 
ATOM      3  C   UNL     1       2.151   7.154  19.806  0.00  0.00    +0.000 C 
ATOM      4  N   UNL     1       3.364   7.404  17.664  0.00  0.00    +0.000 NA
BRANCH   4   5
ATOM      5  O   UNL     1       3.893   6.177  18.090  0.00  0.00    +0.000 OA
BRANCH   5   6
ATOM      6  C   UNL     1       5.281   6.124  17.734  0.00  0.00    +0.000 C 
BRANCH   6   7
ATOM      7  C   UNL     1       5.627   4.681  17.350  0.00  0.00    +0.000 C 
BRANCH   7   8
ATOM      8  O   UNL     1       6.065   3.956  18.508  0.00  0.00    +0.000 OA
ATOM      9  H   UNL     1       6.783   3.367  18.207  0.00  0.00    +0.000 HD
ENDBRANCH   7   8
BRANCH   7  10
ATOM     10  C   UNL     1       4.443   3.945  16.715  0.00  0.00    +0.000 C 
BRANCH  10  11
ATOM     11  O   UNL     1       4.114   2.803  17.499  0.00  0.00    +0.000 OA
BRANCH  11  12
ATOM     12  C   UNL     1       2.703   2.653  17.654  0.00  0.00    +0.000 C 
BRANCH  12  13
ATOM     13  C   UNL     1       2.380   3.011  19.056  0.00  0.00    +0.000 A 
ATOM     14  C   UNL     1       3.096   2.983  20.235  0.00  0.00    +0.000 A 
ATOM     15  C   UNL     1       2.226   3.456  21.245  0.00  0.00    +0.000 A 
ATOM     16  C   UNL     1       1.033   3.733  20.622  0.00  0.00    +0.000 A 
ATOM     17  O   UNL     1       1.113   3.461  19.294  0.00  0.00    +0.000 OA
ENDBRANCH  12  13
ENDBRANCH  11  12
ENDBRANCH  10  11
ENDBRANCH   7  10
ENDBRANCH   6   7
ENDBRANCH   5   6
ENDBRANCH   4   5
ENDBRANCH   1   2
BRANCH   1  18
ATOM     18  C   UNL     1       0.761   9.538  19.258  0.00  0.00    +0.000 C 
BRANCH  18  27
ATOM     19  C   UNL     1       2.372  15.447  18.331  0.00  0.00    +0.000 A 
ATOM     20  C   UNL     1       2.560  14.059  18.409  0.00  0.00    +0.000 A 
ATOM     21  C   UNL     1       1.487  13.212  18.684  0.00  0.00    +0.000 A 
ATOM     22  C   UNL     1       0.237  13.794  18.846  0.00  0.00    +0.000 A 
ATOM     23  N   UNL     1       0.019  15.129  18.744  0.00  0.00    +0.000 NA
ATOM     24  C   UNL     1       1.072  15.946  18.492  0.00  0.00    +0.000 A 
ATOM     25  C   UNL     1      -0.935  12.948  19.250  0.00  0.00    +0.000 C 
ATOM     26  C   UNL     1      -0.725  11.469  18.922  0.00  0.00    +0.000 C 
ATOM     27  N   UNL     1       0.579  10.995  19.431  0.00  0.00    +0.000 NA
ATOM     28  C   UNL     1       1.665  11.716  18.730  0.00  0.00    +0.000 C 
BRANCH  19  30
ATOM     29  C   UNL     1       4.214  16.653  19.510  0.00  0.00    +0.000 C 
ATOM     30  C   UNL     1       3.580  16.334  18.162  0.00  0.00    +0.000 C 
ENDBRANCH  19  30
BRANCH  24  31
ATOM     31  C   UNL     1       0.783  17.430  18.414  0.00  0.00    +0.000 C 
ATOM     32  C   UNL     1      -0.532  17.803  17.736  0.00  0.00    +0.000 C 
ENDBRANCH  24  31
ENDBRANCH  18  27
ENDBRANCH   1  18
TORSDOF 13
ENDMDL
MODEL 6
REMARK VINA RESULT:      -6.6      3.285      5.431
REMARK  Name = 
REMARK  16 active torsions:
REMARK  status: ('A' for Active; 'I' for Inactive)
REMARK    1  A    between atoms: C_1  and  C_2
REMARK    2  A    between atoms: C_2  and  C_3
REMARK    3  A    between atoms: C_8  and  C_9
REMARK    4  A    between atoms: C_9  and  C_10
REMARK    5  A    between atoms: N_13  and  C_14
REMARK    6  A    between atoms: C_14  and  C_15
REMARK    7  A    between atoms: C_15  and  C_16
REMARK    8  A    between atoms: C_16  and  C_17
REMARK    9  A    between atoms: N_18  and  O_19
REMARK   10  A    between atoms: O_19  and  C_20
REMARK   11  A    between atoms: C_20  and  C_21
REMARK   12  A    between atoms: C_21  and  O_22
REMARK   13  A    between atoms: C_21  and  C_23
REMARK   14  A    between atoms: C_23  and  O_24
REMARK   15  A    between atoms: O_24  and  C_25
REMARK   16  A    between atoms: C_25  and  C_26
REMARK                            x       y       z     vdW  Elec       q    Type
REMARK                         _______ _______ _______ _____ _____    ______ ____
ROOT
ATOM      1  C   UNL     1       3.171   5.215  19.510  0.00  0.00    +0.000 C 
ENDROOT
BRANCH   1   2
ATOM      2  C   UNL     1       4.594   4.689  19.497  0.00  0.00    +0.000 C 
ATOM      3  C   UNL     1       4.818   3.200  19.374  0.00  0.00    +0.000 C 
ATOM      4  N   UNL     1       5.565   5.551  19.569  0.00  0.00    +0.000 NA
BRANCH   4   5
ATOM      5  O   UNL     1       6.813   4.917  19.497  0.00  0.00    +0.000 OA
BRANCH   5   6
ATOM      6  C   UNL     1       7.769   5.838  18.956  0.00  0.00    +0.000 C 
BRANCH   6   7
ATOM      7  C   UNL     1       7.117   6.579  17.783  0.00  0.00    +0.000 C 
BRANCH   7   8
ATOM      8  O   UNL     1       7.661   7.902  17.675  0.00  0.00    +0.000 OA
ATOM      9  H   UNL     1       7.780   8.073  16.722  0.00  0.00    +0.000 HD
ENDBRANCH   7   8
BRANCH   7  10
ATOM     10  C   UNL     1       7.309   5.848  16.450  0.00  0.00    +0.000 C 
BRANCH  10  11
ATOM     11  O   UNL     1       6.073   5.810  15.744  0.00  0.00    +0.000 OA
BRANCH  11  12
ATOM     12  C   UNL     1       5.587   4.477  15.594  0.00  0.00    +0.000 C 
BRANCH  12  13
ATOM     13  C   UNL     1       5.776   4.102  14.172  0.00  0.00    +0.000 A 
ATOM     14  C   UNL     1       4.946   3.563  13.211  0.00  0.00    +0.000 A 
ATOM     15  C   UNL     1       5.721   3.442  12.033  0.00  0.00    +0.000 A 
ATOM     16  C   UNL     1       6.976   3.904  12.352  0.00  0.00    +0.000 A 
ATOM     17  O   UNL     1       7.022   4.302  13.650  0.00  0.00    +0.000 OA
ENDBRANCH  12  13
ENDBRANCH  11  12
ENDBRANCH  10  11
ENDBRANCH   7  10
ENDBRANCH   6   7
ENDBRANCH   5   6
ENDBRANCH   4   5
ENDBRANCH   1   2
BRANCH   1  18
ATOM     18  C   UNL     1       2.772   5.805  18.154  0.00  0.00    +0.000 C 
BRANCH  18  27
ATOM     19  C   UNL     1       0.281  10.513  21.315  0.00  0.00    +0.000 A 
ATOM     20  C   UNL     1       0.742   9.204  21.105  0.00  0.00    +0.000 A 
ATOM     21  C   UNL     1       1.337   8.847  19.895  0.00  0.00    +0.000 A 
ATOM     22  C   UNL     1       1.478   9.838  18.934  0.00  0.00    +0.000 A 
ATOM     23  N   UNL     1       1.073  11.120  19.121  0.00  0.00    +0.000 NA
ATOM     24  C   UNL     1       0.481  11.454  20.295  0.00  0.00    +0.000 A 
ATOM     25  C   UNL     1       2.011   9.491  17.575  0.00  0.00    +0.000 C 
ATOM     26  C   UNL     1       2.826   8.196  17.584  0.00  0.00    +0.000 C 
ATOM     27  N   UNL     1       2.079   7.107  18.247  0.00  0.00    +0.000 NA
ATOM     28  C   UNL     1       1.873   7.456  19.671  0.00  0.00    +0.000 C 
BRANCH  19  30
ATOM     29  C   UNL     1      -0.519   9.604  23.500  0.00  0.00    +0.000 C 
ATOM     30  C   UNL     1      -0.473  10.821  22.584  0.00  0.00    +0.000 C 
ENDBRANCH  19  30
BRANCH  24  31
ATOM     31  C   UNL     1       0.021  12.888  20.446  0.00  0.00    +0.000 C 
ATOM     32  C   UNL     1      -0.516  13.537  19.173  0.00  0.00    +0.000 C 
ENDBRANCH  24  31
ENDBRANCH  18  27
ENDBRANCH   1  18
TORSDOF 13
ENDMDL
MODEL 7
REMARK VINA RESULT:      -6.6      1.530      1.894
REMARK  Name = 
REMARK  16 active torsions:
REMARK  status: ('A' for Active; 'I' for Inactive)
REMARK    1  A    between atoms: C_1  and  C_2
REMARK    2  A    between atoms: C_2  and  C_3
REMARK    3  A    between atoms: C_8  and  C_9
REMARK    4  A    between atoms: C_9  and  C_10
REMARK    5  A    between atoms: N_13  and  C_14
REMARK    6  A    between atoms: C_14  and  C_15
REMARK    7  A    between atoms: C_15  and  C_16
REMARK    8  A    between atoms: C_16  and  C_17
REMARK    9  A    between atoms: N_18  and  O_19
REMARK   10  A    between atoms: O_19  and  C_20
REMARK   11  A    between atoms: C_20  and  C_21
REMARK   12  A    between atoms: C_21  and  O_22
REMARK   13  A    between atoms: C_21  and  C_23
REMARK   14  A    between atoms: C_23  and  O_24
REMARK   15  A    between atoms: O_24  and  C_25
REMARK   16  A    between atoms: C_25  and  C_26
REMARK                            x       y       z     vdW  Elec       q    Type
REMARK                         _______ _______ _______ _____ _____    ______ ____
ROOT
ATOM      1  C   UNL     1       1.450   9.128  17.998  0.00  0.00    +0.000 C 
ENDROOT
BRANCH   1   2
ATOM      2  C   UNL     1       2.352   7.989  18.437  0.00  0.00    +0.000 C 
ATOM      3  C   UNL     1       2.106   7.344  19.781  0.00  0.00    +0.000 C 
ATOM      4  N   UNL     1       3.286   7.601  17.621  0.00  0.00    +0.000 NA
BRANCH   4   5
ATOM      5  O   UNL     1       3.998   6.514  18.147  0.00  0.00    +0.000 OA
BRANCH   5   6
ATOM      6  C   UNL     1       5.282   6.451  17.513  0.00  0.00    +0.000 C 
BRANCH   6   7
ATOM      7  C   UNL     1       6.021   5.214  18.038  0.00  0.00    +0.000 C 
BRANCH   7   8
ATOM      8  O   UNL     1       6.669   5.520  19.281  0.00  0.00    +0.000 OA
ATOM      9  H   UNL     1       7.470   6.029  19.055  0.00  0.00    +0.000 HD
ENDBRANCH   7   8
BRANCH   7  10
ATOM     10  C   UNL     1       5.086   4.017  18.240  0.00  0.00    +0.000 C 
BRANCH  10  11
ATOM     11  O   UNL     1       5.166   3.571  19.590  0.00  0.00    +0.000 OA
BRANCH  11  12
ATOM     12  C   UNL     1       4.383   2.398  19.809  0.00  0.00    +0.000 C 
BRANCH  12  13
ATOM     13  C   UNL     1       2.972   2.836  19.937  0.00  0.00    +0.000 A 
ATOM     14  C   UNL     1       2.316   3.694  20.796  0.00  0.00    +0.000 A 
ATOM     15  C   UNL     1       0.958   3.696  20.401  0.00  0.00    +0.000 A 
ATOM     16  C   UNL     1       0.869   2.834  19.335  0.00  0.00    +0.000 A 
ATOM     17  O   UNL     1       2.085   2.302  19.048  0.00  0.00    +0.000 OA
ENDBRANCH  12  13
ENDBRANCH  11  12
ENDBRANCH  10  11
ENDBRANCH   7  10
ENDBRANCH   6   7
ENDBRANCH   5   6
ENDBRANCH   4   5
ENDBRANCH   1   2
BRANCH   1  18
ATOM     18  C   UNL     1       1.270  10.170  19.107  0.00  0.00    +0.000 C 
BRANCH  18  27
ATOM     19  C   UNL     1      -3.174  13.126  22.251  0.00  0.00    +0.000 A 
ATOM     20  C   UNL     1      -1.907  12.561  22.035  0.00  0.00    +0.000 A 
ATOM     21  C   UNL     1      -1.579  12.006  20.799  0.00  0.00    +0.000 A 
ATOM     22  C   UNL     1      -2.537  12.064  19.796  0.00  0.00    +0.000 A 
ATOM     23  N   UNL     1      -3.757  12.633  19.965  0.00  0.00    +0.000 NA
ATOM     24  C   UNL     1      -4.073  13.156  21.175  0.00  0.00    +0.000 A 
ATOM     25  C   UNL     1      -2.283  11.389  18.480  0.00  0.00    +0.000 C 
ATOM     26  C   UNL     1      -0.792  11.171  18.217  0.00  0.00    +0.000 C 
ATOM     27  N   UNL     1      -0.140  10.524  19.374  0.00  0.00    +0.000 NA
ATOM     28  C   UNL     1      -0.209  11.433  20.541  0.00  0.00    +0.000 C 
BRANCH  19  30
ATOM     29  C   UNL     1      -4.102  12.452  24.470  0.00  0.00    +0.000 C 
ATOM     30  C   UNL     1      -3.532  13.595  23.638  0.00  0.00    +0.000 C 
ENDBRANCH  19  30
BRANCH  24  31
ATOM     31  C   UNL     1      -5.456  13.755  21.322  0.00  0.00    +0.000 C 
ATOM     32  C   UNL     1      -5.972  14.506  20.098  0.00  0.00    +0.000 C 
ENDBRANCH  24  31
ENDBRANCH  18  27
ENDBRANCH   1  18
TORSDOF 13
ENDMDL
MODEL 8
REMARK VINA RESULT:      -6.6      2.982      4.103
REMARK  Name = 
REMARK  16 active torsions:
REMARK  status: ('A' for Active; 'I' for Inactive)
REMARK    1  A    between atoms: C_1  and  C_2
REMARK    2  A    between atoms: C_2  and  C_3
REMARK    3  A    between atoms: C_8  and  C_9
REMARK    4  A    between atoms: C_9  and  C_10
REMARK    5  A    between atoms: N_13  and  C_14
REMARK    6  A    between atoms: C_14  and  C_15
REMARK    7  A    between atoms: C_15  and  C_16
REMARK    8  A    between atoms: C_16  and  C_17
REMARK    9  A    between atoms: N_18  and  O_19
REMARK   10  A    between atoms: O_19  and  C_20
REMARK   11  A    between atoms: C_20  and  C_21
REMARK   12  A    between atoms: C_21  and  O_22
REMARK   13  A    between atoms: C_21  and  C_23
REMARK   14  A    between atoms: C_23  and  O_24
REMARK   15  A    between atoms: O_24  and  C_25
REMARK   16  A    between atoms: C_25  and  C_26
REMARK                            x       y       z     vdW  Elec       q    Type
REMARK                         _______ _______ _______ _____ _____    ______ ____
ROOT
ATOM      1  C   UNL     1       2.725   8.648  17.886  0.00  0.00    +0.000 C 
ENDROOT
BRANCH   1   2
ATOM      2  C   UNL     1       3.137   7.196  17.732  0.00  0.00    +0.000 C 
ATOM      3  C   UNL     1       2.208   6.119  18.241  0.00  0.00    +0.000 C 
ATOM      4  N   UNL     1       4.268   6.941  17.144  0.00  0.00    +0.000 NA
BRANCH   4   5
ATOM      5  O   UNL     1       4.482   5.560  17.035  0.00  0.00    +0.000 OA
BRANCH   5   6
ATOM      6  C   UNL     1       5.892   5.315  16.953  0.00  0.00    +0.000 C 
BRANCH   6   7
ATOM      7  C   UNL     1       6.358   4.716  18.285  0.00  0.00    +0.000 C 
BRANCH   7   8
ATOM      8  O   UNL     1       7.289   5.602  18.924  0.00  0.00    +0.000 OA
ATOM      9  H   UNL     1       6.976   5.713  19.841  0.00  0.00    +0.000 HD
ENDBRANCH   7   8
BRANCH   7  10
ATOM     10  C   UNL     1       5.192   4.439  19.240  0.00  0.00    +0.000 C 
BRANCH  10  11
ATOM     11  O   UNL     1       5.195   3.064  19.611  0.00  0.00    +0.000 OA
BRANCH  11  12
ATOM     12  C   UNL     1       4.114   2.350  19.012  0.00  0.00    +0.000 C 
BRANCH  12  13
ATOM     13  C   UNL     1       2.910   2.615  19.836  0.00  0.00    +0.000 A 
ATOM     14  C   UNL     1       1.594   2.899  19.534  0.00  0.00    +0.000 A 
ATOM     15  C   UNL     1       0.921   3.046  20.770  0.00  0.00    +0.000 A 
ATOM     16  C   UNL     1       1.870   2.853  21.746  0.00  0.00    +0.000 A 
ATOM     17  O   UNL     1       3.082   2.597  21.190  0.00  0.00    +0.000 OA
ENDBRANCH  12  13
ENDBRANCH  11  12
ENDBRANCH  10  11
ENDBRANCH   7  10
ENDBRANCH   6   7
ENDBRANCH   5   6
ENDBRANCH   4   5
ENDBRANCH   1   2
BRANCH   1  18
ATOM     18  C   UNL     1       1.419   8.787  18.675  0.00  0.00    +0.000 C 
BRANCH  18  27
ATOM     19  C   UNL     1       2.134  14.933  18.375  0.00  0.00    +0.000 A 
ATOM     20  C   UNL     1       2.483  13.586  18.194  0.00  0.00    +0.000 A 
ATOM     21  C   UNL     1       1.596  12.569  18.548  0.00  0.00    +0.000 A 
ATOM     22  C   UNL     1       0.359  12.945  19.053  0.00  0.00    +0.000 A 
ATOM     23  N   UNL     1      -0.019  14.239  19.208  0.00  0.00    +0.000 NA
ATOM     24  C   UNL     1       0.856  15.220  18.876  0.00  0.00    +0.000 A 
ATOM     25  C   UNL     1      -0.594  11.899  19.552  0.00  0.00    +0.000 C 
ATOM     26  C   UNL     1      -0.304  10.519  18.959  0.00  0.00    +0.000 C 
ATOM     27  N   UNL     1       1.124  10.169  19.109  0.00  0.00    +0.000 NA
ATOM     28  C   UNL     1       1.941  11.119  18.321  0.00  0.00    +0.000 C 
BRANCH  19  30
ATOM     29  C   UNL     1       4.550  15.373  17.924  0.00  0.00    +0.000 C 
ATOM     30  C   UNL     1       3.170  15.993  18.102  0.00  0.00    +0.000 C 
ENDBRANCH  19  30
BRANCH  24  31
ATOM     31  C   UNL     1       0.398  16.647  19.093  0.00  0.00    +0.000 C 
ATOM     32  C   UNL     1      -0.457  17.233  17.973  0.00  0.00    +0.000 C 
ENDBRANCH  24  31
ENDBRANCH  18  27
ENDBRANCH   1  18
TORSDOF 13
ENDMDL
MODEL 9
REMARK VINA RESULT:      -6.5      4.594     10.741
REMARK  Name = 
REMARK  16 active torsions:
REMARK  status: ('A' for Active; 'I' for Inactive)
REMARK    1  A    between atoms: C_1  and  C_2
REMARK    2  A    between atoms: C_2  and  C_3
REMARK    3  A    between atoms: C_8  and  C_9
REMARK    4  A    between atoms: C_9  and  C_10
REMARK    5  A    between atoms: N_13  and  C_14
REMARK    6  A    between atoms: C_14  and  C_15
REMARK    7  A    between atoms: C_15  and  C_16
REMARK    8  A    between atoms: C_16  and  C_17
REMARK    9  A    between atoms: N_18  and  O_19
REMARK   10  A    between atoms: O_19  and  C_20
REMARK   11  A    between atoms: C_20  and  C_21
REMARK   12  A    between atoms: C_21  and  O_22
REMARK   13  A    between atoms: C_21  and  C_23
REMARK   14  A    between atoms: C_23  and  O_24
REMARK   15  A    between atoms: O_24  and  C_25
REMARK   16  A    between atoms: C_25  and  C_26
REMARK                            x       y       z     vdW  Elec       q    Type
REMARK                         _______ _______ _______ _____ _____    ______ ____
ROOT
ATOM      1  C   UNL     1      -0.390   9.653  20.658  0.00  0.00    +0.000 C 
ENDROOT
BRANCH   1   2
ATOM      2  C   UNL     1      -0.554  10.347  21.997  0.00  0.00    +0.000 C 
ATOM      3  C   UNL     1      -0.205   9.589  23.256  0.00  0.00    +0.000 C 
ATOM      4  N   UNL     1      -0.967  11.580  22.000  0.00  0.00    +0.000 NA
BRANCH   4   5
ATOM      5  O   UNL     1      -1.019  12.094  23.303  0.00  0.00    +0.000 OA
BRANCH   5   6
ATOM      6  C   UNL     1      -1.258  13.505  23.235  0.00  0.00    +0.000 C 
BRANCH   6   7
ATOM      7  C   UNL     1      -2.682  13.779  23.732  0.00  0.00    +0.000 C 
BRANCH   7   8
ATOM      8  O   UNL     1      -2.647  14.668  24.858  0.00  0.00    +0.000 OA
ATOM      9  H   UNL     1      -1.732  14.645  25.197  0.00  0.00    +0.000 HD
ENDBRANCH   7   8
BRANCH   7  10
ATOM     10  C   UNL     1      -3.574  14.384  22.643  0.00  0.00    +0.000 C 
BRANCH  10  11
ATOM     11  O   UNL     1      -4.417  13.372  22.100  0.00  0.00    +0.000 OA
BRANCH  11  12
ATOM     12  C   UNL     1      -5.661  13.904  21.647  0.00  0.00    +0.000 C 
BRANCH  12  13
ATOM     13  C   UNL     1      -6.286  12.871  20.784  0.00  0.00    +0.000 A 
ATOM     14  C   UNL     1      -6.773  12.877  19.493  0.00  0.00    +0.000 A 
ATOM     15  C   UNL     1      -7.244  11.568  19.236  0.00  0.00    +0.000 A 
ATOM     16  C   UNL     1      -7.025  10.850  20.388  0.00  0.00    +0.000 A 
ATOM     17  O   UNL     1      -6.449  11.633  21.336  0.00  0.00    +0.000 OA
ENDBRANCH  12  13
ENDBRANCH  11  12
ENDBRANCH  10  11
ENDBRANCH   7  10
ENDBRANCH   6   7
ENDBRANCH   5   6
ENDBRANCH   4   5
ENDBRANCH   1   2
BRANCH   1  18
ATOM     18  C   UNL     1       0.895  10.087  19.947  0.00  0.00    +0.000 C 
BRANCH  18  27
ATOM     19  C   UNL     1       2.716   4.177  20.284  0.00  0.00    +0.000 A 
ATOM     20  C   UNL     1       2.047   5.342  20.686  0.00  0.00    +0.000 A 
ATOM     21  C   UNL     1       2.090   6.493  19.900  0.00  0.00    +0.000 A 
ATOM     22  C   UNL     1       2.789   6.424  18.703  0.00  0.00    +0.000 A 
ATOM     23  N   UNL     1       3.418   5.302  18.271  0.00  0.00    +0.000 NA
ATOM     24  C   UNL     1       3.384   4.193  19.051  0.00  0.00    +0.000 A 
ATOM     25  C   UNL     1       2.962   7.658  17.866  0.00  0.00    +0.000 C 
ATOM     26  C   UNL     1       1.902   8.719  18.169  0.00  0.00    +0.000 C 
ATOM     27  N   UNL     1       1.808   8.971  19.622  0.00  0.00    +0.000 NA
ATOM     28  C   UNL     1       1.342   7.739  20.299  0.00  0.00    +0.000 C 
BRANCH  19  30
ATOM     29  C   UNL     1       1.350   2.625  21.685  0.00  0.00    +0.000 C 
ATOM     30  C   UNL     1       2.753   3.000  21.226  0.00  0.00    +0.000 C 
ENDBRANCH  19  30
BRANCH  24  31
ATOM     31  C   UNL     1       4.123   2.974  18.540  0.00  0.00    +0.000 C 
ATOM     32  C   UNL     1       3.242   1.889  17.927  0.00  0.00    +0.000 C 
ENDBRANCH  24  31
ENDBRANCH  18  27
ENDBRANCH   1  18
TORSDOF 13
ENDMDL
