MODEL 1
REMARK VINA RESULT:      -7.1      0.000      0.000
REMARK  Name = 
REMARK  11 active torsions:
REMARK  status: ('A' for Active; 'I' for Inactive)
REMARK    1  A    between atoms: C_1  and  C_2
REMARK    2  A    between atoms: C_2  and  C_3
REMARK    3  A    between atoms: C_2  and  C_4
REMARK    4  A    between atoms: C_4  and  C_5
REMARK    5  A    between atoms: C_5  and  O_6
REMARK    6  A    between atoms: C_5  and  C_7
REMARK    7  A    between atoms: C_5  and  C_23
REMARK    8  A    between atoms: C_7  and  C_9
REMARK    9  A    between atoms: C_9  and  N_10
REMARK   10  A    between atoms: N_13  and  C_14
REMARK   11  A    between atoms: C_14  and  C_15
REMARK                            x       y       z     vdW  Elec       q    Type
REMARK                         _______ _______ _______ _____ _____    ______ ____
ROOT
ATOM      1  C   UNL     1       4.476   5.367  19.134  0.00  0.00    +0.000 C 
ATOM      2  O   UNL     1       5.337   5.862  19.871  0.00  0.00    +0.000 OA
ENDROOT
BRANCH   1   3
ATOM      3  C   UNL     1       2.965   5.473  19.547  0.00  0.00    +0.000 C 
BRANCH   3   4
ATOM      4  C   UNL     1       2.434   6.902  19.292  0.00  0.00    +0.000 A 
ATOM      5  C   UNL     1       1.774   7.611  20.309  0.00  0.00    +0.000 A 
ATOM      6  C   UNL     1       1.245   8.888  20.069  0.00  0.00    +0.000 A 
ATOM      7  C   UNL     1       1.369   9.485  18.817  0.00  0.00    +0.000 A 
ATOM      8  C   UNL     1       2.042   8.818  17.804  0.00  0.00    +0.000 A 
ATOM      9  C   UNL     1       2.574   7.544  18.040  0.00  0.00    +0.000 A 
ENDBRANCH   3   4
BRANCH   3  10
ATOM     10  O   UNL     1       2.857   5.226  20.961  0.00  0.00    +0.000 OA
ATOM     11  H   UNL     1       3.470   4.491  21.154  0.00  0.00    +0.000 HD
ENDBRANCH   3  10
BRANCH   3  12
ATOM     12  C   UNL     1       2.032   4.434  18.867  0.00  0.00    +0.000 C 
BRANCH  12  14
ATOM     13  C   UNL     1       0.436   2.531  18.817  0.00  0.00    +0.000 C 
ATOM     14  C   UNL     1       1.665   3.102  19.551  0.00  0.00    +0.000 C 
ATOM     15  C   UNL     1       2.794   2.079  19.491  0.00  0.00    +0.000 C 
ENDBRANCH  12  14
ENDBRANCH   3  12
ENDBRANCH   1   3
BRANCH   1  16
ATOM     16  C   UNL     1       4.816   4.490  17.918  0.00  0.00    +0.000 C 
BRANCH  16  17
ATOM     17  N   UNL     1       4.573   5.069  16.573  0.00  0.00    +0.000 NA
ATOM     18  C   UNL     1       5.496   6.145  16.147  0.00  0.00    +0.000 C 
ATOM     19  C   UNL     1       6.939   5.715  15.752  0.00  0.00    +0.000 C 
ATOM     20  N   UNL     1       7.048   4.536  14.855  0.00  0.00    +0.000 NA
ATOM     21  C   UNL     1       6.132   3.487  15.339  0.00  0.00    +0.000 C 
ATOM     22  C   UNL     1       4.680   3.978  15.568  0.00  0.00    +0.000 C 
BRANCH  20  23
ATOM     23  C   UNL     1       6.795   4.909  13.449  0.00  0.00    +0.000 C 
BRANCH  23  24
ATOM     24  C   UNL     1       6.523   3.729  12.530  0.00  0.00    +0.000 A 
ATOM     25  C   UNL     1       5.206   3.374  12.198  0.00  0.00    +0.000 A 
ATOM     26  C   UNL     1       4.950   2.291  11.354  0.00  0.00    +0.000 A 
ATOM     27  C   UNL     1       6.006   1.549  10.830  0.00  0.00    +0.000 A 
ATOM     28  C   UNL     1       7.322   1.886  11.155  0.00  0.00    +0.000 A 
ATOM     29  C   UNL     1       7.577   2.970  12.000  0.00  0.00    +0.000 A 
ENDBRANCH  23  24
ENDBRANCH  20  23
ENDBRANCH  16  17
ENDBRANCH   1  16
TORSDOF 9
ENDMDL
MODEL 2
REMARK VINA RESULT:      -7.1      2.409      8.693
REMARK  Name = 
REMARK  11 active torsions:
REMARK  status: ('A' for Active; 'I' for Inactive)
REMARK    1  A    between atoms: C_1  and  C_2
REMARK    2  A    between atoms: C_2  and  C_3
REMARK    3  A    between atoms: C_2  and  C_4
REMARK    4  A    between atoms: C_4  and  C_5
REMARK    5  A    between atoms: C_5  and  O_6
REMARK    6  A    between atoms: C_5  and  C_7
REMARK    7  A    between atoms: C_5  and  C_23
REMARK    8  A    between atoms: C_7  and  C_9
REMARK    9  A    between atoms: C_9  and  N_10
REMARK   10  A    between atoms: N_13  and  C_14
REMARK   11  A    between atoms: C_14  and  C_15
REMARK                            x       y       z     vdW  Elec       q    Type
REMARK                         _______ _______ _______ _____ _____    ______ ____
ROOT
ATOM      1  C   UNL     1       4.729   5.691  18.741  0.00  0.00    +0.000 C 
ATOM      2  O   UNL     1       5.546   5.889  19.647  0.00  0.00    +0.000 OA
ENDROOT
BRANCH   1   3
ATOM      3  C   UNL     1       4.604   4.252  18.125  0.00  0.00    +0.000 C 
BRANCH   3   4
ATOM      4  C   UNL     1       3.333   3.546  18.653  0.00  0.00    +0.000 A 
ATOM      5  C   UNL     1       2.282   3.221  17.782  0.00  0.00    +0.000 A 
ATOM      6  C   UNL     1       1.106   2.626  18.262  0.00  0.00    +0.000 A 
ATOM      7  C   UNL     1       0.958   2.339  19.617  0.00  0.00    +0.000 A 
ATOM      8  C   UNL     1       1.993   2.625  20.495  0.00  0.00    +0.000 A 
ATOM      9  C   UNL     1       3.170   3.215  20.018  0.00  0.00    +0.000 A 
ENDBRANCH   3   4
BRANCH   3  10
ATOM     10  O   UNL     1       5.733   3.468  18.554  0.00  0.00    +0.000 OA
ATOM     11  H   UNL     1       6.096   3.055  17.746  0.00  0.00    +0.000 HD
ENDBRANCH   3  10
BRANCH   3  12
ATOM     12  C   UNL     1       4.626   4.205  16.573  0.00  0.00    +0.000 C 
BRANCH  12  14
ATOM     13  C   UNL     1       5.578   3.955  14.292  0.00  0.00    +0.000 C 
ATOM     14  C   UNL     1       5.944   4.085  15.783  0.00  0.00    +0.000 C 
ATOM     15  C   UNL     1       6.851   5.298  15.964  0.00  0.00    +0.000 C 
ENDBRANCH  12  14
ENDBRANCH   3  12
ENDBRANCH   1   3
BRANCH   1  16
ATOM     16  C   UNL     1       3.949   6.823  18.052  0.00  0.00    +0.000 C 
BRANCH  16  17
ATOM     17  N   UNL     1       2.469   6.794  18.162  0.00  0.00    +0.000 NA
ATOM     18  C   UNL     1       1.916   6.720  19.534  0.00  0.00    +0.000 C 
ATOM     19  C   UNL     1       2.001   8.014  20.394  0.00  0.00    +0.000 C 
ATOM     20  N   UNL     1       1.591   9.274  19.724  0.00  0.00    +0.000 NA
ATOM     21  C   UNL     1       2.189   9.311  18.377  0.00  0.00    +0.000 C 
ATOM     22  C   UNL     1       1.929   8.032  17.540  0.00  0.00    +0.000 C 
BRANCH  20  23
ATOM     23  C   UNL     1       0.121   9.411  19.698  0.00  0.00    +0.000 C 
BRANCH  23  24
ATOM     24  C   UNL     1      -0.449  10.245  20.834  0.00  0.00    +0.000 A 
ATOM     25  C   UNL     1      -0.455   9.747  22.147  0.00  0.00    +0.000 A 
ATOM     26  C   UNL     1      -0.977  10.509  23.196  0.00  0.00    +0.000 A 
ATOM     27  C   UNL     1      -1.500  11.776  22.946  0.00  0.00    +0.000 A 
ATOM     28  C   UNL     1      -1.506  12.282  21.644  0.00  0.00    +0.000 A 
ATOM     29  C   UNL     1      -0.984  11.520  20.596  0.00  0.00    +0.000 A 
ENDBRANCH  23  24
ENDBRANCH  20  23
ENDBRANCH  16  17
ENDBRANCH   1  16
TORSDOF 9
ENDMDL
MODEL 3
REMARK VINA RESULT:      -7.0      2.503      8.588
REMARK  Name = 
REMARK  11 active torsions:
REMARK  status: ('A' for Active; 'I' for Inactive)
REMARK    1  A    between atoms: C_1  and  C_2
REMARK    2  A    between atoms: C_2  and  C_3
REMARK    3  A    between atoms: C_2  and  C_4
REMARK    4  A    between atoms: C_4  and  C_5
REMARK    5  A    between atoms: C_5  and  O_6
REMARK    6  A    between atoms: C_5  and  C_7
REMARK    7  A    between atoms: C_5  and  C_23
REMARK    8  A    between atoms: C_7  and  C_9
REMARK    9  A    between atoms: C_9  and  N_10
REMARK   10  A    between atoms: N_13  and  C_14
REMARK   11  A    between atoms: C_14  and  C_15
REMARK                            x       y       z     vdW  Elec       q    Type
REMARK                         _______ _______ _______ _____ _____    ______ ____
ROOT
ATOM      1  C   UNL     1       4.666   4.400  16.636  0.00  0.00    +0.000 C 
ATOM      2  O   UNL     1       4.764   3.171  16.716  0.00  0.00    +0.000 OA
ENDROOT
BRANCH   1   3
ATOM      3  C   UNL     1       5.808   5.214  15.929  0.00  0.00    +0.000 C 
BRANCH   3   4
ATOM      4  C   UNL     1       6.734   5.870  16.979  0.00  0.00    +0.000 A 
ATOM      5  C   UNL     1       7.245   5.119  18.049  0.00  0.00    +0.000 A 
ATOM      6  C   UNL     1       8.045   5.719  19.032  0.00  0.00    +0.000 A 
ATOM      7  C   UNL     1       8.356   7.075  18.966  0.00  0.00    +0.000 A 
ATOM      8  C   UNL     1       7.887   7.833  17.902  0.00  0.00    +0.000 A 
ATOM      9  C   UNL     1       7.091   7.237  16.917  0.00  0.00    +0.000 A 
ENDBRANCH   3   4
BRANCH   3  10
ATOM     10  O   UNL     1       5.209   6.279  15.168  0.00  0.00    +0.000 OA
ATOM     11  H   UNL     1       4.999   5.899  14.292  0.00  0.00    +0.000 HD
ENDBRANCH   3  10
BRANCH   3  12
ATOM     12  C   UNL     1       6.655   4.398  14.915  0.00  0.00    +0.000 C 
BRANCH  12  14
ATOM     13  C   UNL     1       7.999   5.222  12.995  0.00  0.00    +0.000 C 
ATOM     14  C   UNL     1       6.612   4.689  13.401  0.00  0.00    +0.000 C 
ATOM     15  C   UNL     1       6.298   3.447  12.572  0.00  0.00    +0.000 C 
ENDBRANCH  12  14
ENDBRANCH   3  12
ENDBRANCH   1   3
BRANCH   1  16
ATOM     16  C   UNL     1       3.570   5.203  17.356  0.00  0.00    +0.000 C 
BRANCH  16  17
ATOM     17  N   UNL     1       4.010   6.220  18.345  0.00  0.00    +0.000 NA
ATOM     18  C   UNL     1       3.468   7.586  18.164  0.00  0.00    +0.000 C 
ATOM     19  C   UNL     1       1.973   7.802  18.539  0.00  0.00    +0.000 C 
ATOM     20  N   UNL     1       1.531   7.223  19.833  0.00  0.00    +0.000 NA
ATOM     21  C   UNL     1       2.072   5.856  19.949  0.00  0.00    +0.000 C 
ATOM     22  C   UNL     1       3.600   5.762  19.699  0.00  0.00    +0.000 C 
BRANCH  20  23
ATOM     23  C   UNL     1       1.920   8.086  20.965  0.00  0.00    +0.000 C 
BRANCH  23  24
ATOM     24  C   UNL     1       0.873   9.120  21.350  0.00  0.00    +0.000 A 
ATOM     25  C   UNL     1       0.440   9.231  22.681  0.00  0.00    +0.000 A 
ATOM     26  C   UNL     1      -0.521  10.180  23.040  0.00  0.00    +0.000 A 
ATOM     27  C   UNL     1      -1.060  11.028  22.076  0.00  0.00    +0.000 A 
ATOM     28  C   UNL     1      -0.643  10.926  20.747  0.00  0.00    +0.000 A 
ATOM     29  C   UNL     1       0.318   9.977  20.388  0.00  0.00    +0.000 A 
ENDBRANCH  23  24
ENDBRANCH  20  23
ENDBRANCH  16  17
ENDBRANCH   1  16
TORSDOF 9
ENDMDL
MODEL 4
REMARK VINA RESULT:      -6.9      2.256      8.555
REMARK  Name = 
REMARK  11 active torsions:
REMARK  status: ('A' for Active; 'I' for Inactive)
REMARK    1  A    between atoms: C_1  and  C_2
REMARK    2  A    between atoms: C_2  and  C_3
REMARK    3  A    between atoms: C_2  and  C_4
REMARK    4  A    between atoms: C_4  and  C_5
REMARK    5  A    between atoms: C_5  and  O_6
REMARK    6  A    between atoms: C_5  and  C_7
REMARK    7  A    between atoms: C_5  and  C_23
REMARK    8  A    between atoms: C_7  and  C_9
REMARK    9  A    between atoms: C_9  and  N_10
REMARK   10  A    between atoms: N_13  and  C_14
REMARK   11  A    between atoms: C_14  and  C_15
REMARK                            x       y       z     vdW  Elec       q    Type
REMARK                         _______ _______ _______ _____ _____    ______ ____
ROOT
ATOM      1  C   UNL     1       4.808   5.229  16.337  0.00  0.00    +0.000 C 
ATOM      2  O   UNL     1       4.721   6.398  15.946  0.00  0.00    +0.000 OA
ENDROOT
BRANCH   1   3
ATOM      3  C   UNL     1       6.145   4.440  16.100  0.00  0.00    +0.000 C 
BRANCH   3   4
ATOM      4  C   UNL     1       6.530   4.469  14.602  0.00  0.00    +0.000 A 
ATOM      5  C   UNL     1       5.884   3.627  13.682  0.00  0.00    +0.000 A 
ATOM      6  C   UNL     1       6.263   3.612  12.332  0.00  0.00    +0.000 A 
ATOM      7  C   UNL     1       7.286   4.438  11.871  0.00  0.00    +0.000 A 
ATOM      8  C   UNL     1       7.920   5.300  12.755  0.00  0.00    +0.000 A 
ATOM      9  C   UNL     1       7.542   5.320  14.102  0.00  0.00    +0.000 A 
ENDBRANCH   3   4
BRANCH   3  10
ATOM     10  O   UNL     1       5.935   3.062  16.457  0.00  0.00    +0.000 OA
ATOM     11  H   UNL     1       4.991   2.987  16.699  0.00  0.00    +0.000 HD
ENDBRANCH   3  10
BRANCH   3  12
ATOM     12  C   UNL     1       7.344   4.919  16.962  0.00  0.00    +0.000 C 
BRANCH  12  14
ATOM     13  C   UNL     1       8.055   5.702  19.210  0.00  0.00    +0.000 C 
ATOM     14  C   UNL     1       7.206   6.071  17.978  0.00  0.00    +0.000 C 
ATOM     15  C   UNL     1       7.694   7.406  17.424  0.00  0.00    +0.000 C 
ENDBRANCH  12  14
ENDBRANCH   3  12
ENDBRANCH   1   3
BRANCH   1  16
ATOM     16  C   UNL     1       3.610   4.436  16.887  0.00  0.00    +0.000 C 
BRANCH  16  17
ATOM     17  N   UNL     1       3.384   4.474  18.354  0.00  0.00    +0.000 NA
ATOM     18  C   UNL     1       4.166   5.479  19.110  0.00  0.00    +0.000 C 
ATOM     19  C   UNL     1       3.730   6.965  18.959  0.00  0.00    +0.000 C 
ATOM     20  N   UNL     1       2.274   7.235  19.066  0.00  0.00    +0.000 NA
ATOM     21  C   UNL     1       1.546   6.227  18.274  0.00  0.00    +0.000 C 
ATOM     22  C   UNL     1       1.947   4.765  18.598  0.00  0.00    +0.000 C 
BRANCH  20  23
ATOM     23  C   UNL     1       1.840   7.272  20.477  0.00  0.00    +0.000 C 
BRANCH  23  24
ATOM     24  C   UNL     1       1.091   8.536  20.867  0.00  0.00    +0.000 A 
ATOM     25  C   UNL     1       0.663   8.728  22.190  0.00  0.00    +0.000 A 
ATOM     26  C   UNL     1      -0.027   9.888  22.555  0.00  0.00    +0.000 A 
ATOM     27  C   UNL     1      -0.296  10.869  21.603  0.00  0.00    +0.000 A 
ATOM     28  C   UNL     1       0.118  10.689  20.281  0.00  0.00    +0.000 A 
ATOM     29  C   UNL     1       0.808   9.529  19.917  0.00  0.00    +0.000 A 
ENDBRANCH  23  24
ENDBRANCH  20  23
ENDBRANCH  16  17
ENDBRANCH   1  16
TORSDOF 9
ENDMDL
MODEL 5
REMARK VINA RESULT:      -6.9      4.162     10.223
REMARK  Name = 
REMARK  11 active torsions:
REMARK  status: ('A' for Active; 'I' for Inactive)
REMARK    1  A    between atoms: C_1  and  C_2
REMARK    2  A    between atoms: C_2  and  C_3
REMARK    3  A    between atoms: C_2  and  C_4
REMARK    4  A    between atoms: C_4  and  C_5
REMARK    5  A    between atoms: C_5  and  O_6
REMARK    6  A    between atoms: C_5  and  C_7
REMARK    7  A    between atoms: C_5  and  C_23
REMARK    8  A    between atoms: C_7  and  C_9
REMARK    9  A    between atoms: C_9  and  N_10
REMARK   10  A    between atoms: N_13  and  C_14
REMARK   11  A    between atoms: C_14  and  C_15
REMARK                            x       y       z     vdW  Elec       q    Type
REMARK                         _______ _______ _______ _____ _____    ______ ____
ROOT
ATOM      1  C   UNL     1       2.096   6.459  20.147  0.00  0.00    +0.000 C 
ATOM      2  O   UNL     1       2.205   5.534  20.959  0.00  0.00    +0.000 OA
ENDROOT
BRANCH   1   3
ATOM      3  C   UNL     1       2.445   6.198  18.639  0.00  0.00    +0.000 C 
BRANCH   3   4
ATOM      4  C   UNL     1       3.977   6.095  18.448  0.00  0.00    +0.000 A 
ATOM      5  C   UNL     1       4.762   5.362  19.351  0.00  0.00    +0.000 A 
ATOM      6  C   UNL     1       6.156   5.307  19.213  0.00  0.00    +0.000 A 
ATOM      7  C   UNL     1       6.794   5.974  18.169  0.00  0.00    +0.000 A 
ATOM      8  C   UNL     1       6.038   6.682  17.247  0.00  0.00    +0.000 A 
ATOM      9  C   UNL     1       4.645   6.737  17.380  0.00  0.00    +0.000 A 
ENDBRANCH   3   4
BRANCH   3  10
ATOM     10  O   UNL     1       1.995   7.322  17.861  0.00  0.00    +0.000 OA
ATOM     11  H   UNL     1       2.304   8.119  18.335  0.00  0.00    +0.000 HD
ENDBRANCH   3  10
BRANCH   3  12
ATOM     12  C   UNL     1       1.752   4.954  18.017  0.00  0.00    +0.000 C 
BRANCH  12  14
ATOM     13  C   UNL     1       0.866   2.793  18.862  0.00  0.00    +0.000 C 
ATOM     14  C   UNL     1       2.150   3.519  18.417  0.00  0.00    +0.000 C 
ATOM     15  C   UNL     1       2.781   2.742  17.266  0.00  0.00    +0.000 C 
ENDBRANCH  12  14
ENDBRANCH   3  12
ENDBRANCH   1   3
BRANCH   1  16
ATOM     16  C   UNL     1       1.811   7.912  20.563  0.00  0.00    +0.000 C 
BRANCH  16  17
ATOM     17  N   UNL     1       0.436   8.425  20.342  0.00  0.00    +0.000 NA
ATOM     18  C   UNL     1      -0.413   8.562  21.548  0.00  0.00    +0.000 C 
ATOM     19  C   UNL     1      -0.079   9.739  22.510  0.00  0.00    +0.000 C 
ATOM     20  N   UNL     1       0.154  11.059  21.873  0.00  0.00    +0.000 NA
ATOM     21  C   UNL     1       1.025  10.871  20.698  0.00  0.00    +0.000 C 
ATOM     22  C   UNL     1       0.533   9.772  19.721  0.00  0.00    +0.000 C 
BRANCH  20  23
ATOM     23  C   UNL     1      -1.121  11.723  21.535  0.00  0.00    +0.000 C 
BRANCH  23  24
ATOM     24  C   UNL     1      -1.662  12.630  22.628  0.00  0.00    +0.000 A 
ATOM     25  C   UNL     1      -2.913  12.373  23.211  0.00  0.00    +0.000 A 
ATOM     26  C   UNL     1      -3.415  13.203  24.217  0.00  0.00    +0.000 A 
ATOM     27  C   UNL     1      -2.674  14.299  24.652  0.00  0.00    +0.000 A 
ATOM     28  C   UNL     1      -1.430  14.571  24.078  0.00  0.00    +0.000 A 
ATOM     29  C   UNL     1      -0.928  13.741  23.072  0.00  0.00    +0.000 A 
ENDBRANCH  23  24
ENDBRANCH  20  23
ENDBRANCH  16  17
ENDBRANCH   1  16
TORSDOF 9
ENDMDL
MODEL 6
REMARK VINA RESULT:      -6.9      4.176     10.294
REMARK  Name = 
REMARK  11 active torsions:
REMARK  status: ('A' for Active; 'I' for Inactive)
REMARK    1  A    between atoms: C_1  and  C_2
REMARK    2  A    between atoms: C_2  and  C_3
REMARK    3  A    between atoms: C_2  and  C_4
REMARK    4  A    between atoms: C_4  and  C_5
REMARK    5  A    between atoms: C_5  and  O_6
REMARK    6  A    between atoms: C_5  and  C_7
REMARK    7  A    between atoms: C_5  and  C_23
REMARK    8  A    between atoms: C_7  and  C_9
REMARK    9  A    between atoms: C_9  and  N_10
REMARK   10  A    between atoms: N_13  and  C_14
REMARK   11  A    between atoms: C_14  and  C_15
REMARK                            x       y       z     vdW  Elec       q    Type
REMARK                         _______ _______ _______ _____ _____    ______ ____
ROOT
ATOM      1  C   UNL     1       2.051   6.536  20.143  0.00  0.00    +0.000 C 
ATOM      2  O   UNL     1       2.141   5.616  20.964  0.00  0.00    +0.000 OA
ENDROOT
BRANCH   1   3
ATOM      3  C   UNL     1       2.413   6.259  18.641  0.00  0.00    +0.000 C 
BRANCH   3   4
ATOM      4  C   UNL     1       3.945   6.139  18.468  0.00  0.00    +0.000 A 
ATOM      5  C   UNL     1       4.596   6.783  17.403  0.00  0.00    +0.000 A 
ATOM      6  C   UNL     1       5.978   6.638  17.211  0.00  0.00    +0.000 A 
ATOM      7  C   UNL     1       6.737   5.855  18.078  0.00  0.00    +0.000 A 
ATOM      8  C   UNL     1       6.122   5.232  19.154  0.00  0.00    +0.000 A 
ATOM      9  C   UNL     1       4.744   5.377  19.351  0.00  0.00    +0.000 A 
ENDBRANCH   3   4
BRANCH   3  10
ATOM     10  O   UNL     1       1.984   7.382  17.850  0.00  0.00    +0.000 OA
ATOM     11  H   UNL     1       1.339   7.869  18.400  0.00  0.00    +0.000 HD
ENDBRANCH   3  10
BRANCH   3  12
ATOM     12  C   UNL     1       1.714   5.018  18.022  0.00  0.00    +0.000 C 
BRANCH  12  14
ATOM     13  C   UNL     1       0.870   2.826  18.830  0.00  0.00    +0.000 C 
ATOM     14  C   UNL     1       2.137   3.581  18.386  0.00  0.00    +0.000 C 
ATOM     15  C   UNL     1       2.768   2.838  17.213  0.00  0.00    +0.000 C 
ENDBRANCH  12  14
ENDBRANCH   3  12
ENDBRANCH   1   3
BRANCH   1  16
ATOM     16  C   UNL     1       1.776   7.995  20.545  0.00  0.00    +0.000 C 
BRANCH  16  17
ATOM     17  N   UNL     1       0.405   8.516  20.317  0.00  0.00    +0.000 NA
ATOM     18  C   UNL     1      -0.438   8.688  21.523  0.00  0.00    +0.000 C 
ATOM     19  C   UNL     1      -0.090   9.882  22.457  0.00  0.00    +0.000 C 
ATOM     20  N   UNL     1       0.154  11.186  21.791  0.00  0.00    +0.000 NA
ATOM     21  C   UNL     1       1.019  10.964  20.618  0.00  0.00    +0.000 C 
ATOM     22  C   UNL     1       0.513   9.849  19.667  0.00  0.00    +0.000 C 
BRANCH  20  23
ATOM     23  C   UNL     1      -1.116  11.854  21.442  0.00  0.00    +0.000 C 
BRANCH  23  24
ATOM     24  C   UNL     1      -1.747  12.632  22.586  0.00  0.00    +0.000 A 
ATOM     25  C   UNL     1      -1.109  13.768  23.110  0.00  0.00    +0.000 A 
ATOM     26  C   UNL     1      -1.685  14.487  24.161  0.00  0.00    +0.000 A 
ATOM     27  C   UNL     1      -2.903  14.081  24.700  0.00  0.00    +0.000 A 
ATOM     28  C   UNL     1      -3.546  12.950  24.194  0.00  0.00    +0.000 A 
ATOM     29  C   UNL     1      -2.971  12.231  23.142  0.00  0.00    +0.000 A 
ENDBRANCH  23  24
ENDBRANCH  20  23
ENDBRANCH  16  17
ENDBRANCH   1  16
TORSDOF 9
ENDMDL
MODEL 7
REMARK VINA RESULT:      -6.9      1.377      3.690
REMARK  Name = 
REMARK  11 active torsions:
REMARK  status: ('A' for Active; 'I' for Inactive)
REMARK    1  A    between atoms: C_1  and  C_2
REMARK    2  A    between atoms: C_2  and  C_3
REMARK    3  A    between atoms: C_2  and  C_4
REMARK    4  A    between atoms: C_4  and  C_5
REMARK    5  A    between atoms: C_5  and  O_6
REMARK    6  A    between atoms: C_5  and  C_7
REMARK    7  A    between atoms: C_5  and  C_23
REMARK    8  A    between atoms: C_7  and  C_9
REMARK    9  A    between atoms: C_9  and  N_10
REMARK   10  A    between atoms: N_13  and  C_14
REMARK   11  A    between atoms: C_14  and  C_15
REMARK                            x       y       z     vdW  Elec       q    Type
REMARK                         _______ _______ _______ _____ _____    ______ ____
ROOT
ATOM      1  C   UNL     1       5.368   4.947  18.969  0.00  0.00    +0.000 C 
ATOM      2  O   UNL     1       5.644   3.784  19.284  0.00  0.00    +0.000 OA
ENDROOT
BRANCH   1   3
ATOM      3  C   UNL     1       3.863   5.346  18.762  0.00  0.00    +0.000 C 
BRANCH   3   4
ATOM      4  C   UNL     1       2.933   4.338  19.478  0.00  0.00    +0.000 A 
ATOM      5  C   UNL     1       2.199   3.395  18.741  0.00  0.00    +0.000 A 
ATOM      6  C   UNL     1       1.317   2.512  19.380  0.00  0.00    +0.000 A 
ATOM      7  C   UNL     1       1.153   2.547  20.763  0.00  0.00    +0.000 A 
ATOM      8  C   UNL     1       1.889   3.450  21.516  0.00  0.00    +0.000 A 
ATOM      9  C   UNL     1       2.773   4.331  20.883  0.00  0.00    +0.000 A 
ENDBRANCH   3   4
BRANCH   3  10
ATOM     10  O   UNL     1       3.559   5.277  17.356  0.00  0.00    +0.000 OA
ATOM     11  H   UNL     1       3.639   6.191  17.019  0.00  0.00    +0.000 HD
ENDBRANCH   3  10
BRANCH   3  12
ATOM     12  C   UNL     1       3.508   6.793  19.198  0.00  0.00    +0.000 C 
BRANCH  12  14
ATOM     13  C   UNL     1       1.599   7.956  20.283  0.00  0.00    +0.000 C 
ATOM     14  C   UNL     1       2.114   7.400  18.941  0.00  0.00    +0.000 C 
ATOM     15  C   UNL     1       2.144   8.531  17.918  0.00  0.00    +0.000 C 
ENDBRANCH  12  14
ENDBRANCH   3  12
ENDBRANCH   1   3
BRANCH   1  16
ATOM     16  C   UNL     1       6.432   5.989  18.589  0.00  0.00    +0.000 C 
BRANCH  16  17
ATOM     17  N   UNL     1       7.401   5.616  17.528  0.00  0.00    +0.000 NA
ATOM     18  C   UNL     1       7.278   4.244  16.983  0.00  0.00    +0.000 C 
ATOM     19  C   UNL     1       6.071   3.971  16.040  0.00  0.00    +0.000 C 
ATOM     20  N   UNL     1       5.821   4.986  14.985  0.00  0.00    +0.000 NA
ATOM     21  C   UNL     1       5.927   6.328  15.585  0.00  0.00    +0.000 C 
ATOM     22  C   UNL     1       7.233   6.556  16.389  0.00  0.00    +0.000 C 
BRANCH  20  23
ATOM     23  C   UNL     1       6.733   4.801  13.839  0.00  0.00    +0.000 C 
BRANCH  23  24
ATOM     24  C   UNL     1       6.251   3.787  12.814  0.00  0.00    +0.000 A 
ATOM     25  C   UNL     1       7.152   2.878  12.237  0.00  0.00    +0.000 A 
ATOM     26  C   UNL     1       6.715   1.943  11.294  0.00  0.00    +0.000 A 
ATOM     27  C   UNL     1       5.374   1.904  10.919  0.00  0.00    +0.000 A 
ATOM     28  C   UNL     1       4.468   2.806  11.480  0.00  0.00    +0.000 A 
ATOM     29  C   UNL     1       4.905   3.741  12.422  0.00  0.00    +0.000 A 
ENDBRANCH  23  24
ENDBRANCH  20  23
ENDBRANCH  16  17
ENDBRANCH   1  16
TORSDOF 9
ENDMDL
MODEL 8
REMARK VINA RESULT:      -6.9      4.142     10.203
REMARK  Name = 
REMARK  11 active torsions:
REMARK  status: ('A' for Active; 'I' for Inactive)
REMARK    1  A    between atoms: C_1  and  C_2
REMARK    2  A    between atoms: C_2  and  C_3
REMARK    3  A    between atoms: C_2  and  C_4
REMARK    4  A    between atoms: C_4  and  C_5
REMARK    5  A    between atoms: C_5  and  O_6
REMARK    6  A    between atoms: C_5  and  C_7
REMARK    7  A    between atoms: C_5  and  C_23
REMARK    8  A    between atoms: C_7  and  C_9
REMARK    9  A    between atoms: C_9  and  N_10
REMARK   10  A    between atoms: N_13  and  C_14
REMARK   11  A    between atoms: C_14  and  C_15
REMARK                            x       y       z     vdW  Elec       q    Type
REMARK                         _______ _______ _______ _____ _____    ______ ____
ROOT
ATOM      1  C   UNL     1       2.398   7.353  18.986  0.00  0.00    +0.000 C 
ATOM      2  O   UNL     1       2.617   8.045  17.986  0.00  0.00    +0.000 OA
ENDROOT
BRANCH   1   3
ATOM      3  C   UNL     1       2.476   5.790  18.867  0.00  0.00    +0.000 C 
BRANCH   3   4
ATOM      4  C   UNL     1       3.905   5.349  18.471  0.00  0.00    +0.000 A 
ATOM      5  C   UNL     1       4.980   5.536  19.353  0.00  0.00    +0.000 A 
ATOM      6  C   UNL     1       6.286   5.184  18.981  0.00  0.00    +0.000 A 
ATOM      7  C   UNL     1       6.544   4.635  17.727  0.00  0.00    +0.000 A 
ATOM      8  C   UNL     1       5.494   4.414  16.848  0.00  0.00    +0.000 A 
ATOM      9  C   UNL     1       4.189   4.760  17.217  0.00  0.00    +0.000 A 
ENDBRANCH   3   4
BRANCH   3  10
ATOM     10  O   UNL     1       1.594   5.365  17.811  0.00  0.00    +0.000 OA
ATOM     11  H   UNL     1       1.517   6.125  17.202  0.00  0.00    +0.000 HD
ENDBRANCH   3  10
BRANCH   3  12
ATOM     12  C   UNL     1       2.018   5.017  20.133  0.00  0.00    +0.000 C 
BRANCH  12  14
ATOM     13  C   UNL     1       2.174   3.082  21.683  0.00  0.00    +0.000 C 
ATOM     14  C   UNL     1       2.045   3.477  20.199  0.00  0.00    +0.000 C 
ATOM     15  C   UNL     1       0.782   2.841  19.627  0.00  0.00    +0.000 C 
ENDBRANCH  12  14
ENDBRANCH   3  12
ENDBRANCH   1   3
BRANCH   1  16
ATOM     16  C   UNL     1       1.870   7.934  20.309  0.00  0.00    +0.000 C 
BRANCH  16  17
ATOM     17  N   UNL     1       0.479   8.454  20.316  0.00  0.00    +0.000 NA
ATOM     18  C   UNL     1      -0.188   8.520  21.637  0.00  0.00    +0.000 C 
ATOM     19  C   UNL     1       0.286   9.642  22.605  0.00  0.00    +0.000 C 
ATOM     20  N   UNL     1       0.432  10.997  22.016  0.00  0.00    +0.000 NA
ATOM     21  C   UNL     1       1.125  10.878  20.720  0.00  0.00    +0.000 C 
ATOM     22  C   UNL     1       0.493   9.834  19.764  0.00  0.00    +0.000 C 
BRANCH  20  23
ATOM     23  C   UNL     1      -0.875  11.674  21.901  0.00  0.00    +0.000 C 
BRANCH  23  24
ATOM     24  C   UNL     1      -0.930  13.042  22.562  0.00  0.00    +0.000 A 
ATOM     25  C   UNL     1      -0.034  14.053  22.179  0.00  0.00    +0.000 A 
ATOM     26  C   UNL     1      -0.080  15.313  22.783  0.00  0.00    +0.000 A 
ATOM     27  C   UNL     1      -1.022  15.578  23.775  0.00  0.00    +0.000 A 
ATOM     28  C   UNL     1      -1.916  14.580  24.171  0.00  0.00    +0.000 A 
ATOM     29  C   UNL     1      -1.869  13.321  23.567  0.00  0.00    +0.000 A 
ENDBRANCH  23  24
ENDBRANCH  20  23
ENDBRANCH  16  17
ENDBRANCH   1  16
TORSDOF 9
ENDMDL
MODEL 9
REMARK VINA RESULT:      -6.9      2.510      8.654
REMARK  Name = 
REMARK  11 active torsions:
REMARK  status: ('A' for Active; 'I' for Inactive)
REMARK    1  A    between atoms: C_1  and  C_2
REMARK    2  A    between atoms: C_2  and  C_3
REMARK    3  A    between atoms: C_2  and  C_4
REMARK    4  A    between atoms: C_4  and  C_5
REMARK    5  A    between atoms: C_5  and  O_6
REMARK    6  A    between atoms: C_5  and  C_7
REMARK    7  A    between atoms: C_5  and  C_23
REMARK    8  A    between atoms: C_7  and  C_9
REMARK    9  A    between atoms: C_9  and  N_10
REMARK   10  A    between atoms: N_13  and  C_14
REMARK   11  A    between atoms: C_14  and  C_15
REMARK                            x       y       z     vdW  Elec       q    Type
REMARK                         _______ _______ _______ _____ _____    ______ ____
ROOT
ATOM      1  C   UNL     1       4.759   5.589  18.982  0.00  0.00    +0.000 C 
ATOM      2  O   UNL     1       5.705   5.707  19.768  0.00  0.00    +0.000 OA
ENDROOT
BRANCH   1   3
ATOM      3  C   UNL     1       4.474   4.187  18.334  0.00  0.00    +0.000 C 
BRANCH   3   4
ATOM      4  C   UNL     1       3.153   3.598  18.881  0.00  0.00    +0.000 A 
ATOM      5  C   UNL     1       2.118   3.229  18.005  0.00  0.00    +0.000 A 
ATOM      6  C   UNL     1       0.899   2.741  18.497  0.00  0.00    +0.000 A 
ATOM      7  C   UNL     1       0.689   2.604  19.867  0.00  0.00    +0.000 A 
ATOM      8  C   UNL     1       1.706   2.934  20.752  0.00  0.00    +0.000 A 
ATOM      9  C   UNL     1       2.925   3.418  20.265  0.00  0.00    +0.000 A 
ENDBRANCH   3   4
BRANCH   3  10
ATOM     10  O   UNL     1       5.529   3.283  18.711  0.00  0.00    +0.000 OA
ATOM     11  H   UNL     1       5.537   2.580  18.032  0.00  0.00    +0.000 HD
ENDBRANCH   3  10
BRANCH   3  12
ATOM     12  C   UNL     1       4.451   4.181  16.781  0.00  0.00    +0.000 C 
BRANCH  12  14
ATOM     13  C   UNL     1       5.930   3.701  14.844  0.00  0.00    +0.000 C 
ATOM     14  C   UNL     1       5.627   4.730  15.950  0.00  0.00    +0.000 C 
ATOM     15  C   UNL     1       5.312   6.074  15.300  0.00  0.00    +0.000 C 
ENDBRANCH  12  14
ENDBRANCH   3  12
ENDBRANCH   1   3
BRANCH   1  16
ATOM     16  C   UNL     1       3.948   6.786  18.458  0.00  0.00    +0.000 C 
BRANCH  16  17
ATOM     17  N   UNL     1       2.469   6.705  18.565  0.00  0.00    +0.000 NA
ATOM     18  C   UNL     1       1.904   6.830  19.928  0.00  0.00    +0.000 C 
ATOM     19  C   UNL     1       1.919   8.249  20.566  0.00  0.00    +0.000 C 
ATOM     20  N   UNL     1       1.459   9.362  19.697  0.00  0.00    +0.000 NA
ATOM     21  C   UNL     1       2.071   9.207  18.365  0.00  0.00    +0.000 C 
ATOM     22  C   UNL     1       1.881   7.798  17.746  0.00  0.00    +0.000 C 
BRANCH  20  23
ATOM     23  C   UNL     1      -0.015   9.423  19.642  0.00  0.00    +0.000 C 
BRANCH  23  24
ATOM     24  C   UNL     1      -0.622  10.581  20.417  0.00  0.00    +0.000 A 
ATOM     25  C   UNL     1      -1.413  11.538  19.763  0.00  0.00    +0.000 A 
ATOM     26  C   UNL     1      -1.974  12.605  20.471  0.00  0.00    +0.000 A 
ATOM     27  C   UNL     1      -1.751  12.728  21.841  0.00  0.00    +0.000 A 
ATOM     28  C   UNL     1      -0.961  11.787  22.504  0.00  0.00    +0.000 A 
ATOM     29  C   UNL     1      -0.401  10.720  21.796  0.00  0.00    +0.000 A 
ENDBRANCH  23  24
ENDBRANCH  20  23
ENDBRANCH  16  17
ENDBRANCH   1  16
TORSDOF 9
ENDMDL
