MODEL 1
REMARK VINA RESULT:      -9.7      0.000      0.000
REMARK  Name = 
REMARK  6 active torsions:
REMARK  status: ('A' for Active; 'I' for Inactive)
REMARK    1  A    between atoms: C_5  and  C_6
REMARK    2  A    between atoms: C_6  and  C_7
REMARK    3  A    between atoms: C_11  and  C_12
REMARK    4  A    between atoms: C_16  and  C_17
REMARK    5  A    between atoms: C_17  and  N_18
REMARK    6  A    between atoms: N_18  and  C_19
REMARK                            x       y       z     vdW  Elec       q    Type
REMARK                         _______ _______ _______ _____ _____    ______ ____
ROOT
ATOM      1  C   UNL     1       1.003   9.931  19.418  0.00  0.00    +0.000 A 
ATOM      2  C   UNL     1       0.581   9.542  20.697  0.00  0.00    +0.000 A 
ATOM      3  C   UNL     1       0.965   8.311  21.226  0.00  0.00    +0.000 A 
ATOM      4  C   UNL     1       1.740   7.436  20.470  0.00  0.00    +0.000 A 
ATOM      5  C   UNL     1       2.180   7.780  19.179  0.00  0.00    +0.000 A 
ATOM      6  C   UNL     1       1.850   9.067  18.698  0.00  0.00    +0.000 A 
ENDROOT
BRANCH   5   7
ATOM      7  C   UNL     1       2.887   6.781  18.346  0.00  0.00    +0.000 A 
ATOM      8  C   UNL     1       4.068   7.109  17.654  0.00  0.00    +0.000 A 
ATOM      9  C   UNL     1       4.729   6.189  16.843  0.00  0.00    +0.000 A 
ATOM     10  C   UNL     1       4.220   4.897  16.698  0.00  0.00    +0.000 A 
ATOM     11  C   UNL     1       3.059   4.525  17.384  0.00  0.00    +0.000 A 
ATOM     12  C   UNL     1       2.418   5.462  18.209  0.00  0.00    +0.000 A 
BRANCH  11  13
ATOM     13  C   UNL     1       2.509   3.124  17.241  0.00  0.00    +0.000 C 
BRANCH  13  14
ATOM     14  N   UNL     1       3.290   2.171  18.027  0.00  0.00    +0.000 NA
ATOM     15  H   UNL     1       4.256   2.498  18.068  0.00  0.00    +0.000 HD
BRANCH  14  16
ATOM     16  C   UNL     1       2.777   1.987  19.377  0.00  0.00    +0.000 C 
ATOM     17  C   UNL     1       3.478   2.799  20.465  0.00  0.00    +0.000 C 
ATOM     18  C   UNL     1       2.482   2.774  21.618  0.00  0.00    +0.000 C 
ATOM     19  C   UNL     1       1.101   2.740  20.965  0.00  0.00    +0.000 C 
ATOM     20  C   UNL     1       1.337   2.492  19.475  0.00  0.00    +0.000 C 
ENDBRANCH  14  16
ENDBRANCH  13  14
ENDBRANCH  11  13
ENDBRANCH   5   7
BRANCH   1  21
ATOM     21  C   UNL     1       0.335  11.112  18.742  0.00  0.00    +0.000 C 
BRANCH  21  26
ATOM     22  O   UNL     1      -4.863  12.700  19.647  0.00  0.00    +0.000 OA
ATOM     23  C   UNL     1      -3.736  12.263  19.426  0.00  0.00    +0.000 A 
ATOM     24  N   UNL     1      -2.691  12.467  20.285  0.00  0.00    +0.000 N 
ATOM     25  N   UNL     1      -1.407  12.067  20.093  0.00  0.00    +0.000 NA
ATOM     26  C   UNL     1      -1.141  11.383  19.019  0.00  0.00    +0.000 A 
ATOM     27  C   UNL     1      -2.187  11.001  18.009  0.00  0.00    +0.000 A 
ATOM     28  C   UNL     1      -3.432  11.475  18.207  0.00  0.00    +0.000 A 
ATOM     29  C   UNL     1      -4.570  11.270  17.239  0.00  0.00    +0.000 C 
ATOM     30  C   UNL     1      -4.092  10.788  15.867  0.00  0.00    +0.000 C 
ATOM     31  C   UNL     1      -3.085   9.658  16.042  0.00  0.00    +0.000 C 
ATOM     32  C   UNL     1      -1.848  10.163  16.806  0.00  0.00    +0.000 C 
ATOM     33  H   UNL     1      -2.873  13.032  21.108  0.00  0.00    +0.000 HD
ENDBRANCH  21  26
ENDBRANCH   1  21
TORSDOF 6
ENDMDL
MODEL 2
REMARK VINA RESULT:      -9.4      1.708      3.267
REMARK  Name = 
REMARK  6 active torsions:
REMARK  status: ('A' for Active; 'I' for Inactive)
REMARK    1  A    between atoms: C_5  and  C_6
REMARK    2  A    between atoms: C_6  and  C_7
REMARK    3  A    between atoms: C_11  and  C_12
REMARK    4  A    between atoms: C_16  and  C_17
REMARK    5  A    between atoms: C_17  and  N_18
REMARK    6  A    between atoms: N_18  and  C_19
REMARK                            x       y       z     vdW  Elec       q    Type
REMARK                         _______ _______ _______ _____ _____    ______ ____
ROOT
ATOM      1  C   UNL     1       0.556  10.269  20.055  0.00  0.00    +0.000 A 
ATOM      2  C   UNL     1       0.118   9.931  21.344  0.00  0.00    +0.000 A 
ATOM      3  C   UNL     1       0.449   8.700  21.905  0.00  0.00    +0.000 A 
ATOM      4  C   UNL     1       1.188   7.774  21.173  0.00  0.00    +0.000 A 
ATOM      5  C   UNL     1       1.643   8.065  19.875  0.00  0.00    +0.000 A 
ATOM      6  C   UNL     1       1.367   9.352  19.360  0.00  0.00    +0.000 A 
ENDROOT
BRANCH   5   7
ATOM      7  C   UNL     1       2.308   7.016  19.069  0.00  0.00    +0.000 A 
ATOM      8  C   UNL     1       2.052   5.649  19.294  0.00  0.00    +0.000 A 
ATOM      9  C   UNL     1       2.691   4.649  18.565  0.00  0.00    +0.000 A 
ATOM     10  C   UNL     1       3.617   4.990  17.578  0.00  0.00    +0.000 A 
ATOM     11  C   UNL     1       3.883   6.336  17.309  0.00  0.00    +0.000 A 
ATOM     12  C   UNL     1       3.217   7.329  18.044  0.00  0.00    +0.000 A 
BRANCH  11  13
ATOM     13  C   UNL     1       4.876   6.714  16.233  0.00  0.00    +0.000 C 
BRANCH  13  14
ATOM     14  N   UNL     1       5.920   5.700  16.104  0.00  0.00    +0.000 NA
ATOM     15  H   UNL     1       6.180   5.622  15.120  0.00  0.00    +0.000 HD
BRANCH  14  16
ATOM     16  C   UNL     1       7.103   5.993  16.901  0.00  0.00    +0.000 C 
ATOM     17  C   UNL     1       7.196   7.419  17.443  0.00  0.00    +0.000 C 
ATOM     18  C   UNL     1       8.222   7.303  18.563  0.00  0.00    +0.000 C 
ATOM     19  C   UNL     1       8.042   5.899  19.138  0.00  0.00    +0.000 C 
ATOM     20  C   UNL     1       7.105   5.160  18.183  0.00  0.00    +0.000 C 
ENDBRANCH  14  16
ENDBRANCH  13  14
ENDBRANCH  11  13
ENDBRANCH   5   7
BRANCH   1  21
ATOM     21  C   UNL     1      -0.061  11.460  19.348  0.00  0.00    +0.000 C 
BRANCH  21  26
ATOM     22  O   UNL     1      -5.443  12.636  19.272  0.00  0.00    +0.000 OA
ATOM     23  C   UNL     1      -4.265  12.288  19.267  0.00  0.00    +0.000 A 
ATOM     24  N   UNL     1      -3.408  12.592  20.290  0.00  0.00    +0.000 N 
ATOM     25  N   UNL     1      -2.083  12.295  20.340  0.00  0.00    +0.000 NA
ATOM     26  C   UNL     1      -1.579  11.614  19.352  0.00  0.00    +0.000 A 
ATOM     27  C   UNL     1      -2.396  11.129  18.187  0.00  0.00    +0.000 A 
ATOM     28  C   UNL     1      -3.689  11.504  18.147  0.00  0.00    +0.000 A 
ATOM     29  C   UNL     1      -4.617  11.190  17.001  0.00  0.00    +0.000 C 
ATOM     30  C   UNL     1      -3.868  10.722  15.752  0.00  0.00    +0.000 C 
ATOM     31  C   UNL     1      -2.824   9.681  16.137  0.00  0.00    +0.000 C 
ATOM     32  C   UNL     1      -1.786  10.299  17.090  0.00  0.00    +0.000 C 
ATOM     33  H   UNL     1      -3.776  13.156  21.048  0.00  0.00    +0.000 HD
ENDBRANCH  21  26
ENDBRANCH   1  21
TORSDOF 6
ENDMDL
MODEL 3
REMARK VINA RESULT:      -9.3      2.112      3.891
REMARK  Name = 
REMARK  6 active torsions:
REMARK  status: ('A' for Active; 'I' for Inactive)
REMARK    1  A    between atoms: C_5  and  C_6
REMARK    2  A    between atoms: C_6  and  C_7
REMARK    3  A    between atoms: C_11  and  C_12
REMARK    4  A    between atoms: C_16  and  C_17
REMARK    5  A    between atoms: C_17  and  N_18
REMARK    6  A    between atoms: N_18  and  C_19
REMARK                            x       y       z     vdW  Elec       q    Type
REMARK                         _______ _______ _______ _____ _____    ______ ____
ROOT
ATOM      1  C   UNL     1       1.042   9.687  19.373  0.00  0.00    +0.000 A 
ATOM      2  C   UNL     1       0.573   9.619  20.693  0.00  0.00    +0.000 A 
ATOM      3  C   UNL     1       0.802   8.485  21.468  0.00  0.00    +0.000 A 
ATOM      4  C   UNL     1       1.466   7.388  20.926  0.00  0.00    +0.000 A 
ATOM      5  C   UNL     1       1.947   7.407  19.604  0.00  0.00    +0.000 A 
ATOM      6  C   UNL     1       1.778   8.600  18.865  0.00  0.00    +0.000 A 
ENDROOT
BRANCH   5   7
ATOM      7  C   UNL     1       2.527   6.182  19.009  0.00  0.00    +0.000 A 
ATOM      8  C   UNL     1       1.785   5.377  18.123  0.00  0.00    +0.000 A 
ATOM      9  C   UNL     1       2.305   4.205  17.578  0.00  0.00    +0.000 A 
ATOM     10  C   UNL     1       3.600   3.800  17.906  0.00  0.00    +0.000 A 
ATOM     11  C   UNL     1       4.377   4.582  18.766  0.00  0.00    +0.000 A 
ATOM     12  C   UNL     1       3.840   5.767  19.292  0.00  0.00    +0.000 A 
BRANCH  11  13
ATOM     13  C   UNL     1       5.785   4.155  19.117  0.00  0.00    +0.000 C 
BRANCH  13  14
ATOM     14  N   UNL     1       6.617   4.059  17.920  0.00  0.00    +0.000 NA
ATOM     15  H   UNL     1       6.012   3.892  17.115  0.00  0.00    +0.000 HD
BRANCH  14  16
ATOM     16  C   UNL     1       7.426   5.248  17.688  0.00  0.00    +0.000 C 
ATOM     17  C   UNL     1       6.708   6.409  17.003  0.00  0.00    +0.000 C 
ATOM     18  C   UNL     1       7.602   7.604  17.309  0.00  0.00    +0.000 C 
ATOM     19  C   UNL     1       8.207   7.320  18.683  0.00  0.00    +0.000 C 
ATOM     20  C   UNL     1       7.852   5.871  19.017  0.00  0.00    +0.000 C 
ENDBRANCH  14  16
ENDBRANCH  13  14
ENDBRANCH  11  13
ENDBRANCH   5   7
BRANCH   1  21
ATOM     21  C   UNL     1       0.525  10.778  18.456  0.00  0.00    +0.000 C 
BRANCH  21  26
ATOM     22  O   UNL     1      -4.953  10.629  17.885  0.00  0.00    +0.000 OA
ATOM     23  C   UNL     1      -3.737  10.753  18.006  0.00  0.00    +0.000 A 
ATOM     24  N   UNL     1      -2.850  10.012  17.274  0.00  0.00    +0.000 N 
ATOM     25  N   UNL     1      -1.496  10.046  17.382  0.00  0.00    +0.000 NA
ATOM     26  C   UNL     1      -0.979  10.895  18.223  0.00  0.00    +0.000 A 
ATOM     27  C   UNL     1      -1.805  11.841  19.048  0.00  0.00    +0.000 A 
ATOM     28  C   UNL     1      -3.144  11.725  18.956  0.00  0.00    +0.000 A 
ATOM     29  C   UNL     1      -4.113  12.526  19.790  0.00  0.00    +0.000 C 
ATOM     30  C   UNL     1      -3.436  13.210  20.979  0.00  0.00    +0.000 C 
ATOM     31  C   UNL     1      -2.152  13.890  20.519  0.00  0.00    +0.000 C 
ATOM     32  C   UNL     1      -1.166  12.844  19.970  0.00  0.00    +0.000 C 
ATOM     33  H   UNL     1      -3.237   9.319  16.643  0.00  0.00    +0.000 HD
ENDBRANCH  21  26
ENDBRANCH   1  21
TORSDOF 6
ENDMDL
MODEL 4
REMARK VINA RESULT:      -9.2      1.963      3.150
REMARK  Name = 
REMARK  6 active torsions:
REMARK  status: ('A' for Active; 'I' for Inactive)
REMARK    1  A    between atoms: C_5  and  C_6
REMARK    2  A    between atoms: C_6  and  C_7
REMARK    3  A    between atoms: C_11  and  C_12
REMARK    4  A    between atoms: C_16  and  C_17
REMARK    5  A    between atoms: C_17  and  N_18
REMARK    6  A    between atoms: N_18  and  C_19
REMARK                            x       y       z     vdW  Elec       q    Type
REMARK                         _______ _______ _______ _____ _____    ______ ____
ROOT
ATOM      1  C   UNL     1       0.641   9.747  18.964  0.00  0.00    +0.000 A 
ATOM      2  C   UNL     1       0.410   9.477  20.320  0.00  0.00    +0.000 A 
ATOM      3  C   UNL     1       1.078   8.434  20.959  0.00  0.00    +0.000 A 
ATOM      4  C   UNL     1       1.954   7.622  20.244  0.00  0.00    +0.000 A 
ATOM      5  C   UNL     1       2.211   7.850  18.880  0.00  0.00    +0.000 A 
ATOM      6  C   UNL     1       1.587   8.964  18.275  0.00  0.00    +0.000 A 
ENDROOT
BRANCH   5   7
ATOM      7  C   UNL     1       3.039   6.892  18.111  0.00  0.00    +0.000 A 
ATOM      8  C   UNL     1       4.123   7.328  17.325  0.00  0.00    +0.000 A 
ATOM      9  C   UNL     1       4.893   6.443  16.574  0.00  0.00    +0.000 A 
ATOM     10  C   UNL     1       4.597   5.079  16.586  0.00  0.00    +0.000 A 
ATOM     11  C   UNL     1       3.541   4.603  17.369  0.00  0.00    +0.000 A 
ATOM     12  C   UNL     1       2.787   5.509  18.132  0.00  0.00    +0.000 A 
BRANCH  11  13
ATOM     13  C   UNL     1       3.222   3.125  17.397  0.00  0.00    +0.000 C 
BRANCH  13  14
ATOM     14  N   UNL     1       1.861   2.892  17.874  0.00  0.00    +0.000 NA
ATOM     15  H   UNL     1       1.412   2.211  17.260  0.00  0.00    +0.000 HD
BRANCH  14  16
ATOM     16  C   UNL     1       1.811   2.418  19.250  0.00  0.00    +0.000 C 
ATOM     17  C   UNL     1       3.125   2.502  20.024  0.00  0.00    +0.000 C 
ATOM     18  C   UNL     1       2.683   2.399  21.478  0.00  0.00    +0.000 C 
ATOM     19  C   UNL     1       1.309   3.064  21.536  0.00  0.00    +0.000 C 
ATOM     20  C   UNL     1       0.886   3.304  20.087  0.00  0.00    +0.000 C 
ENDBRANCH  14  16
ENDBRANCH  13  14
ENDBRANCH  11  13
ENDBRANCH   5   7
BRANCH   1  21
ATOM     21  C   UNL     1      -0.306  10.666  18.217  0.00  0.00    +0.000 C 
BRANCH  21  26
ATOM     22  O   UNL     1      -1.135  15.545  20.638  0.00  0.00    +0.000 OA
ATOM     23  C   UNL     1      -0.906  14.501  20.032  0.00  0.00    +0.000 A 
ATOM     24  N   UNL     1      -1.880  13.575  19.776  0.00  0.00    +0.000 N 
ATOM     25  N   UNL     1      -1.703  12.375  19.163  0.00  0.00    +0.000 NA
ATOM     26  C   UNL     1      -0.510  12.089  18.729  0.00  0.00    +0.000 A 
ATOM     27  C   UNL     1       0.657  13.027  18.855  0.00  0.00    +0.000 A 
ATOM     28  C   UNL     1       0.450  14.175  19.528  0.00  0.00    +0.000 A 
ATOM     29  C   UNL     1       1.538  15.175  19.831  0.00  0.00    +0.000 C 
ATOM     30  C   UNL     1       2.939  14.601  19.616  0.00  0.00    +0.000 C 
ATOM     31  C   UNL     1       2.993  13.862  18.284  0.00  0.00    +0.000 C 
ATOM     32  C   UNL     1       2.010  12.679  18.293  0.00  0.00    +0.000 C 
ATOM     33  H   UNL     1      -2.806  13.765  20.142  0.00  0.00    +0.000 HD
ENDBRANCH  21  26
ENDBRANCH   1  21
TORSDOF 6
ENDMDL
MODEL 5
REMARK VINA RESULT:      -9.2      2.192      3.968
REMARK  Name = 
REMARK  6 active torsions:
REMARK  status: ('A' for Active; 'I' for Inactive)
REMARK    1  A    between atoms: C_5  and  C_6
REMARK    2  A    between atoms: C_6  and  C_7
REMARK    3  A    between atoms: C_11  and  C_12
REMARK    4  A    between atoms: C_16  and  C_17
REMARK    5  A    between atoms: C_17  and  N_18
REMARK    6  A    between atoms: N_18  and  C_19
REMARK                            x       y       z     vdW  Elec       q    Type
REMARK                         _______ _______ _______ _____ _____    ______ ____
ROOT
ATOM      1  C   UNL     1       1.212   9.393  19.478  0.00  0.00    +0.000 A 
ATOM      2  C   UNL     1       0.657   9.014  20.709  0.00  0.00    +0.000 A 
ATOM      3  C   UNL     1       0.969   7.780  21.276  0.00  0.00    +0.000 A 
ATOM      4  C   UNL     1       1.805   6.892  20.605  0.00  0.00    +0.000 A 
ATOM      5  C   UNL     1       2.379   7.226  19.364  0.00  0.00    +0.000 A 
ATOM      6  C   UNL     1       2.116   8.515  18.850  0.00  0.00    +0.000 A 
ENDROOT
BRANCH   5   7
ATOM      7  C   UNL     1       3.153   6.215  18.609  0.00  0.00    +0.000 A 
ATOM      8  C   UNL     1       3.265   4.887  19.067  0.00  0.00    +0.000 A 
ATOM      9  C   UNL     1       4.013   3.931  18.384  0.00  0.00    +0.000 A 
ATOM     10  C   UNL     1       4.681   4.279  17.209  0.00  0.00    +0.000 A 
ATOM     11  C   UNL     1       4.579   5.582  16.710  0.00  0.00    +0.000 A 
ATOM     12  C   UNL     1       3.807   6.526  17.404  0.00  0.00    +0.000 A 
BRANCH  11  13
ATOM     13  C   UNL     1       5.291   5.963  15.431  0.00  0.00    +0.000 C 
BRANCH  13  14
ATOM     14  N   UNL     1       6.644   5.413  15.401  0.00  0.00    +0.000 NA
ATOM     15  H   UNL     1       6.831   4.958  16.295  0.00  0.00    +0.000 HD
BRANCH  14  16
ATOM     16  C   UNL     1       6.851   4.464  14.315  0.00  0.00    +0.000 C 
ATOM     17  C   UNL     1       5.583   3.975  13.617  0.00  0.00    +0.000 C 
ATOM     18  C   UNL     1       6.104   3.408  12.302  0.00  0.00    +0.000 C 
ATOM     19  C   UNL     1       7.319   4.261  11.942  0.00  0.00    +0.000 C 
ATOM     20  C   UNL     1       7.618   5.122  13.168  0.00  0.00    +0.000 C 
ENDBRANCH  14  16
ENDBRANCH  13  14
ENDBRANCH  11  13
ENDBRANCH   5   7
BRANCH   1  21
ATOM     21  C   UNL     1       0.632  10.581  18.736  0.00  0.00    +0.000 C 
BRANCH  21  26
ATOM     22  O   UNL     1      -4.136  13.014  20.041  0.00  0.00    +0.000 OA
ATOM     23  C   UNL     1      -3.120  12.395  19.735  0.00  0.00    +0.000 A 
ATOM     24  N   UNL     1      -1.984  12.431  20.497  0.00  0.00    +0.000 N 
ATOM     25  N   UNL     1      -0.805  11.823  20.206  0.00  0.00    +0.000 NA
ATOM     26  C   UNL     1      -0.751  11.094  19.130  0.00  0.00    +0.000 A 
ATOM     27  C   UNL     1      -1.929  10.880  18.222  0.00  0.00    +0.000 A 
ATOM     28  C   UNL     1      -3.057  11.555  18.514  0.00  0.00    +0.000 A 
ATOM     29  C   UNL     1      -4.294  11.533  17.651  0.00  0.00    +0.000 C 
ATOM     30  C   UNL     1      -4.024  10.965  16.256  0.00  0.00    +0.000 C 
ATOM     31  C   UNL     1      -3.204   9.686  16.371  0.00  0.00    +0.000 C 
ATOM     32  C   UNL     1      -1.839   9.986  17.015  0.00  0.00    +0.000 C 
ATOM     33  H   UNL     1      -1.998  13.026  21.318  0.00  0.00    +0.000 HD
ENDBRANCH  21  26
ENDBRANCH   1  21
TORSDOF 6
ENDMDL
MODEL 6
REMARK VINA RESULT:      -9.2      2.127      3.785
REMARK  Name = 
REMARK  6 active torsions:
REMARK  status: ('A' for Active; 'I' for Inactive)
REMARK    1  A    between atoms: C_5  and  C_6
REMARK    2  A    between atoms: C_6  and  C_7
REMARK    3  A    between atoms: C_11  and  C_12
REMARK    4  A    between atoms: C_16  and  C_17
REMARK    5  A    between atoms: C_17  and  N_18
REMARK    6  A    between atoms: N_18  and  C_19
REMARK                            x       y       z     vdW  Elec       q    Type
REMARK                         _______ _______ _______ _____ _____    ______ ____
ROOT
ATOM      1  C   UNL     1      -0.665  11.493  21.402  0.00  0.00    +0.000 A 
ATOM      2  C   UNL     1      -1.001  10.906  22.631  0.00  0.00    +0.000 A 
ATOM      3  C   UNL     1      -0.485   9.661  22.986  0.00  0.00    +0.000 A 
ATOM      4  C   UNL     1       0.339   8.968  22.105  0.00  0.00    +0.000 A 
ATOM      5  C   UNL     1       0.697   9.513  20.859  0.00  0.00    +0.000 A 
ATOM      6  C   UNL     1       0.232  10.812  20.556  0.00  0.00    +0.000 A 
ENDROOT
BRANCH   5   7
ATOM      7  C   UNL     1       1.462   8.699  19.886  0.00  0.00    +0.000 A 
ATOM      8  C   UNL     1       1.624   9.116  18.550  0.00  0.00    +0.000 A 
ATOM      9  C   UNL     1       2.315   8.349  17.616  0.00  0.00    +0.000 A 
ATOM     10  C   UNL     1       2.871   7.125  17.994  0.00  0.00    +0.000 A 
ATOM     11  C   UNL     1       2.749   6.685  19.316  0.00  0.00    +0.000 A 
ATOM     12  C   UNL     1       2.063   7.480  20.246  0.00  0.00    +0.000 A 
BRANCH  11  13
ATOM     13  C   UNL     1       3.359   5.366  19.735  0.00  0.00    +0.000 C 
BRANCH  13  14
ATOM     14  N   UNL     1       3.628   4.520  18.575  0.00  0.00    +0.000 NA
ATOM     15  H   UNL     1       3.230   4.966  17.747  0.00  0.00    +0.000 HD
BRANCH  14  16
ATOM     16  C   UNL     1       5.048   4.273  18.364  0.00  0.00    +0.000 C 
ATOM     17  C   UNL     1       5.560   4.541  16.949  0.00  0.00    +0.000 C 
ATOM     18  C   UNL     1       7.068   4.654  17.138  0.00  0.00    +0.000 C 
ATOM     19  C   UNL     1       7.262   5.256  18.529  0.00  0.00    +0.000 C 
ATOM     20  C   UNL     1       5.888   5.239  19.200  0.00  0.00    +0.000 C 
ENDBRANCH  14  16
ENDBRANCH  13  14
ENDBRANCH  11  13
ENDBRANCH   5   7
BRANCH   1  21
ATOM     21  C   UNL     1      -1.463  12.680  20.902  0.00  0.00    +0.000 C 
BRANCH  21  26
ATOM     22  O   UNL     1      -4.817  11.342  16.740  0.00  0.00    +0.000 OA
ATOM     23  C   UNL     1      -4.127  11.708  17.688  0.00  0.00    +0.000 A 
ATOM     24  N   UNL     1      -2.774  11.887  17.581  0.00  0.00    +0.000 N 
ATOM     25  N   UNL     1      -1.931  12.237  18.588  0.00  0.00    +0.000 NA
ATOM     26  C   UNL     1      -2.451  12.474  19.757  0.00  0.00    +0.000 A 
ATOM     27  C   UNL     1      -3.927  12.404  20.028  0.00  0.00    +0.000 A 
ATOM     28  C   UNL     1      -4.717  11.989  19.019  0.00  0.00    +0.000 A 
ATOM     29  C   UNL     1      -6.202  11.766  19.155  0.00  0.00    +0.000 C 
ATOM     30  C   UNL     1      -6.656  11.714  20.616  0.00  0.00    +0.000 C 
ATOM     31  C   UNL     1      -6.027  12.866  21.391  0.00  0.00    +0.000 C 
ATOM     32  C   UNL     1      -4.494  12.738  21.382  0.00  0.00    +0.000 C 
ATOM     33  H   UNL     1      -2.349  11.668  16.687  0.00  0.00    +0.000 HD
ENDBRANCH  21  26
ENDBRANCH   1  21
TORSDOF 6
ENDMDL
MODEL 7
REMARK VINA RESULT:      -9.2      2.099      3.905
REMARK  Name = 
REMARK  6 active torsions:
REMARK  status: ('A' for Active; 'I' for Inactive)
REMARK    1  A    between atoms: C_5  and  C_6
REMARK    2  A    between atoms: C_6  and  C_7
REMARK    3  A    between atoms: C_11  and  C_12
REMARK    4  A    between atoms: C_16  and  C_17
REMARK    5  A    between atoms: C_17  and  N_18
REMARK    6  A    between atoms: N_18  and  C_19
REMARK                            x       y       z     vdW  Elec       q    Type
REMARK                         _______ _______ _______ _____ _____    ______ ____
ROOT
ATOM      1  C   UNL     1       1.506   9.079  19.181  0.00  0.00    +0.000 A 
ATOM      2  C   UNL     1       1.114   8.974  20.523  0.00  0.00    +0.000 A 
ATOM      3  C   UNL     1       1.240   7.766  21.206  0.00  0.00    +0.000 A 
ATOM      4  C   UNL     1       1.721   6.637  20.548  0.00  0.00    +0.000 A 
ATOM      5  C   UNL     1       2.119   6.692  19.200  0.00  0.00    +0.000 A 
ATOM      6  C   UNL     1       2.061   7.947  18.553  0.00  0.00    +0.000 A 
ENDROOT
BRANCH   5   7
ATOM      7  C   UNL     1       2.496   5.451  18.487  0.00  0.00    +0.000 A 
ATOM      8  C   UNL     1       1.667   4.313  18.510  0.00  0.00    +0.000 A 
ATOM      9  C   UNL     1       2.021   3.127  17.869  0.00  0.00    +0.000 A 
ATOM     10  C   UNL     1       3.232   3.044  17.179  0.00  0.00    +0.000 A 
ATOM     11  C   UNL     1       4.074   4.159  17.115  0.00  0.00    +0.000 A 
ATOM     12  C   UNL     1       3.692   5.348  17.754  0.00  0.00    +0.000 A 
BRANCH  11  13
ATOM     13  C   UNL     1       5.382   4.080  16.359  0.00  0.00    +0.000 C 
BRANCH  13  14
ATOM     14  N   UNL     1       5.861   5.413  16.000  0.00  0.00    +0.000 NA
ATOM     15  H   UNL     1       5.103   6.081  16.145  0.00  0.00    +0.000 HD
BRANCH  14  16
ATOM     16  C   UNL     1       7.031   5.825  16.763  0.00  0.00    +0.000 C 
ATOM     17  C   UNL     1       6.940   7.203  17.415  0.00  0.00    +0.000 C 
ATOM     18  C   UNL     1       8.035   7.164  18.474  0.00  0.00    +0.000 C 
ATOM     19  C   UNL     1       8.101   5.710  18.940  0.00  0.00    +0.000 C 
ATOM     20  C   UNL     1       7.231   4.909  17.972  0.00  0.00    +0.000 C 
ENDBRANCH  14  16
ENDBRANCH  13  14
ENDBRANCH  11  13
ENDBRANCH   5   7
BRANCH   1  21
ATOM     21  C   UNL     1       1.081  10.290  18.374  0.00  0.00    +0.000 C 
BRANCH  21  26
ATOM     22  O   UNL     1      -4.398  10.752  18.015  0.00  0.00    +0.000 OA
ATOM     23  C   UNL     1      -3.172  10.740  18.088  0.00  0.00    +0.000 A 
ATOM     24  N   UNL     1      -2.402   9.896  17.333  0.00  0.00    +0.000 N 
ATOM     25  N   UNL     1      -1.050   9.780  17.390  0.00  0.00    +0.000 NA
ATOM     26  C   UNL     1      -0.408  10.573  18.197  0.00  0.00    +0.000 A 
ATOM     27  C   UNL     1      -1.090  11.614  19.040  0.00  0.00    +0.000 A 
ATOM     28  C   UNL     1      -2.436  11.649  19.001  0.00  0.00    +0.000 A 
ATOM     29  C   UNL     1      -3.276  12.561  19.859  0.00  0.00    +0.000 C 
ATOM     30  C   UNL     1      -2.480  13.177  21.012  0.00  0.00    +0.000 C 
ATOM     31  C   UNL     1      -1.147  13.703  20.493  0.00  0.00    +0.000 C 
ATOM     32  C   UNL     1      -0.307  12.548  19.922  0.00  0.00    +0.000 C 
ATOM     33  H   UNL     1      -2.889   9.245  16.728  0.00  0.00    +0.000 HD
ENDBRANCH  21  26
ENDBRANCH   1  21
TORSDOF 6
ENDMDL
MODEL 8
REMARK VINA RESULT:      -9.1      1.854      3.172
REMARK  Name = 
REMARK  6 active torsions:
REMARK  status: ('A' for Active; 'I' for Inactive)
REMARK    1  A    between atoms: C_5  and  C_6
REMARK    2  A    between atoms: C_6  and  C_7
REMARK    3  A    between atoms: C_11  and  C_12
REMARK    4  A    between atoms: C_16  and  C_17
REMARK    5  A    between atoms: C_17  and  N_18
REMARK    6  A    between atoms: N_18  and  C_19
REMARK                            x       y       z     vdW  Elec       q    Type
REMARK                         _______ _______ _______ _____ _____    ______ ____
ROOT
ATOM      1  C   UNL     1      -0.710  11.506  21.339  0.00  0.00    +0.000 A 
ATOM      2  C   UNL     1      -1.017  10.958  22.593  0.00  0.00    +0.000 A 
ATOM      3  C   UNL     1      -0.474   9.735  22.984  0.00  0.00    +0.000 A 
ATOM      4  C   UNL     1       0.349   9.025  22.115  0.00  0.00    +0.000 A 
ATOM      5  C   UNL     1       0.679   9.532  20.845  0.00  0.00    +0.000 A 
ATOM      6  C   UNL     1       0.185  10.811  20.504  0.00  0.00    +0.000 A 
ENDROOT
BRANCH   5   7
ATOM      7  C   UNL     1       1.443   8.698  19.889  0.00  0.00    +0.000 A 
ATOM      8  C   UNL     1       1.608   9.088  18.546  0.00  0.00    +0.000 A 
ATOM      9  C   UNL     1       2.298   8.300  17.628  0.00  0.00    +0.000 A 
ATOM     10  C   UNL     1       2.851   7.083  18.031  0.00  0.00    +0.000 A 
ATOM     11  C   UNL     1       2.726   6.669  19.361  0.00  0.00    +0.000 A 
ATOM     12  C   UNL     1       2.041   7.484  20.274  0.00  0.00    +0.000 A 
BRANCH  11  13
ATOM     13  C   UNL     1       3.332   5.357  19.808  0.00  0.00    +0.000 C 
BRANCH  13  14
ATOM     14  N   UNL     1       3.399   4.407  18.700  0.00  0.00    +0.000 NA
ATOM     15  H   UNL     1       2.874   4.787  17.912  0.00  0.00    +0.000 HD
BRANCH  14  16
ATOM     16  C   UNL     1       4.762   4.110  18.282  0.00  0.00    +0.000 C 
ATOM     17  C   UNL     1       5.096   4.453  16.831  0.00  0.00    +0.000 C 
ATOM     18  C   UNL     1       6.620   4.483  16.819  0.00  0.00    +0.000 C 
ATOM     19  C   UNL     1       7.030   4.976  18.206  0.00  0.00    +0.000 C 
ATOM     20  C   UNL     1       5.759   4.975  19.056  0.00  0.00    +0.000 C 
ENDBRANCH  14  16
ENDBRANCH  13  14
ENDBRANCH  11  13
ENDBRANCH   5   7
BRANCH   1  21
ATOM     21  C   UNL     1      -1.538  12.660  20.810  0.00  0.00    +0.000 C 
BRANCH  21  26
ATOM     22  O   UNL     1      -6.492  12.222  18.438  0.00  0.00    +0.000 OA
ATOM     23  C   UNL     1      -5.373  12.232  18.946  0.00  0.00    +0.000 A 
ATOM     24  N   UNL     1      -5.143  12.729  20.200  0.00  0.00    +0.000 N 
ATOM     25  N   UNL     1      -3.934  12.828  20.812  0.00  0.00    +0.000 NA
ATOM     26  C   UNL     1      -2.896  12.366  20.179  0.00  0.00    +0.000 A 
ATOM     27  C   UNL     1      -2.981  11.714  18.827  0.00  0.00    +0.000 A 
ATOM     28  C   UNL     1      -4.189  11.698  18.230  0.00  0.00    +0.000 A 
ATOM     29  C   UNL     1      -4.426  11.175  16.835  0.00  0.00    +0.000 C 
ATOM     30  C   UNL     1      -3.127  10.999  16.047  0.00  0.00    +0.000 C 
ATOM     31  C   UNL     1      -2.091  10.292  16.913  0.00  0.00    +0.000 C 
ATOM     32  C   UNL     1      -1.764  11.144  18.151  0.00  0.00    +0.000 C 
ATOM     33  H   UNL     1      -5.935  13.129  20.690  0.00  0.00    +0.000 HD
ENDBRANCH  21  26
ENDBRANCH   1  21
TORSDOF 6
ENDMDL
MODEL 9
REMARK VINA RESULT:      -9.1      1.282      2.153
REMARK  Name = 
REMARK  6 active torsions:
REMARK  status: ('A' for Active; 'I' for Inactive)
REMARK    1  A    between atoms: C_5  and  C_6
REMARK    2  A    between atoms: C_6  and  C_7
REMARK    3  A    between atoms: C_11  and  C_12
REMARK    4  A    between atoms: C_16  and  C_17
REMARK    5  A    between atoms: C_17  and  N_18
REMARK    6  A    between atoms: N_18  and  C_19
REMARK                            x       y       z     vdW  Elec       q    Type
REMARK                         _______ _______ _______ _____ _____    ______ ____
ROOT
ATOM      1  C   UNL     1       0.926  10.123  19.144  0.00  0.00    +0.000 A 
ATOM      2  C   UNL     1       0.461   9.779  20.421  0.00  0.00    +0.000 A 
ATOM      3  C   UNL     1       0.833   8.571  21.009  0.00  0.00    +0.000 A 
ATOM      4  C   UNL     1       1.640   7.675  20.315  0.00  0.00    +0.000 A 
ATOM      5  C   UNL     1       2.124   7.974  19.029  0.00  0.00    +0.000 A 
ATOM      6  C   UNL     1       1.804   9.239  18.488  0.00  0.00    +0.000 A 
ENDROOT
BRANCH   5   7
ATOM      7  C   UNL     1       2.866   6.949  18.259  0.00  0.00    +0.000 A 
ATOM      8  C   UNL     1       4.065   7.263  17.589  0.00  0.00    +0.000 A 
ATOM      9  C   UNL     1       4.759   6.318  16.837  0.00  0.00    +0.000 A 
ATOM     10  C   UNL     1       4.269   5.015  16.731  0.00  0.00    +0.000 A 
ATOM     11  C   UNL     1       3.093   4.658  17.398  0.00  0.00    +0.000 A 
ATOM     12  C   UNL     1       2.417   5.620  18.164  0.00  0.00    +0.000 A 
BRANCH  11  13
ATOM     13  C   UNL     1       2.562   3.245  17.298  0.00  0.00    +0.000 C 
BRANCH  13  14
ATOM     14  N   UNL     1       3.356   2.328  18.112  0.00  0.00    +0.000 NA
ATOM     15  H   UNL     1       4.311   2.685  18.167  0.00  0.00    +0.000 HD
BRANCH  14  16
ATOM     16  C   UNL     1       2.822   2.148  19.455  0.00  0.00    +0.000 C 
ATOM     17  C   UNL     1       3.437   3.038  20.534  0.00  0.00    +0.000 C 
ATOM     18  C   UNL     1       2.416   2.976  21.663  0.00  0.00    +0.000 C 
ATOM     19  C   UNL     1       1.058   2.827  20.979  0.00  0.00    +0.000 C 
ATOM     20  C   UNL     1       1.348   2.553  19.504  0.00  0.00    +0.000 C 
ENDBRANCH  14  16
ENDBRANCH  13  14
ENDBRANCH  11  13
ENDBRANCH   5   7
BRANCH   1  21
ATOM     21  C   UNL     1       0.276  11.274  18.401  0.00  0.00    +0.000 C 
BRANCH  21  26
ATOM     22  O   UNL     1      -5.187  10.685  17.992  0.00  0.00    +0.000 OA
ATOM     23  C   UNL     1      -3.982  10.906  18.082  0.00  0.00    +0.000 A 
ATOM     24  N   UNL     1      -3.062  10.276  17.289  0.00  0.00    +0.000 N 
ATOM     25  N   UNL     1      -1.713  10.421  17.358  0.00  0.00    +0.000 NA
ATOM     26  C   UNL     1      -1.240  11.273  18.221  0.00  0.00    +0.000 A 
ATOM     27  C   UNL     1      -2.113  12.108  19.113  0.00  0.00    +0.000 A 
ATOM     28  C   UNL     1      -3.440  11.883  19.057  0.00  0.00    +0.000 A 
ATOM     29  C   UNL     1      -4.443  12.561  19.957  0.00  0.00    +0.000 C 
ATOM     30  C   UNL     1      -3.785  13.248  21.155  0.00  0.00    +0.000 C 
ATOM     31  C   UNL     1      -2.579  14.054  20.688  0.00  0.00    +0.000 C 
ATOM     32  C   UNL     1      -1.528  13.120  20.061  0.00  0.00    +0.000 C 
ATOM     33  H   UNL     1      -3.411   9.581  16.639  0.00  0.00    +0.000 HD
ENDBRANCH  21  26
ENDBRANCH   1  21
TORSDOF 6
ENDMDL
