MODEL 1
REMARK VINA RESULT:      -9.1      0.000      0.000
REMARK  Name = 
REMARK  7 active torsions:
REMARK  status: ('A' for Active; 'I' for Inactive)
REMARK    1  A    between atoms: C_1  and  C_2
REMARK    2  A    between atoms: C_5  and  N_6
REMARK    3  A    between atoms: C_7  and  C_9
REMARK    4  A    between atoms: C_9  and  N_10
REMARK    5  A    between atoms: C_16  and  S_17
REMARK    6  A    between atoms: S_17  and  N_20
REMARK    7  A    between atoms: C_29  and  C_30
REMARK                            x       y       z     vdW  Elec       q    Type
REMARK                         _______ _______ _______ _____ _____    ______ ____
ROOT
ATOM      1  N   UNL     1       1.115  10.588  19.590  0.00  0.00    +0.000 N 
ATOM      2  C   UNL     1       0.847  10.470  20.933  0.00  0.00    +0.000 A 
ATOM      3  O   UNL     1       0.549  11.395  21.678  0.00  0.00    +0.000 OA
ATOM      4  O   UNL     1       1.029   9.154  21.371  0.00  0.00    +0.000 OA
ATOM      5  C   UNL     1       1.518   8.527  20.234  0.00  0.00    +0.000 A 
ATOM      6  C   UNL     1       1.932   7.216  20.167  0.00  0.00    +0.000 A 
ATOM      7  C   UNL     1       2.494   6.787  18.956  0.00  0.00    +0.000 A 
ATOM      8  C   UNL     1       2.572   7.653  17.841  0.00  0.00    +0.000 A 
ATOM      9  C   UNL     1       2.113   8.974  17.932  0.00  0.00    +0.000 A 
ATOM     10  C   UNL     1       1.596   9.376  19.146  0.00  0.00    +0.000 A 
ENDROOT
BRANCH   7  11
ATOM     11  S   UNL     1       3.047   5.090  18.809  0.00  0.00    +0.000 S 
ATOM     12  O   UNL     1       3.153   4.566  20.155  0.00  0.00    +0.000 OA
ATOM     13  O   UNL     1       2.201   4.453  17.822  0.00  0.00    +0.000 OA
BRANCH  11  14
ATOM     14  N   UNL     1       4.630   5.227  18.156  0.00  0.00    +0.000 NA
ATOM     15  C   UNL     1       5.716   5.332  19.164  0.00  0.00    +0.000 C 
ATOM     16  C   UNL     1       7.065   5.617  18.513  0.00  0.00    +0.000 C 
ATOM     17  C   UNL     1       7.375   4.599  17.426  0.00  0.00    +0.000 C 
ATOM     18  C   UNL     1       6.275   4.642  16.376  0.00  0.00    +0.000 C 
ATOM     19  C   UNL     1       4.914   4.344  16.995  0.00  0.00    +0.000 C 
ENDBRANCH  11  14
ENDBRANCH   7  11
BRANCH   1  20
ATOM     20  C   UNL     1       1.043  11.808  18.831  0.00  0.00    +0.000 C 
BRANCH  20  22
ATOM     21  N   UNL     1      -1.312  11.342  18.365  0.00  0.00    +0.000 N 
ATOM     22  C   UNL     1      -0.392  12.311  18.746  0.00  0.00    +0.000 C 
ATOM     23  O   UNL     1      -0.630  13.485  19.023  0.00  0.00    +0.000 OA
ATOM     24  H   UNL     1      -0.956  10.398  18.275  0.00  0.00    +0.000 HD
BRANCH  21  29
ATOM     25  C   UNL     1      -7.000  11.992  17.848  0.00  0.00    +0.000 C 
ATOM     26  C   UNL     1      -5.512  11.855  17.964  0.00  0.00    +0.000 A 
ATOM     27  C   UNL     1      -4.870  12.151  19.160  0.00  0.00    +0.000 A 
ATOM     28  C   UNL     1      -3.488  11.996  19.273  0.00  0.00    +0.000 A 
ATOM     29  C   UNL     1      -2.707  11.532  18.205  0.00  0.00    +0.000 A 
ATOM     30  C   UNL     1      -3.340  11.266  16.974  0.00  0.00    +0.000 A 
ATOM     31  C   UNL     1      -2.641  10.784  15.729  0.00  0.00    +0.000 C 
ATOM     32  C   UNL     1      -4.741  11.428  16.877  0.00  0.00    +0.000 A 
ENDBRANCH  21  29
ENDBRANCH  20  22
ENDBRANCH   1  20
TORSDOF 5
ENDMDL
MODEL 2
REMARK VINA RESULT:      -8.7      0.496      1.019
REMARK  Name = 
REMARK  7 active torsions:
REMARK  status: ('A' for Active; 'I' for Inactive)
REMARK    1  A    between atoms: C_1  and  C_2
REMARK    2  A    between atoms: C_5  and  N_6
REMARK    3  A    between atoms: C_7  and  C_9
REMARK    4  A    between atoms: C_9  and  N_10
REMARK    5  A    between atoms: C_16  and  S_17
REMARK    6  A    between atoms: S_17  and  N_20
REMARK    7  A    between atoms: C_29  and  C_30
REMARK                            x       y       z     vdW  Elec       q    Type
REMARK                         _______ _______ _______ _____ _____    ______ ____
ROOT
ATOM      1  N   UNL     1       1.149  10.115  19.776  0.00  0.00    +0.000 N 
ATOM      2  C   UNL     1       0.931   9.961  21.125  0.00  0.00    +0.000 A 
ATOM      3  O   UNL     1       0.681  10.869  21.907  0.00  0.00    +0.000 OA
ATOM      4  O   UNL     1       1.104   8.630  21.516  0.00  0.00    +0.000 OA
ATOM      5  C   UNL     1       1.536   8.029  20.343  0.00  0.00    +0.000 A 
ATOM      6  C   UNL     1       1.922   6.713  20.221  0.00  0.00    +0.000 A 
ATOM      7  C   UNL     1       2.428   6.311  18.976  0.00  0.00    +0.000 A 
ATOM      8  C   UNL     1       2.480   7.209  17.885  0.00  0.00    +0.000 A 
ATOM      9  C   UNL     1       2.051   8.534  18.034  0.00  0.00    +0.000 A 
ATOM     10  C   UNL     1       1.589   8.909  19.278  0.00  0.00    +0.000 A 
ENDROOT
BRANCH   7  11
ATOM     11  S   UNL     1       2.941   4.609  18.758  0.00  0.00    +0.000 S 
ATOM     12  O   UNL     1       2.819   3.966  20.049  0.00  0.00    +0.000 OA
ATOM     13  O   UNL     1       2.240   4.101  17.598  0.00  0.00    +0.000 OA
BRANCH  11  14
ATOM     14  N   UNL     1       4.611   4.728  18.370  0.00  0.00    +0.000 NA
ATOM     15  C   UNL     1       4.909   4.869  16.921  0.00  0.00    +0.000 C 
ATOM     16  C   UNL     1       6.407   4.802  16.644  0.00  0.00    +0.000 C 
ATOM     17  C   UNL     1       7.167   5.807  17.495  0.00  0.00    +0.000 C 
ATOM     18  C   UNL     1       6.901   5.516  18.965  0.00  0.00    +0.000 C 
ATOM     19  C   UNL     1       5.410   5.592  19.277  0.00  0.00    +0.000 C 
ENDBRANCH  11  14
ENDBRANCH   7  11
BRANCH   1  20
ATOM     20  C   UNL     1       1.072  11.359  19.058  0.00  0.00    +0.000 C 
BRANCH  20  22
ATOM     21  N   UNL     1      -1.254  11.098  18.352  0.00  0.00    +0.000 N 
ATOM     22  C   UNL     1      -0.353  11.894  19.048  0.00  0.00    +0.000 C 
ATOM     23  O   UNL     1      -0.602  12.940  19.646  0.00  0.00    +0.000 OA
ATOM     24  H   UNL     1      -0.898  10.214  18.008  0.00  0.00    +0.000 HD
BRANCH  21  29
ATOM     25  C   UNL     1      -6.901  12.027  17.800  0.00  0.00    +0.000 C 
ATOM     26  C   UNL     1      -5.422  11.816  17.924  0.00  0.00    +0.000 A 
ATOM     27  C   UNL     1      -4.764  12.126  19.108  0.00  0.00    +0.000 A 
ATOM     28  C   UNL     1      -3.393  11.902  19.229  0.00  0.00    +0.000 A 
ATOM     29  C   UNL     1      -2.638  11.355  18.182  0.00  0.00    +0.000 A 
ATOM     30  C   UNL     1      -3.284  11.073  16.962  0.00  0.00    +0.000 A 
ATOM     31  C   UNL     1      -2.613  10.505  15.739  0.00  0.00    +0.000 C 
ATOM     32  C   UNL     1      -4.675  11.305  16.857  0.00  0.00    +0.000 A 
ENDBRANCH  21  29
ENDBRANCH  20  22
ENDBRANCH   1  20
TORSDOF 5
ENDMDL
MODEL 3
REMARK VINA RESULT:      -8.7      0.601      1.413
REMARK  Name = 
REMARK  7 active torsions:
REMARK  status: ('A' for Active; 'I' for Inactive)
REMARK    1  A    between atoms: C_1  and  C_2
REMARK    2  A    between atoms: C_5  and  N_6
REMARK    3  A    between atoms: C_7  and  C_9
REMARK    4  A    between atoms: C_9  and  N_10
REMARK    5  A    between atoms: C_16  and  S_17
REMARK    6  A    between atoms: S_17  and  N_20
REMARK    7  A    between atoms: C_29  and  C_30
REMARK                            x       y       z     vdW  Elec       q    Type
REMARK                         _______ _______ _______ _____ _____    ______ ____
ROOT
ATOM      1  N   UNL     1       1.018  10.697  19.851  0.00  0.00    +0.000 N 
ATOM      2  C   UNL     1       0.684  10.483  21.168  0.00  0.00    +0.000 A 
ATOM      3  O   UNL     1       0.364  11.354  21.966  0.00  0.00    +0.000 OA
ATOM      4  O   UNL     1       0.825   9.134  21.512  0.00  0.00    +0.000 OA
ATOM      5  C   UNL     1       1.359   8.586  20.355  0.00  0.00    +0.000 A 
ATOM      6  C   UNL     1       1.756   7.276  20.208  0.00  0.00    +0.000 A 
ATOM      7  C   UNL     1       2.369   6.930  18.995  0.00  0.00    +0.000 A 
ATOM      8  C   UNL     1       2.514   7.876  17.954  0.00  0.00    +0.000 A 
ATOM      9  C   UNL     1       2.071   9.194  18.124  0.00  0.00    +0.000 A 
ATOM     10  C   UNL     1       1.502   9.513  19.339  0.00  0.00    +0.000 A 
ENDROOT
BRANCH   7  11
ATOM     11  S   UNL     1       2.903   5.238  18.745  0.00  0.00    +0.000 S 
ATOM     12  O   UNL     1       2.985   4.628  20.055  0.00  0.00    +0.000 OA
ATOM     13  O   UNL     1       2.064   4.678  17.708  0.00  0.00    +0.000 OA
BRANCH  11  14
ATOM     14  N   UNL     1       4.497   5.397  18.123  0.00  0.00    +0.000 NA
ATOM     15  C   UNL     1       5.578   5.308  19.138  0.00  0.00    +0.000 C 
ATOM     16  C   UNL     1       6.944   5.623  18.538  0.00  0.00    +0.000 C 
ATOM     17  C   UNL     1       7.218   4.758  17.318  0.00  0.00    +0.000 C 
ATOM     18  C   UNL     1       6.131   5.000  16.282  0.00  0.00    +0.000 C 
ATOM     19  C   UNL     1       4.753   4.678  16.849  0.00  0.00    +0.000 C 
ENDBRANCH  11  14
ENDBRANCH   7  11
BRANCH   1  20
ATOM     20  C   UNL     1       1.001  11.972  19.186  0.00  0.00    +0.000 C 
BRANCH  20  22
ATOM     21  N   UNL     1      -1.400  11.514  19.234  0.00  0.00    +0.000 N 
ATOM     22  C   UNL     1      -0.398  12.306  18.686  0.00  0.00    +0.000 C 
ATOM     23  O   UNL     1      -0.541  13.224  17.881  0.00  0.00    +0.000 OA
ATOM     24  H   UNL     1      -1.115  10.872  19.963  0.00  0.00    +0.000 HD
BRANCH  21  29
ATOM     25  C   UNL     1      -6.977  11.959  17.912  0.00  0.00    +0.000 C 
ATOM     26  C   UNL     1      -5.532  11.818  18.284  0.00  0.00    +0.000 A 
ATOM     27  C   UNL     1      -4.676  11.054  17.500  0.00  0.00    +0.000 A 
ATOM     28  C   UNL     1      -3.326  10.948  17.833  0.00  0.00    +0.000 A 
ATOM     29  C   UNL     1      -2.786  11.605  18.948  0.00  0.00    +0.000 A 
ATOM     30  C   UNL     1      -3.651  12.351  19.774  0.00  0.00    +0.000 A 
ATOM     31  C   UNL     1      -3.232  13.095  21.015  0.00  0.00    +0.000 C 
ATOM     32  C   UNL     1      -5.016  12.448  19.421  0.00  0.00    +0.000 A 
ENDBRANCH  21  29
ENDBRANCH  20  22
ENDBRANCH   1  20
TORSDOF 5
ENDMDL
MODEL 4
REMARK VINA RESULT:      -8.4      1.557      2.371
REMARK  Name = 
REMARK  7 active torsions:
REMARK  status: ('A' for Active; 'I' for Inactive)
REMARK    1  A    between atoms: C_1  and  C_2
REMARK    2  A    between atoms: C_5  and  N_6
REMARK    3  A    between atoms: C_7  and  C_9
REMARK    4  A    between atoms: C_9  and  N_10
REMARK    5  A    between atoms: C_16  and  S_17
REMARK    6  A    between atoms: S_17  and  N_20
REMARK    7  A    between atoms: C_29  and  C_30
REMARK                            x       y       z     vdW  Elec       q    Type
REMARK                         _______ _______ _______ _____ _____    ______ ____
ROOT
ATOM      1  N   UNL     1       1.743   9.238  19.433  0.00  0.00    +0.000 N 
ATOM      2  C   UNL     1       1.941   9.714  18.158  0.00  0.00    +0.000 A 
ATOM      3  O   UNL     1       1.642  10.836  17.769  0.00  0.00    +0.000 OA
ATOM      4  O   UNL     1       2.471   8.723  17.325  0.00  0.00    +0.000 OA
ATOM      5  C   UNL     1       2.474   7.610  18.153  0.00  0.00    +0.000 A 
ATOM      6  C   UNL     1       2.840   6.338  17.771  0.00  0.00    +0.000 A 
ATOM      7  C   UNL     1       2.681   5.319  18.720  0.00  0.00    +0.000 A 
ATOM      8  C   UNL     1       2.222   5.603  20.027  0.00  0.00    +0.000 A 
ATOM      9  C   UNL     1       1.888   6.913  20.394  0.00  0.00    +0.000 A 
ATOM     10  C   UNL     1       2.023   7.889  19.429  0.00  0.00    +0.000 A 
ENDROOT
BRANCH   7  11
ATOM     11  S   UNL     1       3.144   3.645  18.281  0.00  0.00    +0.000 S 
ATOM     12  O   UNL     1       3.220   2.894  19.516  0.00  0.00    +0.000 OA
ATOM     13  O   UNL     1       2.267   3.232  17.206  0.00  0.00    +0.000 OA
BRANCH  11  14
ATOM     14  N   UNL     1       4.733   3.809  17.649  0.00  0.00    +0.000 NA
ATOM     15  C   UNL     1       4.804   4.024  16.181  0.00  0.00    +0.000 C 
ATOM     16  C   UNL     1       6.242   3.994  15.675  0.00  0.00    +0.000 C 
ATOM     17  C   UNL     1       7.116   4.968  16.449  0.00  0.00    +0.000 C 
ATOM     18  C   UNL     1       7.081   4.603  17.926  0.00  0.00    +0.000 C 
ATOM     19  C   UNL     1       5.655   4.640  18.465  0.00  0.00    +0.000 C 
ENDBRANCH  11  14
ENDBRANCH   7  11
BRANCH   1  20
ATOM     20  C   UNL     1       1.194   9.994  20.527  0.00  0.00    +0.000 C 
BRANCH  20  22
ATOM     21  N   UNL     1      -0.747  11.133  19.572  0.00  0.00    +0.000 N 
ATOM     22  C   UNL     1      -0.319  10.106  20.405  0.00  0.00    +0.000 C 
ATOM     23  O   UNL     1      -1.028   9.306  21.012  0.00  0.00    +0.000 OA
ATOM     24  H   UNL     1      -0.023  11.632  19.068  0.00  0.00    +0.000 HD
BRANCH  21  29
ATOM     25  C   UNL     1      -6.258  12.406  18.546  0.00  0.00    +0.000 C 
ATOM     26  C   UNL     1      -4.811  12.098  18.786  0.00  0.00    +0.000 A 
ATOM     27  C   UNL     1      -4.150  12.639  19.882  0.00  0.00    +0.000 A 
ATOM     28  C   UNL     1      -2.811  12.329  20.118  0.00  0.00    +0.000 A 
ATOM     29  C   UNL     1      -2.094  11.465  19.279  0.00  0.00    +0.000 A 
ATOM     30  C   UNL     1      -2.740  10.940  18.142  0.00  0.00    +0.000 A 
ATOM     31  C   UNL     1      -2.105  10.018  17.134  0.00  0.00    +0.000 C 
ATOM     32  C   UNL     1      -4.098  11.265  17.918  0.00  0.00    +0.000 A 
ENDBRANCH  21  29
ENDBRANCH  20  22
ENDBRANCH   1  20
TORSDOF 5
ENDMDL
MODEL 5
REMARK VINA RESULT:      -8.4      3.320      4.372
REMARK  Name = 
REMARK  7 active torsions:
REMARK  status: ('A' for Active; 'I' for Inactive)
REMARK    1  A    between atoms: C_1  and  C_2
REMARK    2  A    between atoms: C_5  and  N_6
REMARK    3  A    between atoms: C_7  and  C_9
REMARK    4  A    between atoms: C_9  and  N_10
REMARK    5  A    between atoms: C_16  and  S_17
REMARK    6  A    between atoms: S_17  and  N_20
REMARK    7  A    between atoms: C_29  and  C_30
REMARK                            x       y       z     vdW  Elec       q    Type
REMARK                         _______ _______ _______ _____ _____    ______ ____
ROOT
ATOM      1  N   UNL     1       1.006   8.279  20.339  0.00  0.00    +0.000 N 
ATOM      2  C   UNL     1       1.321   9.115  19.293  0.00  0.00    +0.000 A 
ATOM      3  O   UNL     1       0.766  10.179  19.048  0.00  0.00    +0.000 OA
ATOM      4  O   UNL     1       2.320   8.560  18.487  0.00  0.00    +0.000 OA
ATOM      5  C   UNL     1       2.501   7.309  19.056  0.00  0.00    +0.000 A 
ATOM      6  C   UNL     1       3.340   6.330  18.571  0.00  0.00    +0.000 A 
ATOM      7  C   UNL     1       3.313   5.089  19.224  0.00  0.00    +0.000 A 
ATOM      8  C   UNL     1       2.503   4.881  20.363  0.00  0.00    +0.000 A 
ATOM      9  C   UNL     1       1.683   5.907  20.850  0.00  0.00    +0.000 A 
ATOM     10  C   UNL     1       1.706   7.106  20.169  0.00  0.00    +0.000 A 
ENDROOT
BRANCH   7  11
ATOM     11  S   UNL     1       4.386   3.779  18.639  0.00  0.00    +0.000 S 
ATOM     12  O   UNL     1       5.348   3.526  19.691  0.00  0.00    +0.000 OA
ATOM     13  O   UNL     1       3.532   2.726  18.135  0.00  0.00    +0.000 OA
BRANCH  11  14
ATOM     14  N   UNL     1       5.213   4.486  17.310  0.00  0.00    +0.000 NA
ATOM     15  C   UNL     1       6.642   4.809  17.561  0.00  0.00    +0.000 C 
ATOM     16  C   UNL     1       7.259   5.580  16.399  0.00  0.00    +0.000 C 
ATOM     17  C   UNL     1       7.050   4.849  15.083  0.00  0.00    +0.000 C 
ATOM     18  C   UNL     1       5.558   4.667  14.846  0.00  0.00    +0.000 C 
ATOM     19  C   UNL     1       4.915   3.883  15.986  0.00  0.00    +0.000 C 
ENDBRANCH  11  14
ENDBRANCH   7  11
BRANCH   1  20
ATOM     20  C   UNL     1       0.007   8.541  21.340  0.00  0.00    +0.000 C 
BRANCH  20  22
ATOM     21  N   UNL     1      -0.543  10.915  21.543  0.00  0.00    +0.000 N 
ATOM     22  C   UNL     1       0.255   9.881  22.019  0.00  0.00    +0.000 C 
ATOM     23  O   UNL     1       1.096   9.951  22.913  0.00  0.00    +0.000 OA
ATOM     24  H   UNL     1      -1.257  10.657  20.873  0.00  0.00    +0.000 HD
BRANCH  21  29
ATOM     25  C   UNL     1      -0.291  16.339  23.430  0.00  0.00    +0.000 C 
ATOM     26  C   UNL     1      -0.385  14.935  22.915  0.00  0.00    +0.000 A 
ATOM     27  C   UNL     1       0.546  14.458  22.000  0.00  0.00    +0.000 A 
ATOM     28  C   UNL     1       0.472  13.142  21.544  0.00  0.00    +0.000 A 
ATOM     29  C   UNL     1      -0.522  12.260  21.991  0.00  0.00    +0.000 A 
ATOM     30  C   UNL     1      -1.495  12.741  22.889  0.00  0.00    +0.000 A 
ATOM     31  C   UNL     1      -2.636  11.929  23.445  0.00  0.00    +0.000 C 
ATOM     32  C   UNL     1      -1.405  14.078  23.342  0.00  0.00    +0.000 A 
ENDBRANCH  21  29
ENDBRANCH  20  22
ENDBRANCH   1  20
TORSDOF 5
ENDMDL
MODEL 6
REMARK VINA RESULT:      -8.3      1.247      1.987
REMARK  Name = 
REMARK  7 active torsions:
REMARK  status: ('A' for Active; 'I' for Inactive)
REMARK    1  A    between atoms: C_1  and  C_2
REMARK    2  A    between atoms: C_5  and  N_6
REMARK    3  A    between atoms: C_7  and  C_9
REMARK    4  A    between atoms: C_9  and  N_10
REMARK    5  A    between atoms: C_16  and  S_17
REMARK    6  A    between atoms: S_17  and  N_20
REMARK    7  A    between atoms: C_29  and  C_30
REMARK                            x       y       z     vdW  Elec       q    Type
REMARK                         _______ _______ _______ _____ _____    ______ ____
ROOT
ATOM      1  N   UNL     1       0.980   9.954  19.829  0.00  0.00    +0.000 N 
ATOM      2  C   UNL     1       0.910   9.725  21.183  0.00  0.00    +0.000 A 
ATOM      3  O   UNL     1       0.554  10.544  22.021  0.00  0.00    +0.000 OA
ATOM      4  O   UNL     1       1.372   8.444  21.503  0.00  0.00    +0.000 OA
ATOM      5  C   UNL     1       1.814   7.972  20.276  0.00  0.00    +0.000 A 
ATOM      6  C   UNL     1       2.437   6.762  20.069  0.00  0.00    +0.000 A 
ATOM      7  C   UNL     1       2.905   6.501  18.773  0.00  0.00    +0.000 A 
ATOM      8  C   UNL     1       2.689   7.420  17.720  0.00  0.00    +0.000 A 
ATOM      9  C   UNL     1       2.023   8.629  17.957  0.00  0.00    +0.000 A 
ATOM     10  C   UNL     1       1.603   8.872  19.248  0.00  0.00    +0.000 A 
ENDROOT
BRANCH   7  11
ATOM     11  S   UNL     1       3.721   4.941  18.443  0.00  0.00    +0.000 S 
ATOM     12  O   UNL     1       3.613   4.149  19.650  0.00  0.00    +0.000 OA
ATOM     13  O   UNL     1       3.210   4.455  17.180  0.00  0.00    +0.000 OA
BRANCH  11  14
ATOM     14  N   UNL     1       5.369   5.375  18.228  0.00  0.00    +0.000 NA
ATOM     15  C   UNL     1       5.603   6.502  17.289  0.00  0.00    +0.000 C 
ATOM     16  C   UNL     1       7.089   6.718  17.024  0.00  0.00    +0.000 C 
ATOM     17  C   UNL     1       7.860   6.876  18.325  0.00  0.00    +0.000 C 
ATOM     18  C   UNL     1       7.663   5.629  19.174  0.00  0.00    +0.000 C 
ATOM     19  C   UNL     1       6.186   5.396  19.469  0.00  0.00    +0.000 C 
ENDBRANCH  11  14
ENDBRANCH   7  11
BRANCH   1  20
ATOM     20  C   UNL     1       0.601  11.177  19.172  0.00  0.00    +0.000 C 
BRANCH  20  22
ATOM     21  N   UNL     1      -1.739  11.871  19.321  0.00  0.00    +0.000 N 
ATOM     22  C   UNL     1      -0.821  11.086  18.634  0.00  0.00    +0.000 C 
ATOM     23  O   UNL     1      -1.046  10.370  17.661  0.00  0.00    +0.000 OA
ATOM     24  H   UNL     1      -1.360  12.481  20.036  0.00  0.00    +0.000 HD
BRANCH  21  29
ATOM     25  C   UNL     1      -7.314  12.404  18.025  0.00  0.00    +0.000 C 
ATOM     26  C   UNL     1      -5.869  12.236  18.386  0.00  0.00    +0.000 A 
ATOM     27  C   UNL     1      -4.990  11.625  17.500  0.00  0.00    +0.000 A 
ATOM     28  C   UNL     1      -3.640  11.495  17.827  0.00  0.00    +0.000 A 
ATOM     29  C   UNL     1      -3.123  11.978  19.038  0.00  0.00    +0.000 A 
ATOM     30  C   UNL     1      -4.011  12.564  19.963  0.00  0.00    +0.000 A 
ATOM     31  C   UNL     1      -3.619  13.109  21.311  0.00  0.00    +0.000 C 
ATOM     32  C   UNL     1      -5.376  12.688  19.615  0.00  0.00    +0.000 A 
ENDBRANCH  21  29
ENDBRANCH  20  22
ENDBRANCH   1  20
TORSDOF 5
ENDMDL
MODEL 7
REMARK VINA RESULT:      -8.3      1.697      2.467
REMARK  Name = 
REMARK  7 active torsions:
REMARK  status: ('A' for Active; 'I' for Inactive)
REMARK    1  A    between atoms: C_1  and  C_2
REMARK    2  A    between atoms: C_5  and  N_6
REMARK    3  A    between atoms: C_7  and  C_9
REMARK    4  A    between atoms: C_9  and  N_10
REMARK    5  A    between atoms: C_16  and  S_17
REMARK    6  A    between atoms: S_17  and  N_20
REMARK    7  A    between atoms: C_29  and  C_30
REMARK                            x       y       z     vdW  Elec       q    Type
REMARK                         _______ _______ _______ _____ _____    ______ ____
ROOT
ATOM      1  N   UNL     1       0.869   9.949  20.125  0.00  0.00    +0.000 N 
ATOM      2  C   UNL     1       0.856   9.683  21.474  0.00  0.00    +0.000 A 
ATOM      3  O   UNL     1       0.572  10.490  22.350  0.00  0.00    +0.000 OA
ATOM      4  O   UNL     1       1.283   8.378  21.736  0.00  0.00    +0.000 OA
ATOM      5  C   UNL     1       1.647   7.925  20.476  0.00  0.00    +0.000 A 
ATOM      6  C   UNL     1       2.213   6.699  20.206  0.00  0.00    +0.000 A 
ATOM      7  C   UNL     1       2.608   6.459  18.882  0.00  0.00    +0.000 A 
ATOM      8  C   UNL     1       2.376   7.415  17.867  0.00  0.00    +0.000 A 
ATOM      9  C   UNL     1       1.770   8.641  18.169  0.00  0.00    +0.000 A 
ATOM     10  C   UNL     1       1.422   8.862  19.485  0.00  0.00    +0.000 A 
ENDROOT
BRANCH   7  11
ATOM     11  S   UNL     1       3.346   4.880  18.471  0.00  0.00    +0.000 S 
ATOM     12  O   UNL     1       3.973   4.384  19.678  0.00  0.00    +0.000 OA
ATOM     13  O   UNL     1       2.337   4.108  17.779  0.00  0.00    +0.000 OA
BRANCH  11  14
ATOM     14  N   UNL     1       4.582   5.283  17.348  0.00  0.00    +0.000 NA
ATOM     15  C   UNL     1       5.839   5.792  17.955  0.00  0.00    +0.000 C 
ATOM     16  C   UNL     1       6.820   6.282  16.896  0.00  0.00    +0.000 C 
ATOM     17  C   UNL     1       7.073   5.211  15.846  0.00  0.00    +0.000 C 
ATOM     18  C   UNL     1       5.752   4.835  15.191  0.00  0.00    +0.000 C 
ATOM     19  C   UNL     1       4.754   4.325  16.226  0.00  0.00    +0.000 C 
ENDBRANCH  11  14
ENDBRANCH   7  11
BRANCH   1  20
ATOM     20  C   UNL     1       0.506  11.203  19.521  0.00  0.00    +0.000 C 
BRANCH  20  22
ATOM     21  N   UNL     1      -1.518  12.110  20.551  0.00  0.00    +0.000 N 
ATOM     22  C   UNL     1      -1.006  11.374  19.489  0.00  0.00    +0.000 C 
ATOM     23  O   UNL     1      -1.642  10.884  18.557  0.00  0.00    +0.000 OA
ATOM     24  H   UNL     1      -0.838  12.528  21.174  0.00  0.00    +0.000 HD
BRANCH  21  29
ATOM     25  C   UNL     1      -7.033  13.522  21.350  0.00  0.00    +0.000 C 
ATOM     26  C   UNL     1      -5.603  13.118  21.151  0.00  0.00    +0.000 A 
ATOM     27  C   UNL     1      -5.094  12.941  19.870  0.00  0.00    +0.000 A 
ATOM     28  C   UNL     1      -3.756  12.592  19.687  0.00  0.00    +0.000 A 
ATOM     29  C   UNL     1      -2.883  12.420  20.771  0.00  0.00    +0.000 A 
ATOM     30  C   UNL     1      -3.395  12.557  22.077  0.00  0.00    +0.000 A 
ATOM     31  C   UNL     1      -2.596  12.383  23.342  0.00  0.00    +0.000 C 
ATOM     32  C   UNL     1      -4.754  12.912  22.243  0.00  0.00    +0.000 A 
ENDBRANCH  21  29
ENDBRANCH  20  22
ENDBRANCH   1  20
TORSDOF 5
ENDMDL
MODEL 8
REMARK VINA RESULT:      -8.3      3.315      4.430
REMARK  Name = 
REMARK  7 active torsions:
REMARK  status: ('A' for Active; 'I' for Inactive)
REMARK    1  A    between atoms: C_1  and  C_2
REMARK    2  A    between atoms: C_5  and  N_6
REMARK    3  A    between atoms: C_7  and  C_9
REMARK    4  A    between atoms: C_9  and  N_10
REMARK    5  A    between atoms: C_16  and  S_17
REMARK    6  A    between atoms: S_17  and  N_20
REMARK    7  A    between atoms: C_29  and  C_30
REMARK                            x       y       z     vdW  Elec       q    Type
REMARK                         _______ _______ _______ _____ _____    ______ ____
ROOT
ATOM      1  N   UNL     1       0.961   8.257  20.405  0.00  0.00    +0.000 N 
ATOM      2  C   UNL     1       1.239   9.088  19.346  0.00  0.00    +0.000 A 
ATOM      3  O   UNL     1       0.656  10.135  19.098  0.00  0.00    +0.000 OA
ATOM      4  O   UNL     1       2.240   8.549  18.530  0.00  0.00    +0.000 OA
ATOM      5  C   UNL     1       2.459   7.308  19.110  0.00  0.00    +0.000 A 
ATOM      6  C   UNL     1       3.314   6.345  18.622  0.00  0.00    +0.000 A 
ATOM      7  C   UNL     1       3.327   5.111  19.288  0.00  0.00    +0.000 A 
ATOM      8  C   UNL     1       2.540   4.895  20.442  0.00  0.00    +0.000 A 
ATOM      9  C   UNL     1       1.703   5.907  20.931  0.00  0.00    +0.000 A 
ATOM     10  C   UNL     1       1.687   7.098  20.236  0.00  0.00    +0.000 A 
ENDROOT
BRANCH   7  11
ATOM     11  S   UNL     1       4.423   3.821  18.700  0.00  0.00    +0.000 S 
ATOM     12  O   UNL     1       4.730   2.982  19.840  0.00  0.00    +0.000 OA
ATOM     13  O   UNL     1       3.824   3.270  17.504  0.00  0.00    +0.000 OA
BRANCH  11  14
ATOM     14  N   UNL     1       5.850   4.665  18.251  0.00  0.00    +0.000 NA
ATOM     15  C   UNL     1       5.797   5.321  16.919  0.00  0.00    +0.000 C 
ATOM     16  C   UNL     1       7.148   5.904  16.523  0.00  0.00    +0.000 C 
ATOM     17  C   UNL     1       7.686   6.827  17.605  0.00  0.00    +0.000 C 
ATOM     18  C   UNL     1       7.822   6.045  18.903  0.00  0.00    +0.000 C 
ATOM     19  C   UNL     1       6.481   5.462  19.334  0.00  0.00    +0.000 C 
ENDBRANCH  11  14
ENDBRANCH   7  11
BRANCH   1  20
ATOM     20  C   UNL     1      -0.029   8.505  21.419  0.00  0.00    +0.000 C 
BRANCH  20  22
ATOM     21  N   UNL     1      -0.553  10.888  21.570  0.00  0.00    +0.000 N 
ATOM     22  C   UNL     1       0.208   9.850  22.092  0.00  0.00    +0.000 C 
ATOM     23  O   UNL     1       1.009   9.918  23.023  0.00  0.00    +0.000 OA
ATOM     24  H   UNL     1      -1.241  10.633  20.872  0.00  0.00    +0.000 HD
BRANCH  21  29
ATOM     25  C   UNL     1      -0.302  16.334  23.395  0.00  0.00    +0.000 C 
ATOM     26  C   UNL     1      -0.396  14.924  22.897  0.00  0.00    +0.000 A 
ATOM     27  C   UNL     1       0.525  14.441  21.975  0.00  0.00    +0.000 A 
ATOM     28  C   UNL     1       0.452  13.120  21.534  0.00  0.00    +0.000 A 
ATOM     29  C   UNL     1      -0.532  12.238  22.003  0.00  0.00    +0.000 A 
ATOM     30  C   UNL     1      -1.497  12.725  22.908  0.00  0.00    +0.000 A 
ATOM     31  C   UNL     1      -2.627  11.914  23.487  0.00  0.00    +0.000 C 
ATOM     32  C   UNL     1      -1.407  14.067  23.345  0.00  0.00    +0.000 A 
ENDBRANCH  21  29
ENDBRANCH  20  22
ENDBRANCH   1  20
TORSDOF 5
ENDMDL
MODEL 9
REMARK VINA RESULT:      -8.3      2.087      2.953
REMARK  Name = 
REMARK  7 active torsions:
REMARK  status: ('A' for Active; 'I' for Inactive)
REMARK    1  A    between atoms: C_1  and  C_2
REMARK    2  A    between atoms: C_5  and  N_6
REMARK    3  A    between atoms: C_7  and  C_9
REMARK    4  A    between atoms: C_9  and  N_10
REMARK    5  A    between atoms: C_16  and  S_17
REMARK    6  A    between atoms: S_17  and  N_20
REMARK    7  A    between atoms: C_29  and  C_30
REMARK                            x       y       z     vdW  Elec       q    Type
REMARK                         _______ _______ _______ _____ _____    ______ ____
ROOT
ATOM      1  N   UNL     1       0.817   9.906  19.671  0.00  0.00    +0.000 N 
ATOM      2  C   UNL     1       0.601   9.580  20.989  0.00  0.00    +0.000 A 
ATOM      3  O   UNL     1       0.081  10.312  21.821  0.00  0.00    +0.000 OA
ATOM      4  O   UNL     1       1.119   8.316  21.288  0.00  0.00    +0.000 OA
ATOM      5  C   UNL     1       1.744   7.962  20.102  0.00  0.00    +0.000 A 
ATOM      6  C   UNL     1       2.482   6.816  19.904  0.00  0.00    +0.000 A 
ATOM      7  C   UNL     1       3.124   6.679  18.665  0.00  0.00    +0.000 A 
ATOM      8  C   UNL     1       2.967   7.651  17.650  0.00  0.00    +0.000 A 
ATOM      9  C   UNL     1       2.184   8.791  17.872  0.00  0.00    +0.000 A 
ATOM     10  C   UNL     1       1.591   8.914  19.111  0.00  0.00    +0.000 A 
ENDROOT
BRANCH   7  11
ATOM     11  S   UNL     1       4.095   5.207  18.350  0.00  0.00    +0.000 S 
ATOM     12  O   UNL     1       4.241   5.101  16.914  0.00  0.00    +0.000 OA
ATOM     13  O   UNL     1       5.251   5.269  19.219  0.00  0.00    +0.000 OA
BRANCH  11  14
ATOM     14  N   UNL     1       3.085   3.925  18.886  0.00  0.00    +0.000 NA
ATOM     15  C   UNL     1       3.045   3.733  20.359  0.00  0.00    +0.000 C 
ATOM     16  C   UNL     1       2.265   2.481  20.744  0.00  0.00    +0.000 C 
ATOM     17  C   UNL     1       0.878   2.486  20.120  0.00  0.00    +0.000 C 
ATOM     18  C   UNL     1       1.015   2.563  18.606  0.00  0.00    +0.000 C 
ATOM     19  C   UNL     1       1.778   3.816  18.189  0.00  0.00    +0.000 C 
ENDBRANCH  11  14
ENDBRANCH   7  11
BRANCH   1  20
ATOM     20  C   UNL     1       0.427  11.141  19.045  0.00  0.00    +0.000 C 
BRANCH  20  22
ATOM     21  N   UNL     1      -1.891  11.897  19.237  0.00  0.00    +0.000 N 
ATOM     22  C   UNL     1      -1.012  11.069  18.550  0.00  0.00    +0.000 C 
ATOM     23  O   UNL     1      -1.282  10.328  17.607  0.00  0.00    +0.000 OA
ATOM     24  H   UNL     1      -1.477  12.520  19.921  0.00  0.00    +0.000 HD
BRANCH  21  29
ATOM     25  C   UNL     1      -7.488  12.537  18.092  0.00  0.00    +0.000 C 
ATOM     26  C   UNL     1      -6.037  12.340  18.412  0.00  0.00    +0.000 A 
ATOM     27  C   UNL     1      -5.181  11.771  17.476  0.00  0.00    +0.000 A 
ATOM     28  C   UNL     1      -3.826  11.615  17.766  0.00  0.00    +0.000 A 
ATOM     29  C   UNL     1      -3.280  12.028  18.990  0.00  0.00    +0.000 A 
ATOM     30  C   UNL     1      -4.144  12.570  19.964  0.00  0.00    +0.000 A 
ATOM     31  C   UNL     1      -3.719  13.039  21.331  0.00  0.00    +0.000 C 
ATOM     32  C   UNL     1      -5.514  12.721  19.652  0.00  0.00    +0.000 A 
ENDBRANCH  21  29
ENDBRANCH  20  22
ENDBRANCH   1  20
TORSDOF 5
ENDMDL
