MODEL 1
REMARK VINA RESULT:      -7.3      0.000      0.000
REMARK  Name = 
REMARK  3 active torsions:
REMARK  status: ('A' for Active; 'I' for Inactive)
REMARK    1  A    between atoms: C_1  and  C_2
REMARK    2  A    between atoms: C_6  and  N_7
REMARK    3  A    between atoms: C_13  and  C_14
REMARK                            x       y       z     vdW  Elec       q    Type
REMARK                         _______ _______ _______ _____ _____    ______ ____
ROOT
ATOM      1  N   UNL     1       4.158   5.504  16.862  0.00  0.00    +0.000 N 
ATOM      2  C   UNL     1       3.620   4.837  17.987  0.00  0.00    +0.000 A 
ATOM      3  C   UNL     1       2.326   5.160  18.390  0.00  0.00    +0.000 A 
ATOM      4  C   UNL     1       1.752   4.495  19.474  0.00  0.00    +0.000 A 
ATOM      5  C   UNL     1       2.478   3.506  20.131  0.00  0.00    +0.000 A 
ATOM      6 CL   UNL     1       1.735   2.661  21.435  0.00  0.00    +0.000 Cl
ATOM      7  C   UNL     1       3.770   3.249  19.689  0.00  0.00    +0.000 A 
ATOM      8  N   UNL     1       4.346   3.906  18.644  0.00  0.00    +0.000 NA
ATOM      9  H   UNL     1       3.528   5.401  16.072  0.00  0.00    +0.000 HD
ENDROOT
BRANCH   1  15
ATOM     10  C   UNL     1       5.946   4.031  14.653  0.00  0.00    +0.000 C 
ATOM     11  C   UNL     1       6.285   5.112  15.610  0.00  0.00    +0.000 A 
ATOM     12  N   UNL     1       7.524   5.625  15.616  0.00  0.00    +0.000 NA
ATOM     13  N   UNL     1       7.493   6.534  16.606  0.00  0.00    +0.000 N 
ATOM     14  C   UNL     1       6.284   6.631  17.222  0.00  0.00    +0.000 A 
ATOM     15  C   UNL     1       5.470   5.717  16.603  0.00  0.00    +0.000 A 
ATOM     16  H   UNL     1       8.337   7.061  16.801  0.00  0.00    +0.000 HD
ENDBRANCH   1  15
BRANCH   7  17
ATOM     17  C   UNL     1       4.602   2.251  20.303  0.00  0.00    +0.000 C 
ATOM     18  N   UNL     1       5.271   1.432  20.784  0.00  0.00    +0.000 NA
ENDBRANCH   7  17
TORSDOF 2
ENDMDL
MODEL 2
REMARK VINA RESULT:      -7.2      1.636      2.684
REMARK  Name = 
REMARK  3 active torsions:
REMARK  status: ('A' for Active; 'I' for Inactive)
REMARK    1  A    between atoms: C_1  and  C_2
REMARK    2  A    between atoms: C_6  and  N_7
REMARK    3  A    between atoms: C_13  and  C_14
REMARK                            x       y       z     vdW  Elec       q    Type
REMARK                         _______ _______ _______ _____ _____    ______ ____
ROOT
ATOM      1  N   UNL     1       6.315   3.963  18.464  0.00  0.00    +0.000 N 
ATOM      2  C   UNL     1       5.011   3.973  19.009  0.00  0.00    +0.000 A 
ATOM      3  C   UNL     1       4.463   2.763  19.434  0.00  0.00    +0.000 A 
ATOM      4  C   UNL     1       3.192   2.743  20.008  0.00  0.00    +0.000 A 
ATOM      5  C   UNL     1       2.492   3.936  20.162  0.00  0.00    +0.000 A 
ATOM      6 CL   UNL     1       0.946   3.898  20.919  0.00  0.00    +0.000 Cl
ATOM      7  C   UNL     1       3.089   5.102  19.698  0.00  0.00    +0.000 A 
ATOM      8  N   UNL     1       4.322   5.129  19.118  0.00  0.00    +0.000 NA
ATOM      9  H   UNL     1       6.954   3.520  19.118  0.00  0.00    +0.000 HD
ENDROOT
BRANCH   1  15
ATOM     10  C   UNL     1       6.236   3.781  15.270  0.00  0.00    +0.000 C 
ATOM     11  C   UNL     1       6.780   4.829  16.166  0.00  0.00    +0.000 A 
ATOM     12  N   UNL     1       7.346   5.924  15.637  0.00  0.00    +0.000 NA
ATOM     13  N   UNL     1       7.753   6.627  16.708  0.00  0.00    +0.000 N 
ATOM     14  C   UNL     1       7.459   6.034  17.897  0.00  0.00    +0.000 A 
ATOM     15  C   UNL     1       6.828   4.856  17.585  0.00  0.00    +0.000 A 
ATOM     16  H   UNL     1       8.219   7.514  16.551  0.00  0.00    +0.000 HD
ENDBRANCH   1  15
BRANCH   7  17
ATOM     17  C   UNL     1       2.448   6.384  19.806  0.00  0.00    +0.000 C 
ATOM     18  N   UNL     1       1.943   7.427  19.883  0.00  0.00    +0.000 NA
ENDBRANCH   7  17
TORSDOF 2
ENDMDL
MODEL 3
REMARK VINA RESULT:      -7.2      0.776      1.577
REMARK  Name = 
REMARK  3 active torsions:
REMARK  status: ('A' for Active; 'I' for Inactive)
REMARK    1  A    between atoms: C_1  and  C_2
REMARK    2  A    between atoms: C_6  and  N_7
REMARK    3  A    between atoms: C_13  and  C_14
REMARK                            x       y       z     vdW  Elec       q    Type
REMARK                         _______ _______ _______ _____ _____    ______ ____
ROOT
ATOM      1  N   UNL     1       4.056   4.462  16.304  0.00  0.00    +0.000 N 
ATOM      2  C   UNL     1       3.498   4.013  17.523  0.00  0.00    +0.000 A 
ATOM      3  C   UNL     1       2.150   4.271  17.768  0.00  0.00    +0.000 A 
ATOM      4  C   UNL     1       1.560   3.811  18.945  0.00  0.00    +0.000 A 
ATOM      5  C   UNL     1       2.324   3.088  19.856  0.00  0.00    +0.000 A 
ATOM      6 CL   UNL     1       1.566   2.485  21.280  0.00  0.00    +0.000 Cl
ATOM      7  C   UNL     1       3.666   2.884  19.558  0.00  0.00    +0.000 A 
ATOM      8  N   UNL     1       4.256   3.345  18.420  0.00  0.00    +0.000 NA
ATOM      9  H   UNL     1       3.503   4.110  15.527  0.00  0.00    +0.000 HD
ENDROOT
BRANCH   1  15
ATOM     10  C   UNL     1       5.633   7.080  17.253  0.00  0.00    +0.000 C 
ATOM     11  C   UNL     1       6.099   5.886  16.508  0.00  0.00    +0.000 A 
ATOM     12  N   UNL     1       7.385   5.798  16.135  0.00  0.00    +0.000 NA
ATOM     13  N   UNL     1       7.450   4.634  15.467  0.00  0.00    +0.000 N 
ATOM     14  C   UNL     1       6.263   3.969  15.409  0.00  0.00    +0.000 A 
ATOM     15  C   UNL     1       5.357   4.756  16.074  0.00  0.00    +0.000 A 
ATOM     16  H   UNL     1       8.344   4.349  15.083  0.00  0.00    +0.000 HD
ENDBRANCH   1  15
BRANCH   7  17
ATOM     17  C   UNL     1       4.540   2.153  20.434  0.00  0.00    +0.000 C 
ATOM     18  N   UNL     1       5.249   1.550  21.129  0.00  0.00    +0.000 NA
ENDBRANCH   7  17
TORSDOF 2
ENDMDL
MODEL 4
REMARK VINA RESULT:      -7.1      1.669      3.074
REMARK  Name = 
REMARK  3 active torsions:
REMARK  status: ('A' for Active; 'I' for Inactive)
REMARK    1  A    between atoms: C_1  and  C_2
REMARK    2  A    between atoms: C_6  and  N_7
REMARK    3  A    between atoms: C_13  and  C_14
REMARK                            x       y       z     vdW  Elec       q    Type
REMARK                         _______ _______ _______ _____ _____    ______ ____
ROOT
ATOM      1  N   UNL     1       6.273   3.868  18.232  0.00  0.00    +0.000 N 
ATOM      2  C   UNL     1       5.009   3.905  18.865  0.00  0.00    +0.000 A 
ATOM      3  C   UNL     1       4.496   2.718  19.386  0.00  0.00    +0.000 A 
ATOM      4  C   UNL     1       3.268   2.726  20.047  0.00  0.00    +0.000 A 
ATOM      5  C   UNL     1       2.576   3.925  20.189  0.00  0.00    +0.000 A 
ATOM      6 CL   UNL     1       1.086   3.925  21.052  0.00  0.00    +0.000 Cl
ATOM      7  C   UNL     1       3.136   5.067  19.628  0.00  0.00    +0.000 A 
ATOM      8  N   UNL     1       4.325   5.066  18.964  0.00  0.00    +0.000 NA
ATOM      9  H   UNL     1       6.957   3.458  18.862  0.00  0.00    +0.000 HD
ENDROOT
BRANCH   1  15
ATOM     10  C   UNL     1       7.833   6.626  18.685  0.00  0.00    +0.000 C 
ATOM     11  C   UNL     1       7.447   5.926  17.436  0.00  0.00    +0.000 A 
ATOM     12  N   UNL     1       7.771   6.461  16.249  0.00  0.00    +0.000 NA
ATOM     13  N   UNL     1       7.248   5.605  15.355  0.00  0.00    +0.000 N 
ATOM     14  C   UNL     1       6.617   4.540  15.920  0.00  0.00    +0.000 A 
ATOM     15  C   UNL     1       6.721   4.716  17.276  0.00  0.00    +0.000 A 
ATOM     16  H   UNL     1       7.370   5.807  14.368  0.00  0.00    +0.000 HD
ENDBRANCH   1  15
BRANCH   7  17
ATOM     17  C   UNL     1       2.499   6.352  19.716  0.00  0.00    +0.000 C 
ATOM     18  N   UNL     1       1.971   7.384  19.798  0.00  0.00    +0.000 NA
ENDBRANCH   7  17
TORSDOF 2
ENDMDL
MODEL 5
REMARK VINA RESULT:      -7.1      1.814      2.879
REMARK  Name = 
REMARK  3 active torsions:
REMARK  status: ('A' for Active; 'I' for Inactive)
REMARK    1  A    between atoms: C_1  and  C_2
REMARK    2  A    between atoms: C_6  and  N_7
REMARK    3  A    between atoms: C_13  and  C_14
REMARK                            x       y       z     vdW  Elec       q    Type
REMARK                         _______ _______ _______ _____ _____    ______ ____
ROOT
ATOM      1  N   UNL     1       5.319   3.169  16.779  0.00  0.00    +0.000 N 
ATOM      2  C   UNL     1       4.158   3.367  17.561  0.00  0.00    +0.000 A 
ATOM      3  C   UNL     1       3.321   2.276  17.790  0.00  0.00    +0.000 A 
ATOM      4  C   UNL     1       2.186   2.430  18.586  0.00  0.00    +0.000 A 
ATOM      5  C   UNL     1       1.911   3.670  19.154  0.00  0.00    +0.000 A 
ATOM      6 CL   UNL     1       0.534   3.828  20.175  0.00  0.00    +0.000 Cl
ATOM      7  C   UNL     1       2.777   4.719  18.868  0.00  0.00    +0.000 A 
ATOM      8  N   UNL     1       3.877   4.584  18.076  0.00  0.00    +0.000 NA
ATOM      9  H   UNL     1       5.865   2.406  17.169  0.00  0.00    +0.000 HD
ENDROOT
BRANCH   1  15
ATOM     10  C   UNL     1       7.523   5.236  17.834  0.00  0.00    +0.000 C 
ATOM     11  C   UNL     1       6.977   5.013  16.473  0.00  0.00    +0.000 A 
ATOM     12  N   UNL     1       7.430   5.752  15.449  0.00  0.00    +0.000 NA
ATOM     13  N   UNL     1       6.712   5.322  14.397  0.00  0.00    +0.000 N 
ATOM     14  C   UNL     1       5.830   4.333  14.705  0.00  0.00    +0.000 A 
ATOM     15  C   UNL     1       5.970   4.107  16.051  0.00  0.00    +0.000 A 
ATOM     16  H   UNL     1       6.884   5.746  13.493  0.00  0.00    +0.000 HD
ENDBRANCH   1  15
BRANCH   7  17
ATOM     17  C   UNL     1       2.580   6.039  19.402  0.00  0.00    +0.000 C 
ATOM     18  N   UNL     1       2.409   7.098  19.846  0.00  0.00    +0.000 NA
ENDBRANCH   7  17
TORSDOF 2
ENDMDL
MODEL 6
REMARK VINA RESULT:      -6.8      1.818      2.602
REMARK  Name = 
REMARK  3 active torsions:
REMARK  status: ('A' for Active; 'I' for Inactive)
REMARK    1  A    between atoms: C_1  and  C_2
REMARK    2  A    between atoms: C_6  and  N_7
REMARK    3  A    between atoms: C_13  and  C_14
REMARK                            x       y       z     vdW  Elec       q    Type
REMARK                         _______ _______ _______ _____ _____    ______ ____
ROOT
ATOM      1  N   UNL     1       5.522   3.212  16.732  0.00  0.00    +0.000 N 
ATOM      2  C   UNL     1       4.321   3.386  17.457  0.00  0.00    +0.000 A 
ATOM      3  C   UNL     1       3.466   2.293  17.591  0.00  0.00    +0.000 A 
ATOM      4  C   UNL     1       2.289   2.422  18.330  0.00  0.00    +0.000 A 
ATOM      5  C   UNL     1       1.992   3.639  18.935  0.00  0.00    +0.000 A 
ATOM      6 CL   UNL     1       0.561   3.764  19.885  0.00  0.00    +0.000 Cl
ATOM      7  C   UNL     1       2.878   4.691  18.744  0.00  0.00    +0.000 A 
ATOM      8  N   UNL     1       4.020   4.582  18.009  0.00  0.00    +0.000 NA
ATOM      9  H   UNL     1       6.042   2.428  17.117  0.00  0.00    +0.000 HD
ENDROOT
BRANCH   1  15
ATOM     10  C   UNL     1       5.596   3.736  13.576  0.00  0.00    +0.000 C 
ATOM     11  C   UNL     1       6.247   4.461  14.693  0.00  0.00    +0.000 A 
ATOM     12  N   UNL     1       7.007   5.535  14.431  0.00  0.00    +0.000 NA
ATOM     13  N   UNL     1       7.459   5.914  15.639  0.00  0.00    +0.000 N 
ATOM     14  C   UNL     1       7.009   5.136  16.660  0.00  0.00    +0.000 A 
ATOM     15  C   UNL     1       6.218   4.175  16.083  0.00  0.00    +0.000 A 
ATOM     16  H   UNL     1       8.068   6.723  15.691  0.00  0.00    +0.000 HD
ENDBRANCH   1  15
BRANCH   7  17
ATOM     17  C   UNL     1       2.660   5.989  19.324  0.00  0.00    +0.000 C 
ATOM     18  N   UNL     1       2.466   7.036  19.787  0.00  0.00    +0.000 NA
ENDBRANCH   7  17
TORSDOF 2
ENDMDL
MODEL 7
REMARK VINA RESULT:      -6.7      1.236      1.823
REMARK  Name = 
REMARK  3 active torsions:
REMARK  status: ('A' for Active; 'I' for Inactive)
REMARK    1  A    between atoms: C_1  and  C_2
REMARK    2  A    between atoms: C_6  and  N_7
REMARK    3  A    between atoms: C_13  and  C_14
REMARK                            x       y       z     vdW  Elec       q    Type
REMARK                         _______ _______ _______ _____ _____    ______ ____
ROOT
ATOM      1  N   UNL     1       4.350   6.472  17.236  0.00  0.00    +0.000 N 
ATOM      2  C   UNL     1       3.778   5.634  18.221  0.00  0.00    +0.000 A 
ATOM      3  C   UNL     1       3.066   6.229  19.261  0.00  0.00    +0.000 A 
ATOM      4  C   UNL     1       2.460   5.429  20.230  0.00  0.00    +0.000 A 
ATOM      5  C   UNL     1       2.563   4.044  20.136  0.00  0.00    +0.000 A 
ATOM      6 CL   UNL     1       1.766   3.072  21.313  0.00  0.00    +0.000 Cl
ATOM      7  C   UNL     1       3.305   3.520  19.085  0.00  0.00    +0.000 A 
ATOM      8  N   UNL     1       3.917   4.293  18.144  0.00  0.00    +0.000 NA
ATOM      9  H   UNL     1       3.633   7.077  16.846  0.00  0.00    +0.000 HD
ENDROOT
BRANCH   1  15
ATOM     10  C   UNL     1       7.427   6.671  18.095  0.00  0.00    +0.000 C 
ATOM     11  C   UNL     1       6.804   6.233  16.824  0.00  0.00    +0.000 A 
ATOM     12  N   UNL     1       7.583   5.826  15.810  0.00  0.00    +0.000 NA
ATOM     13  N   UNL     1       6.712   5.543  14.826  0.00  0.00    +0.000 N 
ATOM     14  C   UNL     1       5.411   5.738  15.173  0.00  0.00    +0.000 A 
ATOM     15  C   UNL     1       5.430   6.192  16.468  0.00  0.00    +0.000 A 
ATOM     16  H   UNL     1       7.078   5.209  13.941  0.00  0.00    +0.000 HD
ENDBRANCH   1  15
BRANCH   7  17
ATOM     17  C   UNL     1       3.475   2.104  18.901  0.00  0.00    +0.000 C 
ATOM     18  N   UNL     1       3.624   0.964  18.739  0.00  0.00    +0.000 NA
ENDBRANCH   7  17
TORSDOF 2
ENDMDL
MODEL 8
REMARK VINA RESULT:      -6.6      1.148      1.162
REMARK  Name = 
REMARK  3 active torsions:
REMARK  status: ('A' for Active; 'I' for Inactive)
REMARK    1  A    between atoms: C_1  and  C_2
REMARK    2  A    between atoms: C_6  and  N_7
REMARK    3  A    between atoms: C_13  and  C_14
REMARK                            x       y       z     vdW  Elec       q    Type
REMARK                         _______ _______ _______ _____ _____    ______ ____
ROOT
ATOM      1  N   UNL     1       4.358   6.661  17.481  0.00  0.00    +0.000 N 
ATOM      2  C   UNL     1       3.645   5.756  18.300  0.00  0.00    +0.000 A 
ATOM      3  C   UNL     1       2.669   6.266  19.155  0.00  0.00    +0.000 A 
ATOM      4  C   UNL     1       1.924   5.397  19.952  0.00  0.00    +0.000 A 
ATOM      5  C   UNL     1       2.156   4.027  19.872  0.00  0.00    +0.000 A 
ATOM      6 CL   UNL     1       1.192   2.966  20.825  0.00  0.00    +0.000 Cl
ATOM      7  C   UNL     1       3.158   3.589  19.013  0.00  0.00    +0.000 A 
ATOM      8  N   UNL     1       3.904   4.432  18.246  0.00  0.00    +0.000 NA
ATOM      9  H   UNL     1       3.703   7.220  16.942  0.00  0.00    +0.000 HD
ENDROOT
BRANCH   1  15
ATOM     10  C   UNL     1       5.200   4.756  15.050  0.00  0.00    +0.000 C 
ATOM     11  C   UNL     1       6.008   5.680  15.881  0.00  0.00    +0.000 A 
ATOM     12  N   UNL     1       7.322   5.809  15.640  0.00  0.00    +0.000 NA
ATOM     13  N   UNL     1       7.739   6.676  16.579  0.00  0.00    +0.000 N 
ATOM     14  C   UNL     1       6.746   7.115  17.399  0.00  0.00    +0.000 A 
ATOM     15  C   UNL     1       5.603   6.485  16.978  0.00  0.00    +0.000 A 
ATOM     16  H   UNL     1       8.721   6.931  16.594  0.00  0.00    +0.000 HD
ENDBRANCH   1  15
BRANCH   7  17
ATOM     17  C   UNL     1       3.477   2.196  18.861  0.00  0.00    +0.000 C 
ATOM     18  N   UNL     1       3.748   1.075  18.726  0.00  0.00    +0.000 NA
ENDBRANCH   7  17
TORSDOF 2
ENDMDL
MODEL 9
REMARK VINA RESULT:      -6.6      3.200      5.420
REMARK  Name = 
REMARK  3 active torsions:
REMARK  status: ('A' for Active; 'I' for Inactive)
REMARK    1  A    between atoms: C_1  and  C_2
REMARK    2  A    between atoms: C_6  and  N_7
REMARK    3  A    between atoms: C_13  and  C_14
REMARK                            x       y       z     vdW  Elec       q    Type
REMARK                         _______ _______ _______ _____ _____    ______ ____
ROOT
ATOM      1  N   UNL     1       2.772   4.822  17.766  0.00  0.00    +0.000 N 
ATOM      2  C   UNL     1       4.025   5.473  17.688  0.00  0.00    +0.000 A 
ATOM      3  C   UNL     1       4.221   6.410  16.675  0.00  0.00    +0.000 A 
ATOM      4  C   UNL     1       5.434   7.096  16.592  0.00  0.00    +0.000 A 
ATOM      5  C   UNL     1       6.427   6.843  17.533  0.00  0.00    +0.000 A 
ATOM      6 CL   UNL     1       7.898   7.736  17.445  0.00  0.00    +0.000 Cl
ATOM      7  C   UNL     1       6.172   5.882  18.504  0.00  0.00    +0.000 A 
ATOM      8  N   UNL     1       4.999   5.194  18.582  0.00  0.00    +0.000 NA
ATOM      9  H   UNL     1       2.030   5.515  17.805  0.00  0.00    +0.000 HD
ENDROOT
BRANCH   1  15
ATOM     10  C   UNL     1       1.128   4.190  20.438  0.00  0.00    +0.000 C 
ATOM     11  C   UNL     1       1.775   3.281  19.462  0.00  0.00    +0.000 A 
ATOM     12  N   UNL     1       1.705   1.954  19.645  0.00  0.00    +0.000 NA
ATOM     13  N   UNL     1       2.412   1.448  18.621  0.00  0.00    +0.000 N 
ATOM     14  C   UNL     1       2.919   2.394  17.785  0.00  0.00    +0.000 A 
ATOM     15  C   UNL     1       2.529   3.603  18.303  0.00  0.00    +0.000 A 
ATOM     16  H   UNL     1       2.499   0.440  18.549  0.00  0.00    +0.000 HD
ENDBRANCH   1  15
BRANCH   7  17
ATOM     17  C   UNL     1       7.134   5.546  19.517  0.00  0.00    +0.000 C 
ATOM     18  N   UNL     1       7.923   5.287  20.329  0.00  0.00    +0.000 NA
ENDBRANCH   7  17
TORSDOF 2
ENDMDL
