MODEL 1
REMARK VINA RESULT:      -9.1      0.000      0.000
REMARK  Name = 
REMARK  9 active torsions:
REMARK  status: ('A' for Active; 'I' for Inactive)
REMARK    1  A    between atoms: C_1  and  C_2
REMARK    2  A    between atoms: C_2  and  C_3
REMARK    3  A    between atoms: C_2  and  C_4
REMARK    4  A    between atoms: C_2  and  C_5
REMARK    5  A    between atoms: N_11  and  C_12
REMARK    6  A    between atoms: C_15  and  C_16
REMARK    7  A    between atoms: N_18  and  C_19
REMARK    8  A    between atoms: C_19  and  C_20
REMARK    9  A    between atoms: C_20  and  C_21
REMARK                            x       y       z     vdW  Elec       q    Type
REMARK                         _______ _______ _______ _____ _____    ______ ____
ROOT
ATOM      1  C   UNL     1       1.082   9.463  19.885  0.00  0.00    +0.000 A 
ATOM      2  C   UNL     1       1.374   8.451  20.795  0.00  0.00    +0.000 A 
ATOM      3  C   UNL     1       1.986   7.278  20.351  0.00  0.00    +0.000 A 
ATOM      4  C   UNL     1       2.328   7.122  19.000  0.00  0.00    +0.000 A 
ATOM      5  C   UNL     1       2.006   8.138  18.094  0.00  0.00    +0.000 A 
ATOM      6  C   UNL     1       1.375   9.299  18.532  0.00  0.00    +0.000 A 
ENDROOT
BRANCH   4   7
ATOM      7  C   UNL     1       2.989   5.913  18.539  0.00  0.00    +0.000 A 
ATOM      8  C   UNL     1       4.118   5.953  17.741  0.00  0.00    +0.000 A 
ATOM      9  N   UNL     1       4.534   4.667  17.519  0.00  0.00    +0.000 N 
ATOM     10  C   UNL     1       3.688   3.795  18.151  0.00  0.00    +0.000 A 
ATOM     11  N   UNL     1       3.813   2.457  18.143  0.00  0.00    +0.000 NA
ATOM     12  C   UNL     1       2.830   1.870  18.842  0.00  0.00    +0.000 A 
ATOM     13  N   UNL     1       1.806   2.443  19.497  0.00  0.00    +0.000 NA
ATOM     14  C   UNL     1       1.716   3.785  19.488  0.00  0.00    +0.000 A 
ATOM     15  N   UNL     1       0.633   4.328  20.166  0.00  0.00    +0.000 N 
ATOM     16  C   UNL     1       2.695   4.531  18.796  0.00  0.00    +0.000 A 
ATOM     17  H   UNL     1      -0.054   3.610  20.369  0.00  0.00    +0.000 HD
ATOM     18  H   UNL     1       0.274   5.182  19.763  0.00  0.00    +0.000 HD
BRANCH   9  19
ATOM     19  C   UNL     1       5.724   4.299  16.763  0.00  0.00    +0.000 C 
BRANCH  19  20
ATOM     20  C   UNL     1       5.504   4.352  15.262  0.00  0.00    +0.000 C 
BRANCH  20  21
ATOM     21  C   UNL     1       6.705   4.929  14.530  0.00  0.00    +0.000 C 
ATOM     22  N   UNL     1       7.701   5.406  13.922  0.00  0.00    +0.000 NA
ENDBRANCH  20  21
ENDBRANCH  19  20
ENDBRANCH   9  19
ENDBRANCH   4   7
BRANCH   1  29
ATOM     23  C   UNL     1      -2.546  13.169  22.970  0.00  0.00    +0.000 A 
ATOM     24  C   UNL     1      -1.613  13.791  22.170  0.00  0.00    +0.000 A 
ATOM     25  C   UNL     1      -0.911  12.736  21.551  0.00  0.00    +0.000 A 
ATOM     26  N   UNL     1       0.152  12.899  20.688  0.00  0.00    +0.000 N 
ATOM     27  C   UNL     1       0.915  11.910  20.128  0.00  0.00    +0.000 C 
ATOM     28  O   UNL     1       1.935  12.222  19.516  0.00  0.00    +0.000 OA
ATOM     29  N   UNL     1       0.436  10.638  20.264  0.00  0.00    +0.000 N 
ATOM     30  N   UNL     1      -1.414  11.555  21.925  0.00  0.00    +0.000 NA
ATOM     31  O   UNL     1      -2.417  11.823  22.823  0.00  0.00    +0.000 OA
ATOM     32  H   UNL     1       0.485  13.834  20.509  0.00  0.00    +0.000 HD
ATOM     33  H   UNL     1      -0.552  10.572  20.484  0.00  0.00    +0.000 HD
BRANCH  23  35
ATOM     34  C   UNL     1      -4.720  14.376  23.159  0.00  0.00    +0.000 C 
ATOM     35  C   UNL     1      -3.614  13.625  23.917  0.00  0.00    +0.000 C 
ATOM     36  C   UNL     1      -3.004  14.567  24.970  0.00  0.00    +0.000 C 
ATOM     37  C   UNL     1      -4.229  12.401  24.619  0.00  0.00    +0.000 C 
ENDBRANCH  23  35
ENDBRANCH   1  29
TORSDOF 6
ENDMDL
MODEL 2
REMARK VINA RESULT:      -9.1      0.205      1.156
REMARK  Name = 
REMARK  9 active torsions:
REMARK  status: ('A' for Active; 'I' for Inactive)
REMARK    1  A    between atoms: C_1  and  C_2
REMARK    2  A    between atoms: C_2  and  C_3
REMARK    3  A    between atoms: C_2  and  C_4
REMARK    4  A    between atoms: C_2  and  C_5
REMARK    5  A    between atoms: N_11  and  C_12
REMARK    6  A    between atoms: C_15  and  C_16
REMARK    7  A    between atoms: N_18  and  C_19
REMARK    8  A    between atoms: C_19  and  C_20
REMARK    9  A    between atoms: C_20  and  C_21
REMARK                            x       y       z     vdW  Elec       q    Type
REMARK                         _______ _______ _______ _____ _____    ______ ____
ROOT
ATOM      1  C   UNL     1       1.060   9.598  19.557  0.00  0.00    +0.000 A 
ATOM      2  C   UNL     1       1.386   9.390  18.219  0.00  0.00    +0.000 A 
ATOM      3  C   UNL     1       2.040   8.218  17.841  0.00  0.00    +0.000 A 
ATOM      4  C   UNL     1       2.351   7.238  18.794  0.00  0.00    +0.000 A 
ATOM      5  C   UNL     1       2.039   7.471  20.138  0.00  0.00    +0.000 A 
ATOM      6  C   UNL     1       1.406   8.651  20.520  0.00  0.00    +0.000 A 
ENDROOT
BRANCH   4   7
ATOM      7  C   UNL     1       3.009   6.004  18.400  0.00  0.00    +0.000 A 
ATOM      8  C   UNL     1       4.113   5.996  17.567  0.00  0.00    +0.000 A 
ATOM      9  N   UNL     1       4.535   4.700  17.424  0.00  0.00    +0.000 N 
ATOM     10  C   UNL     1       3.717   3.869  18.142  0.00  0.00    +0.000 A 
ATOM     11  N   UNL     1       3.855   2.535  18.227  0.00  0.00    +0.000 NA
ATOM     12  C   UNL     1       2.900   1.992  18.996  0.00  0.00    +0.000 A 
ATOM     13  N   UNL     1       1.890   2.602  19.640  0.00  0.00    +0.000 NA
ATOM     14  C   UNL     1       1.787   3.940  19.538  0.00  0.00    +0.000 A 
ATOM     15  N   UNL     1       0.720   4.522  20.209  0.00  0.00    +0.000 N 
ATOM     16  C   UNL     1       2.737   4.642  18.764  0.00  0.00    +0.000 A 
ATOM     17  H   UNL     1       0.047   3.815  20.484  0.00  0.00    +0.000 HD
ATOM     18  H   UNL     1       0.341   5.342  19.758  0.00  0.00    +0.000 HD
BRANCH   9  19
ATOM     19  C   UNL     1       5.705   4.287  16.660  0.00  0.00    +0.000 C 
BRANCH  19  20
ATOM     20  C   UNL     1       5.506   4.433  15.162  0.00  0.00    +0.000 C 
BRANCH  20  21
ATOM     21  C   UNL     1       6.750   4.966  14.470  0.00  0.00    +0.000 C 
ATOM     22  N   UNL     1       7.782   5.409  13.897  0.00  0.00    +0.000 NA
ENDBRANCH  20  21
ENDBRANCH  19  20
ENDBRANCH   9  19
ENDBRANCH   4   7
BRANCH   1  29
ATOM     23  C   UNL     1      -2.463  13.222  22.853  0.00  0.00    +0.000 A 
ATOM     24  C   UNL     1      -1.525  13.863  22.075  0.00  0.00    +0.000 A 
ATOM     25  C   UNL     1      -0.850  12.825  21.399  0.00  0.00    +0.000 A 
ATOM     26  N   UNL     1       0.208  13.009  20.535  0.00  0.00    +0.000 N 
ATOM     27  C   UNL     1       0.946  12.033  19.919  0.00  0.00    +0.000 C 
ATOM     28  O   UNL     1       1.967  12.353  19.313  0.00  0.00    +0.000 OA
ATOM     29  N   UNL     1       0.442  10.766  19.998  0.00  0.00    +0.000 N 
ATOM     30  N   UNL     1      -1.374  11.638  21.720  0.00  0.00    +0.000 NA
ATOM     31  O   UNL     1      -2.364  11.882  22.639  0.00  0.00    +0.000 OA
ATOM     32  H   UNL     1       0.560  13.944  20.398  0.00  0.00    +0.000 HD
ATOM     33  H   UNL     1      -0.545  10.710  20.224  0.00  0.00    +0.000 HD
BRANCH  23  35
ATOM     34  C   UNL     1      -2.895  14.526  24.935  0.00  0.00    +0.000 C 
ATOM     35  C   UNL     1      -3.514  13.653  23.831  0.00  0.00    +0.000 C 
ATOM     36  C   UNL     1      -4.158  12.414  24.477  0.00  0.00    +0.000 C 
ATOM     37  C   UNL     1      -4.592  14.467  23.093  0.00  0.00    +0.000 C 
ENDBRANCH  23  35
ENDBRANCH   1  29
TORSDOF 6
ENDMDL
MODEL 3
REMARK VINA RESULT:      -9.0      0.917      1.368
REMARK  Name = 
REMARK  9 active torsions:
REMARK  status: ('A' for Active; 'I' for Inactive)
REMARK    1  A    between atoms: C_1  and  C_2
REMARK    2  A    between atoms: C_2  and  C_3
REMARK    3  A    between atoms: C_2  and  C_4
REMARK    4  A    between atoms: C_2  and  C_5
REMARK    5  A    between atoms: N_11  and  C_12
REMARK    6  A    between atoms: C_15  and  C_16
REMARK    7  A    between atoms: N_18  and  C_19
REMARK    8  A    between atoms: C_19  and  C_20
REMARK    9  A    between atoms: C_20  and  C_21
REMARK                            x       y       z     vdW  Elec       q    Type
REMARK                         _______ _______ _______ _____ _____    ______ ____
ROOT
ATOM      1  C   UNL     1       1.125   9.563  19.699  0.00  0.00    +0.000 A 
ATOM      2  C   UNL     1       1.482   8.555  20.589  0.00  0.00    +0.000 A 
ATOM      3  C   UNL     1       2.076   7.388  20.109  0.00  0.00    +0.000 A 
ATOM      4  C   UNL     1       2.337   7.233  18.741  0.00  0.00    +0.000 A 
ATOM      5  C   UNL     1       1.950   8.245  17.855  0.00  0.00    +0.000 A 
ATOM      6  C   UNL     1       1.336   9.400  18.330  0.00  0.00    +0.000 A 
ENDROOT
BRANCH   4   7
ATOM      7  C   UNL     1       2.980   6.030  18.241  0.00  0.00    +0.000 A 
ATOM      8  C   UNL     1       4.011   6.078  17.321  0.00  0.00    +0.000 A 
ATOM      9  N   UNL     1       4.440   4.798  17.088  0.00  0.00    +0.000 N 
ATOM     10  C   UNL     1       3.698   3.922  17.833  0.00  0.00    +0.000 A 
ATOM     11  N   UNL     1       3.863   2.588  17.848  0.00  0.00    +0.000 NA
ATOM     12  C   UNL     1       2.983   1.995  18.669  0.00  0.00    +0.000 A 
ATOM     13  N   UNL     1       2.021   2.558  19.419  0.00  0.00    +0.000 NA
ATOM     14  C   UNL     1       1.889   3.896  19.384  0.00  0.00    +0.000 A 
ATOM     15  N   UNL     1       0.872   4.429  20.164  0.00  0.00    +0.000 N 
ATOM     16  C   UNL     1       2.760   4.648  18.566  0.00  0.00    +0.000 A 
ATOM     17  H   UNL     1       0.234   3.698  20.462  0.00  0.00    +0.000 HD
ATOM     18  H   UNL     1       0.443   5.260  19.782  0.00  0.00    +0.000 HD
BRANCH   9  19
ATOM     19  C   UNL     1       5.550   4.440  16.213  0.00  0.00    +0.000 C 
BRANCH  19  20
ATOM     20  C   UNL     1       6.774   5.309  16.436  0.00  0.00    +0.000 C 
BRANCH  20  21
ATOM     21  C   UNL     1       7.393   5.080  17.806  0.00  0.00    +0.000 C 
ATOM     22  N   UNL     1       7.907   4.890  18.941  0.00  0.00    +0.000 NA
ENDBRANCH  20  21
ENDBRANCH  19  20
ENDBRANCH   9  19
ENDBRANCH   4   7
BRANCH   1  29
ATOM     23  C   UNL     1      -2.464  13.208  22.900  0.00  0.00    +0.000 A 
ATOM     24  C   UNL     1      -1.523  13.844  22.122  0.00  0.00    +0.000 A 
ATOM     25  C   UNL     1      -0.832  12.802  21.470  0.00  0.00    +0.000 A 
ATOM     26  N   UNL     1       0.234  12.982  20.614  0.00  0.00    +0.000 N 
ATOM     27  C   UNL     1       0.986  12.003  20.022  0.00  0.00    +0.000 C 
ATOM     28  O   UNL     1       2.011  12.322  19.421  0.00  0.00    +0.000 OA
ATOM     29  N   UNL     1       0.492  10.733  20.115  0.00  0.00    +0.000 N 
ATOM     30  N   UNL     1      -1.349  11.615  21.804  0.00  0.00    +0.000 NA
ATOM     31  O   UNL     1      -2.351  11.866  22.708  0.00  0.00    +0.000 OA
ATOM     32  H   UNL     1       0.579  13.918  20.466  0.00  0.00    +0.000 HD
ATOM     33  H   UNL     1      -0.497  10.671  20.332  0.00  0.00    +0.000 HD
BRANCH  23  35
ATOM     34  C   UNL     1      -2.933  14.555  24.947  0.00  0.00    +0.000 C 
ATOM     35  C   UNL     1      -3.528  13.645  23.861  0.00  0.00    +0.000 C 
ATOM     36  C   UNL     1      -4.156  12.412  24.533  0.00  0.00    +0.000 C 
ATOM     37  C   UNL     1      -4.615  14.421  23.095  0.00  0.00    +0.000 C 
ENDBRANCH  23  35
ENDBRANCH   1  29
TORSDOF 6
ENDMDL
MODEL 4
REMARK VINA RESULT:      -9.0      0.950      1.416
REMARK  Name = 
REMARK  9 active torsions:
REMARK  status: ('A' for Active; 'I' for Inactive)
REMARK    1  A    between atoms: C_1  and  C_2
REMARK    2  A    between atoms: C_2  and  C_3
REMARK    3  A    between atoms: C_2  and  C_4
REMARK    4  A    between atoms: C_2  and  C_5
REMARK    5  A    between atoms: N_11  and  C_12
REMARK    6  A    between atoms: C_15  and  C_16
REMARK    7  A    between atoms: N_18  and  C_19
REMARK    8  A    between atoms: C_19  and  C_20
REMARK    9  A    between atoms: C_20  and  C_21
REMARK                            x       y       z     vdW  Elec       q    Type
REMARK                         _______ _______ _______ _____ _____    ______ ____
ROOT
ATOM      1  C   UNL     1       1.031   9.710  19.650  0.00  0.00    +0.000 A 
ATOM      2  C   UNL     1       1.285   9.546  18.291  0.00  0.00    +0.000 A 
ATOM      3  C   UNL     1       1.918   8.387  17.841  0.00  0.00    +0.000 A 
ATOM      4  C   UNL     1       2.279   7.377  18.745  0.00  0.00    +0.000 A 
ATOM      5  C   UNL     1       2.039   7.568  20.110  0.00  0.00    +0.000 A 
ATOM      6  C   UNL     1       1.428   8.734  20.562  0.00  0.00    +0.000 A 
ENDROOT
BRANCH   4   7
ATOM      7  C   UNL     1       2.914   6.157  18.277  0.00  0.00    +0.000 A 
ATOM      8  C   UNL     1       3.920   6.172  17.329  0.00  0.00    +0.000 A 
ATOM      9  N   UNL     1       4.349   4.885  17.137  0.00  0.00    +0.000 N 
ATOM     10  C   UNL     1       3.631   4.037  17.937  0.00  0.00    +0.000 A 
ATOM     11  N   UNL     1       3.803   2.706  18.001  0.00  0.00    +0.000 NA
ATOM     12  C   UNL     1       2.948   2.143  18.868  0.00  0.00    +0.000 A 
ATOM     13  N   UNL     1       2.003   2.732  19.620  0.00  0.00    +0.000 NA
ATOM     14  C   UNL     1       1.864   4.068  19.534  0.00  0.00    +0.000 A 
ATOM     15  N   UNL     1       0.865   4.627  20.319  0.00  0.00    +0.000 N 
ATOM     16  C   UNL     1       2.710   4.789  18.664  0.00  0.00    +0.000 A 
ATOM     17  H   UNL     1       0.239   3.907  20.663  0.00  0.00    +0.000 HD
ATOM     18  H   UNL     1       0.422   5.441  19.915  0.00  0.00    +0.000 HD
BRANCH   9  19
ATOM     19  C   UNL     1       5.437   4.497  16.248  0.00  0.00    +0.000 C 
BRANCH  19  20
ATOM     20  C   UNL     1       6.685   5.338  16.448  0.00  0.00    +0.000 C 
BRANCH  20  21
ATOM     21  C   UNL     1       7.359   5.050  17.780  0.00  0.00    +0.000 C 
ATOM     22  N   UNL     1       7.917   4.812  18.885  0.00  0.00    +0.000 NA
ENDBRANCH  20  21
ENDBRANCH  19  20
ENDBRANCH   9  19
ENDBRANCH   4   7
BRANCH   1  29
ATOM     23  C   UNL     1      -2.560  13.191  23.025  0.00  0.00    +0.000 A 
ATOM     24  C   UNL     1      -1.533  13.850  22.389  0.00  0.00    +0.000 A 
ATOM     25  C   UNL     1      -0.858  12.847  21.663  0.00  0.00    +0.000 A 
ATOM     26  N   UNL     1       0.274  13.053  20.903  0.00  0.00    +0.000 N 
ATOM     27  C   UNL     1       1.010  12.101  20.249  0.00  0.00    +0.000 C 
ATOM     28  O   UNL     1       2.091  12.420  19.757  0.00  0.00    +0.000 OA
ATOM     29  N   UNL     1       0.439  10.863  20.160  0.00  0.00    +0.000 N 
ATOM     30  N   UNL     1      -1.464  11.665  21.821  0.00  0.00    +0.000 NA
ATOM     31  O   UNL     1      -2.511  11.875  22.683  0.00  0.00    +0.000 OA
ATOM     32  H   UNL     1       0.682  13.976  20.890  0.00  0.00    +0.000 HD
ATOM     33  H   UNL     1      -0.565  10.842  20.305  0.00  0.00    +0.000 HD
BRANCH  23  35
ATOM     34  C   UNL     1      -4.799  14.279  23.192  0.00  0.00    +0.000 C 
ATOM     35  C   UNL     1      -3.664  13.584  23.960  0.00  0.00    +0.000 C 
ATOM     36  C   UNL     1      -3.118  14.551  25.025  0.00  0.00    +0.000 C 
ATOM     37  C   UNL     1      -4.220  12.324  24.648  0.00  0.00    +0.000 C 
ENDBRANCH  23  35
ENDBRANCH   1  29
TORSDOF 6
ENDMDL
MODEL 5
REMARK VINA RESULT:      -8.9      2.552      3.082
REMARK  Name = 
REMARK  9 active torsions:
REMARK  status: ('A' for Active; 'I' for Inactive)
REMARK    1  A    between atoms: C_1  and  C_2
REMARK    2  A    between atoms: C_2  and  C_3
REMARK    3  A    between atoms: C_2  and  C_4
REMARK    4  A    between atoms: C_2  and  C_5
REMARK    5  A    between atoms: N_11  and  C_12
REMARK    6  A    between atoms: C_15  and  C_16
REMARK    7  A    between atoms: N_18  and  C_19
REMARK    8  A    between atoms: C_19  and  C_20
REMARK    9  A    between atoms: C_20  and  C_21
REMARK                            x       y       z     vdW  Elec       q    Type
REMARK                         _______ _______ _______ _____ _____    ______ ____
ROOT
ATOM      1  C   UNL     1       0.414   9.857  19.491  0.00  0.00    +0.000 A 
ATOM      2  C   UNL     1       0.895   9.010  20.485  0.00  0.00    +0.000 A 
ATOM      3  C   UNL     1       1.787   7.991  20.152  0.00  0.00    +0.000 A 
ATOM      4  C   UNL     1       2.221   7.828  18.829  0.00  0.00    +0.000 A 
ATOM      5  C   UNL     1       1.711   8.672  17.837  0.00  0.00    +0.000 A 
ATOM      6  C   UNL     1       0.802   9.675  18.164  0.00  0.00    +0.000 A 
ENDROOT
BRANCH   4   7
ATOM      7  C   UNL     1       3.171   6.785  18.484  0.00  0.00    +0.000 A 
ATOM      8  C   UNL     1       4.259   7.025  17.665  0.00  0.00    +0.000 A 
ATOM      9  N   UNL     1       4.990   5.870  17.570  0.00  0.00    +0.000 N 
ATOM     10  C   UNL     1       4.387   4.884  18.305  0.00  0.00    +0.000 A 
ATOM     11  N   UNL     1       4.848   3.628  18.434  0.00  0.00    +0.000 NA
ATOM     12  C   UNL     1       4.041   2.888  19.209  0.00  0.00    +0.000 A 
ATOM     13  N   UNL     1       2.899   3.249  19.820  0.00  0.00    +0.000 NA
ATOM     14  C   UNL     1       2.472   4.516  19.673  0.00  0.00    +0.000 A 
ATOM     15  N   UNL     1       1.281   4.835  20.311  0.00  0.00    +0.000 N 
ATOM     16  C   UNL     1       3.235   5.408  18.888  0.00  0.00    +0.000 A 
ATOM     17  H   UNL     1       0.797   3.992  20.600  0.00  0.00    +0.000 HD
ATOM     18  H   UNL     1       0.720   5.524  19.828  0.00  0.00    +0.000 HD
BRANCH   9  19
ATOM     19  C   UNL     1       6.241   5.737  16.834  0.00  0.00    +0.000 C 
BRANCH  19  20
ATOM     20  C   UNL     1       7.407   6.408  17.537  0.00  0.00    +0.000 C 
BRANCH  20  21
ATOM     21  C   UNL     1       7.624   5.853  18.936  0.00  0.00    +0.000 C 
ATOM     22  N   UNL     1       7.804   5.394  20.096  0.00  0.00    +0.000 NA
ENDBRANCH  20  21
ENDBRANCH  19  20
ENDBRANCH   9  19
ENDBRANCH   4   7
BRANCH   1  29
ATOM     23  C   UNL     1      -4.839  12.825  19.573  0.00  0.00    +0.000 A 
ATOM     24  C   UNL     1      -3.887  13.291  20.451  0.00  0.00    +0.000 A 
ATOM     25  C   UNL     1      -2.765  12.464  20.236  0.00  0.00    +0.000 A 
ATOM     26  N   UNL     1      -1.581  12.549  20.938  0.00  0.00    +0.000 N 
ATOM     27  C   UNL     1      -0.497  11.719  20.823  0.00  0.00    +0.000 C 
ATOM     28  O   UNL     1       0.417  11.820  21.641  0.00  0.00    +0.000 OA
ATOM     29  N   UNL     1      -0.509  10.866  19.757  0.00  0.00    +0.000 N 
ATOM     30  N   UNL     1      -3.012  11.581  19.264  0.00  0.00    +0.000 NA
ATOM     31  O   UNL     1      -4.308  11.792  18.865  0.00  0.00    +0.000 OA
ATOM     32  H   UNL     1      -1.513  13.220  21.687  0.00  0.00    +0.000 HD
ATOM     33  H   UNL     1      -1.138  11.127  19.005  0.00  0.00    +0.000 HD
BRANCH  23  35
ATOM     34  C   UNL     1      -6.598  14.579  19.796  0.00  0.00    +0.000 C 
ATOM     35  C   UNL     1      -6.256  13.187  19.243  0.00  0.00    +0.000 C 
ATOM     36  C   UNL     1      -7.211  12.154  19.865  0.00  0.00    +0.000 C 
ATOM     37  C   UNL     1      -6.435  13.196  17.714  0.00  0.00    +0.000 C 
ENDBRANCH  23  35
ENDBRANCH   1  29
TORSDOF 6
ENDMDL
MODEL 6
REMARK VINA RESULT:      -8.8      2.547      3.553
REMARK  Name = 
REMARK  9 active torsions:
REMARK  status: ('A' for Active; 'I' for Inactive)
REMARK    1  A    between atoms: C_1  and  C_2
REMARK    2  A    between atoms: C_2  and  C_3
REMARK    3  A    between atoms: C_2  and  C_4
REMARK    4  A    between atoms: C_2  and  C_5
REMARK    5  A    between atoms: N_11  and  C_12
REMARK    6  A    between atoms: C_15  and  C_16
REMARK    7  A    between atoms: N_18  and  C_19
REMARK    8  A    between atoms: C_19  and  C_20
REMARK    9  A    between atoms: C_20  and  C_21
REMARK                            x       y       z     vdW  Elec       q    Type
REMARK                         _______ _______ _______ _____ _____    ______ ____
ROOT
ATOM      1  C   UNL     1       1.441   9.485  19.078  0.00  0.00    +0.000 A 
ATOM      2  C   UNL     1       1.655   8.539  20.076  0.00  0.00    +0.000 A 
ATOM      3  C   UNL     1       2.210   7.301  19.748  0.00  0.00    +0.000 A 
ATOM      4  C   UNL     1       2.573   7.013  18.426  0.00  0.00    +0.000 A 
ATOM      5  C   UNL     1       2.329   7.964  17.429  0.00  0.00    +0.000 A 
ATOM      6  C   UNL     1       1.755   9.191  17.752  0.00  0.00    +0.000 A 
ENDROOT
BRANCH   4   7
ATOM      7  C   UNL     1       3.175   5.735  18.085  0.00  0.00    +0.000 A 
ATOM      8  C   UNL     1       4.248   5.638  17.218  0.00  0.00    +0.000 A 
ATOM      9  N   UNL     1       4.620   4.322  17.140  0.00  0.00    +0.000 N 
ATOM     10  C   UNL     1       3.800   3.565  17.933  0.00  0.00    +0.000 A 
ATOM     11  N   UNL     1       3.895   2.234  18.092  0.00  0.00    +0.000 NA
ATOM     12  C   UNL     1       2.949   1.771  18.924  0.00  0.00    +0.000 A 
ATOM     13  N   UNL     1       1.984   2.455  19.562  0.00  0.00    +0.000 NA
ATOM     14  C   UNL     1       1.924   3.787  19.384  0.00  0.00    +0.000 A 
ATOM     15  N   UNL     1       0.901   4.445  20.053  0.00  0.00    +0.000 N 
ATOM     16  C   UNL     1       2.870   4.407  18.538  0.00  0.00    +0.000 A 
ATOM     17  H   UNL     1       0.214   3.780  20.391  0.00  0.00    +0.000 HD
ATOM     18  H   UNL     1       0.534   5.251  19.566  0.00  0.00    +0.000 HD
BRANCH   9  19
ATOM     19  C   UNL     1       5.748   3.823  16.364  0.00  0.00    +0.000 C 
BRANCH  19  20
ATOM     20  C   UNL     1       5.632   4.151  14.886  0.00  0.00    +0.000 C 
BRANCH  20  21
ATOM     21  C   UNL     1       6.858   4.886  14.367  0.00  0.00    +0.000 C 
ATOM     22  N   UNL     1       7.875   5.494  13.937  0.00  0.00    +0.000 NA
ENDBRANCH  20  21
ENDBRANCH  19  20
ENDBRANCH   9  19
ENDBRANCH   4   7
BRANCH   1  29
ATOM     23  C   UNL     1       0.550  15.451  18.947  0.00  0.00    +0.000 A 
ATOM     24  C   UNL     1      -0.513  14.708  19.408  0.00  0.00    +0.000 A 
ATOM     25  C   UNL     1      -0.065  13.372  19.362  0.00  0.00    +0.000 A 
ATOM     26  N   UNL     1      -0.828  12.275  19.698  0.00  0.00    +0.000 N 
ATOM     27  C   UNL     1      -0.467  10.958  19.593  0.00  0.00    +0.000 C 
ATOM     28  O   UNL     1      -1.321  10.091  19.771  0.00  0.00    +0.000 OA
ATOM     29  N   UNL     1       0.854  10.721  19.340  0.00  0.00    +0.000 N 
ATOM     30  N   UNL     1       1.202  13.317  18.937  0.00  0.00    +0.000 NA
ATOM     31  O   UNL     1       1.578  14.608  18.660  0.00  0.00    +0.000 OA
ATOM     32  H   UNL     1      -1.791  12.422  19.961  0.00  0.00    +0.000 HD
ATOM     33  H   UNL     1       1.478  11.493  19.553  0.00  0.00    +0.000 HD
BRANCH  23  35
ATOM     34  C   UNL     1       0.968  17.654  20.040  0.00  0.00    +0.000 C 
ATOM     35  C   UNL     1       0.810  16.907  18.706  0.00  0.00    +0.000 C 
ATOM     36  C   UNL     1      -0.366  17.521  17.927  0.00  0.00    +0.000 C 
ATOM     37  C   UNL     1       2.105  17.063  17.888  0.00  0.00    +0.000 C 
ENDBRANCH  23  35
ENDBRANCH   1  29
TORSDOF 6
ENDMDL
MODEL 7
REMARK VINA RESULT:      -8.8      1.975      2.704
REMARK  Name = 
REMARK  9 active torsions:
REMARK  status: ('A' for Active; 'I' for Inactive)
REMARK    1  A    between atoms: C_1  and  C_2
REMARK    2  A    between atoms: C_2  and  C_3
REMARK    3  A    between atoms: C_2  and  C_4
REMARK    4  A    between atoms: C_2  and  C_5
REMARK    5  A    between atoms: N_11  and  C_12
REMARK    6  A    between atoms: C_15  and  C_16
REMARK    7  A    between atoms: N_18  and  C_19
REMARK    8  A    between atoms: C_19  and  C_20
REMARK    9  A    between atoms: C_20  and  C_21
REMARK                            x       y       z     vdW  Elec       q    Type
REMARK                         _______ _______ _______ _____ _____    ______ ____
ROOT
ATOM      1  C   UNL     1       0.743   9.840  19.388  0.00  0.00    +0.000 A 
ATOM      2  C   UNL     1       1.199   9.624  18.091  0.00  0.00    +0.000 A 
ATOM      3  C   UNL     1       2.001   8.516  17.816  0.00  0.00    +0.000 A 
ATOM      4  C   UNL     1       2.331   7.607  18.831  0.00  0.00    +0.000 A 
ATOM      5  C   UNL     1       1.886   7.851  20.135  0.00  0.00    +0.000 A 
ATOM      6  C   UNL     1       1.104   8.968  20.415  0.00  0.00    +0.000 A 
ENDROOT
BRANCH   4   7
ATOM      7  C   UNL     1       3.144   6.438  18.543  0.00  0.00    +0.000 A 
ATOM      8  C   UNL     1       4.251   6.501  17.716  0.00  0.00    +0.000 A 
ATOM      9  N   UNL     1       4.834   5.262  17.683  0.00  0.00    +0.000 N 
ATOM     10  C   UNL     1       4.118   4.396  18.466  0.00  0.00    +0.000 A 
ATOM     11  N   UNL     1       4.421   3.102  18.661  0.00  0.00    +0.000 NA
ATOM     12  C   UNL     1       3.532   2.507  19.471  0.00  0.00    +0.000 A 
ATOM     13  N   UNL     1       2.445   3.036  20.059  0.00  0.00    +0.000 NA
ATOM     14  C   UNL     1       2.177   4.337  19.846  0.00  0.00    +0.000 A 
ATOM     15  N   UNL     1       1.036   4.832  20.463  0.00  0.00    +0.000 N 
ATOM     16  C   UNL     1       3.041   5.087  19.018  0.00  0.00    +0.000 A 
ATOM     17  H   UNL     1       0.453   4.071  20.793  0.00  0.00    +0.000 HD
ATOM     18  H   UNL     1       0.562   5.559  19.943  0.00  0.00    +0.000 HD
BRANCH   9  19
ATOM     19  C   UNL     1       6.057   4.939  16.959  0.00  0.00    +0.000 C 
BRANCH  19  20
ATOM     20  C   UNL     1       7.245   5.766  17.418  0.00  0.00    +0.000 C 
BRANCH  20  21
ATOM     21  C   UNL     1       7.542   5.565  18.896  0.00  0.00    +0.000 C 
ATOM     22  N   UNL     1       7.789   5.398  20.121  0.00  0.00    +0.000 NA
ENDBRANCH  20  21
ENDBRANCH  19  20
ENDBRANCH   9  19
ENDBRANCH   4   7
BRANCH   1  29
ATOM     23  C   UNL     1      -4.150  13.251  20.301  0.00  0.00    +0.000 A 
ATOM     24  C   UNL     1      -2.989  13.724  20.870  0.00  0.00    +0.000 A 
ATOM     25  C   UNL     1      -2.003  12.783  20.509  0.00  0.00    +0.000 A 
ATOM     26  N   UNL     1      -0.683  12.839  20.903  0.00  0.00    +0.000 N 
ATOM     27  C   UNL     1       0.291  11.910  20.648  0.00  0.00    +0.000 C 
ATOM     28  O   UNL     1       1.378  12.018  21.213  0.00  0.00    +0.000 OA
ATOM     29  N   UNL     1      -0.027  10.950  19.730  0.00  0.00    +0.000 N 
ATOM     30  N   UNL     1      -2.529  11.824  19.740  0.00  0.00    +0.000 NA
ATOM     31  O   UNL     1      -3.868  12.103  19.627  0.00  0.00    +0.000 OA
ATOM     32  H   UNL     1      -0.398  13.579  21.525  0.00  0.00    +0.000 HD
ATOM     33  H   UNL     1      -0.802  11.181  19.117  0.00  0.00    +0.000 HD
BRANCH  23  35
ATOM     34  C   UNL     1      -6.384  13.025  21.387  0.00  0.00    +0.000 C 
ATOM     35  C   UNL     1      -5.580  13.698  20.263  0.00  0.00    +0.000 C 
ATOM     36  C   UNL     1      -6.204  13.319  18.909  0.00  0.00    +0.000 C 
ATOM     37  C   UNL     1      -5.641  15.225  20.448  0.00  0.00    +0.000 C 
ENDBRANCH  23  35
ENDBRANCH   1  29
TORSDOF 6
ENDMDL
MODEL 8
REMARK VINA RESULT:      -8.7      2.604      3.642
REMARK  Name = 
REMARK  9 active torsions:
REMARK  status: ('A' for Active; 'I' for Inactive)
REMARK    1  A    between atoms: C_1  and  C_2
REMARK    2  A    between atoms: C_2  and  C_3
REMARK    3  A    between atoms: C_2  and  C_4
REMARK    4  A    between atoms: C_2  and  C_5
REMARK    5  A    between atoms: N_11  and  C_12
REMARK    6  A    between atoms: C_15  and  C_16
REMARK    7  A    between atoms: N_18  and  C_19
REMARK    8  A    between atoms: C_19  and  C_20
REMARK    9  A    between atoms: C_20  and  C_21
REMARK                            x       y       z     vdW  Elec       q    Type
REMARK                         _______ _______ _______ _____ _____    ______ ____
ROOT
ATOM      1  C   UNL     1       1.432   9.434  19.119  0.00  0.00    +0.000 A 
ATOM      2  C   UNL     1       1.707   8.479  20.093  0.00  0.00    +0.000 A 
ATOM      3  C   UNL     1       2.254   7.250  19.721  0.00  0.00    +0.000 A 
ATOM      4  C   UNL     1       2.550   6.981  18.378  0.00  0.00    +0.000 A 
ATOM      5  C   UNL     1       2.246   7.942  17.408  0.00  0.00    +0.000 A 
ATOM      6  C   UNL     1       1.678   9.159  17.775  0.00  0.00    +0.000 A 
ENDROOT
BRANCH   4   7
ATOM      7  C   UNL     1       3.144   5.713  17.990  0.00  0.00    +0.000 A 
ATOM      8  C   UNL     1       4.188   5.638  17.087  0.00  0.00    +0.000 A 
ATOM      9  N   UNL     1       4.562   4.325  16.969  0.00  0.00    +0.000 N 
ATOM     10  C   UNL     1       3.770   3.549  17.771  0.00  0.00    +0.000 A 
ATOM     11  N   UNL     1       3.874   2.215  17.899  0.00  0.00    +0.000 NA
ATOM     12  C   UNL     1       2.957   1.731  18.750  0.00  0.00    +0.000 A 
ATOM     13  N   UNL     1       2.011   2.397  19.434  0.00  0.00    +0.000 NA
ATOM     14  C   UNL     1       1.941   3.733  19.287  0.00  0.00    +0.000 A 
ATOM     15  N   UNL     1       0.938   4.373  20.003  0.00  0.00    +0.000 N 
ATOM     16  C   UNL     1       2.857   4.375  18.425  0.00  0.00    +0.000 A 
ATOM     17  H   UNL     1       0.264   3.699  20.349  0.00  0.00    +0.000 HD
ATOM     18  H   UNL     1       0.553   5.188  19.545  0.00  0.00    +0.000 HD
BRANCH   9  19
ATOM     19  C   UNL     1       5.666   3.847  16.146  0.00  0.00    +0.000 C 
BRANCH  19  20
ATOM     20  C   UNL     1       6.897   4.730  16.249  0.00  0.00    +0.000 C 
BRANCH  20  21
ATOM     21  C   UNL     1       7.474   4.741  17.655  0.00  0.00    +0.000 C 
ATOM     22  N   UNL     1       7.953   4.750  18.821  0.00  0.00    +0.000 NA
ENDBRANCH  20  21
ENDBRANCH  19  20
ENDBRANCH   9  19
ENDBRANCH   4   7
BRANCH   1  29
ATOM     23  C   UNL     1       0.415  15.381  19.027  0.00  0.00    +0.000 A 
ATOM     24  C   UNL     1      -0.584  14.623  19.595  0.00  0.00    +0.000 A 
ATOM     25  C   UNL     1      -0.115  13.295  19.516  0.00  0.00    +0.000 A 
ATOM     26  N   UNL     1      -0.821  12.187  19.934  0.00  0.00    +0.000 N 
ATOM     27  C   UNL     1      -0.445  10.876  19.805  0.00  0.00    +0.000 C 
ATOM     28  O   UNL     1      -1.261   9.995  20.072  0.00  0.00    +0.000 OA
ATOM     29  N   UNL     1       0.849  10.662  19.426  0.00  0.00    +0.000 N 
ATOM     30  N   UNL     1       1.105  13.260  18.971  0.00  0.00    +0.000 NA
ATOM     31  O   UNL     1       1.427  14.554  18.649  0.00  0.00    +0.000 OA
ATOM     32  H   UNL     1      -1.757  12.319  20.288  0.00  0.00    +0.000 HD
ATOM     33  H   UNL     1       1.475  11.447  19.572  0.00  0.00    +0.000 HD
BRANCH  23  35
ATOM     34  C   UNL     1       0.637  17.640  20.062  0.00  0.00    +0.000 C 
ATOM     35  C   UNL     1       0.622  16.840  18.750  0.00  0.00    +0.000 C 
ATOM     36  C   UNL     1      -0.517  17.363  17.859  0.00  0.00    +0.000 C 
ATOM     37  C   UNL     1       1.969  17.034  18.029  0.00  0.00    +0.000 C 
ENDBRANCH  23  35
ENDBRANCH   1  29
TORSDOF 6
ENDMDL
MODEL 9
REMARK VINA RESULT:      -8.7      1.613      1.880
REMARK  Name = 
REMARK  9 active torsions:
REMARK  status: ('A' for Active; 'I' for Inactive)
REMARK    1  A    between atoms: C_1  and  C_2
REMARK    2  A    between atoms: C_2  and  C_3
REMARK    3  A    between atoms: C_2  and  C_4
REMARK    4  A    between atoms: C_2  and  C_5
REMARK    5  A    between atoms: N_11  and  C_12
REMARK    6  A    between atoms: C_15  and  C_16
REMARK    7  A    between atoms: N_18  and  C_19
REMARK    8  A    between atoms: C_19  and  C_20
REMARK    9  A    between atoms: C_20  and  C_21
REMARK                            x       y       z     vdW  Elec       q    Type
REMARK                         _______ _______ _______ _____ _____    ______ ____
ROOT
ATOM      1  C   UNL     1       0.891   9.688  19.545  0.00  0.00    +0.000 A 
ATOM      2  C   UNL     1       1.174   8.759  20.542  0.00  0.00    +0.000 A 
ATOM      3  C   UNL     1       1.895   7.607  20.228  0.00  0.00    +0.000 A 
ATOM      4  C   UNL     1       2.356   7.390  18.922  0.00  0.00    +0.000 A 
ATOM      5  C   UNL     1       2.043   8.321  17.926  0.00  0.00    +0.000 A 
ATOM      6  C   UNL     1       1.303   9.460  18.234  0.00  0.00    +0.000 A 
ENDROOT
BRANCH   4   7
ATOM      7  C   UNL     1       3.130   6.204  18.597  0.00  0.00    +0.000 A 
ATOM      8  C   UNL     1       4.289   6.268  17.846  0.00  0.00    +0.000 A 
ATOM      9  N   UNL     1       4.814   5.006  17.756  0.00  0.00    +0.000 N 
ATOM     10  C   UNL     1       4.009   4.125  18.427  0.00  0.00    +0.000 A 
ATOM     11  N   UNL     1       4.237   2.806  18.543  0.00  0.00    +0.000 NA
ATOM     12  C   UNL     1       3.271   2.202  19.251  0.00  0.00    +0.000 A 
ATOM     13  N   UNL     1       2.175   2.743  19.810  0.00  0.00    +0.000 NA
ATOM     14  C   UNL     1       1.982   4.068  19.678  0.00  0.00    +0.000 A 
ATOM     15  N   UNL     1       0.829   4.576  20.261  0.00  0.00    +0.000 N 
ATOM     16  C   UNL     1       2.932   4.829  18.963  0.00  0.00    +0.000 A 
ATOM     17  H   UNL     1       0.191   3.825  20.498  0.00  0.00    +0.000 HD
ATOM     18  H   UNL     1       0.424   5.361  19.769  0.00  0.00    +0.000 HD
BRANCH   9  19
ATOM     19  C   UNL     1       6.064   4.672  17.085  0.00  0.00    +0.000 C 
BRANCH  19  20
ATOM     20  C   UNL     1       5.860   4.268  15.636  0.00  0.00    +0.000 C 
BRANCH  20  21
ATOM     21  C   UNL     1       6.886   4.909  14.715  0.00  0.00    +0.000 C 
ATOM     22  N   UNL     1       7.738   5.440  13.953  0.00  0.00    +0.000 NA
ENDBRANCH  20  21
ENDBRANCH  19  20
ENDBRANCH   9  19
ENDBRANCH   4   7
BRANCH   1  29
ATOM     23  C   UNL     1      -3.943  13.224  20.281  0.00  0.00    +0.000 A 
ATOM     24  C   UNL     1      -2.756  13.750  20.738  0.00  0.00    +0.000 A 
ATOM     25  C   UNL     1      -1.790  12.765  20.444  0.00  0.00    +0.000 A 
ATOM     26  N   UNL     1      -0.453  12.853  20.769  0.00  0.00    +0.000 N 
ATOM     27  C   UNL     1       0.504  11.893  20.578  0.00  0.00    +0.000 C 
ATOM     28  O   UNL     1       1.616  12.055  21.078  0.00  0.00    +0.000 OA
ATOM     29  N   UNL     1       0.141  10.836  19.792  0.00  0.00    +0.000 N 
ATOM     30  N   UNL     1      -2.354  11.728  19.815  0.00  0.00    +0.000 NA
ATOM     31  O   UNL     1      -3.696  12.005  19.731  0.00  0.00    +0.000 OA
ATOM     32  H   UNL     1      -0.137  13.658  21.288  0.00  0.00    +0.000 HD
ATOM     33  H   UNL     1      -0.660  11.003  19.192  0.00  0.00    +0.000 HD
BRANCH  23  35
ATOM     34  C   UNL     1      -5.984  13.451  18.866  0.00  0.00    +0.000 C 
ATOM     35  C   UNL     1      -5.372  13.677  20.257  0.00  0.00    +0.000 C 
ATOM     36  C   UNL     1      -5.445  15.175  20.597  0.00  0.00    +0.000 C 
ATOM     37  C   UNL     1      -6.177  12.874  21.296  0.00  0.00    +0.000 C 
ENDBRANCH  23  35
ENDBRANCH   1  29
TORSDOF 6
ENDMDL
