MODEL 1
REMARK VINA RESULT:      -9.2      0.000      0.000
REMARK  Name = 
REMARK  8 active torsions:
REMARK  status: ('A' for Active; 'I' for Inactive)
REMARK    1  A    between atoms: C_1  and  C_2
REMARK    2  A    between atoms: C_5  and  C_6
REMARK    3  A    between atoms: C_6  and  C_8
REMARK    4  A    between atoms: C_8  and  C_9
REMARK    5  A    between atoms: C_8  and  O_19
REMARK    6  A    between atoms: C_9  and  N_10
REMARK    7  A    between atoms: O_19  and  C_20
REMARK    8  A    between atoms: C_20  and  C_22
REMARK                            x       y       z     vdW  Elec       q    Type
REMARK                         _______ _______ _______ _____ _____    ______ ____
ROOT
ATOM      1  C   UNL     1       4.213   4.788  17.065  0.00  0.00    +0.000 C 
ENDROOT
BRANCH   1   2
ATOM      2  C   UNL     1       4.217   5.636  18.347  0.00  0.00    +0.000 C 
ATOM      3  O   UNL     1       5.096   5.509  19.202  0.00  0.00    +0.000 OA
BRANCH   2   8
ATOM      4  C   UNL     1       0.795  10.133  19.589  0.00  0.00    +0.000 C 
ATOM      5  C   UNL     1       1.524   8.883  19.187  0.00  0.00    +0.000 A 
ATOM      6  C   UNL     1       1.688   7.831  20.091  0.00  0.00    +0.000 A 
ATOM      7  C   UNL     1       2.511   6.749  19.768  0.00  0.00    +0.000 A 
ATOM      8  C   UNL     1       3.184   6.703  18.540  0.00  0.00    +0.000 A 
ATOM      9  C   UNL     1       2.943   7.707  17.596  0.00  0.00    +0.000 A 
ATOM     10  C   UNL     1       2.119   8.792  17.923  0.00  0.00    +0.000 A 
ENDBRANCH   2   8
ENDBRANCH   1   2
BRANCH   1  11
ATOM     11  C   UNL     1       5.603   4.168  16.846  0.00  0.00    +0.000 C 
BRANCH  11  12
ATOM     12  N   UNL     1       6.322   4.731  15.722  0.00  0.00    +0.000 N 
ATOM     13  N   UNL     1       7.325   5.605  15.939  0.00  0.00    +0.000 NA
ATOM     14  N   UNL     1       7.949   5.793  14.782  0.00  0.00    +0.000 NA
ATOM     15  C   UNL     1       7.325   5.029  13.832  0.00  0.00    +0.000 A 
ATOM     16  C   UNL     1       7.620   4.832  12.473  0.00  0.00    +0.000 A 
ATOM     17  C   UNL     1       6.803   3.969  11.731  0.00  0.00    +0.000 A 
ATOM     18  C   UNL     1       5.710   3.330  12.322  0.00  0.00    +0.000 A 
ATOM     19  C   UNL     1       5.404   3.514  13.676  0.00  0.00    +0.000 A 
ATOM     20  C   UNL     1       6.247   4.362  14.404  0.00  0.00    +0.000 A 
ENDBRANCH  11  12
ENDBRANCH   1  11
BRANCH   1  21
ATOM     21  O   UNL     1       3.145   3.824  17.047  0.00  0.00    +0.000 OA
BRANCH  21  22
ATOM     22  C   UNL     1       3.308   2.713  17.808  0.00  0.00    +0.000 C 
ATOM     23  O   UNL     1       3.909   1.707  17.477  0.00  0.00    +0.000 OA
BRANCH  22  24
ATOM     24  C   UNL     1       2.671   2.870  19.125  0.00  0.00    +0.000 A 
ATOM     25  C   UNL     1       1.365   3.327  19.314  0.00  0.00    +0.000 A 
ATOM     26  C   UNL     1       0.867   3.433  20.611  0.00  0.00    +0.000 A 
ATOM     27  C   UNL     1       1.691   3.080  21.670  0.00  0.00    +0.000 A 
ATOM     28  N   UNL     1       2.958   2.638  21.518  0.00  0.00    +0.000 NA
ATOM     29  C   UNL     1       3.421   2.543  20.247  0.00  0.00    +0.000 A 
ENDBRANCH  22  24
ENDBRANCH  21  22
ENDBRANCH   1  21
TORSDOF 7
ENDMDL
MODEL 2
REMARK VINA RESULT:      -8.8      1.658      6.363
REMARK  Name = 
REMARK  8 active torsions:
REMARK  status: ('A' for Active; 'I' for Inactive)
REMARK    1  A    between atoms: C_1  and  C_2
REMARK    2  A    between atoms: C_5  and  C_6
REMARK    3  A    between atoms: C_6  and  C_8
REMARK    4  A    between atoms: C_8  and  C_9
REMARK    5  A    between atoms: C_8  and  O_19
REMARK    6  A    between atoms: C_9  and  N_10
REMARK    7  A    between atoms: O_19  and  C_20
REMARK    8  A    between atoms: C_20  and  C_22
REMARK                            x       y       z     vdW  Elec       q    Type
REMARK                         _______ _______ _______ _____ _____    ______ ____
ROOT
ATOM      1  C   UNL     1       5.250   4.532  17.301  0.00  0.00    +0.000 C 
ENDROOT
BRANCH   1   2
ATOM      2  C   UNL     1       5.052   5.493  18.483  0.00  0.00    +0.000 C 
ATOM      3  O   UNL     1       5.875   5.571  19.397  0.00  0.00    +0.000 OA
BRANCH   2   8
ATOM      4  C   UNL     1       0.962   9.539  19.105  0.00  0.00    +0.000 C 
ATOM      5  C   UNL     1       1.888   8.385  18.846  0.00  0.00    +0.000 A 
ATOM      6  C   UNL     1       2.055   7.377  19.797  0.00  0.00    +0.000 A 
ATOM      7  C   UNL     1       3.041   6.403  19.624  0.00  0.00    +0.000 A 
ATOM      8  C   UNL     1       3.878   6.424  18.500  0.00  0.00    +0.000 A 
ATOM      9  C   UNL     1       3.648   7.374  17.500  0.00  0.00    +0.000 A 
ATOM     10  C   UNL     1       2.659   8.351  17.678  0.00  0.00    +0.000 A 
ENDBRANCH   2   8
ENDBRANCH   1   2
BRANCH   1  11
ATOM     11  C   UNL     1       4.189   3.421  17.348  0.00  0.00    +0.000 C 
BRANCH  11  12
ATOM     12  N   UNL     1       3.987   2.863  18.670  0.00  0.00    +0.000 N 
ATOM     13  N   UNL     1       5.037   2.366  19.353  0.00  0.00    +0.000 NA
ATOM     14  N   UNL     1       4.628   2.125  20.594  0.00  0.00    +0.000 NA
ATOM     15  C   UNL     1       3.307   2.476  20.684  0.00  0.00    +0.000 A 
ATOM     16  C   UNL     1       2.426   2.466  21.777  0.00  0.00    +0.000 A 
ATOM     17  C   UNL     1       1.109   2.898  21.577  0.00  0.00    +0.000 A 
ATOM     18  C   UNL     1       0.674   3.314  20.316  0.00  0.00    +0.000 A 
ATOM     19  C   UNL     1       1.540   3.333  19.216  0.00  0.00    +0.000 A 
ATOM     20  C   UNL     1       2.857   2.919  19.444  0.00  0.00    +0.000 A 
ENDBRANCH  11  12
ENDBRANCH   1  11
BRANCH   1  21
ATOM     21  O   UNL     1       5.306   5.218  16.037  0.00  0.00    +0.000 OA
BRANCH  21  22
ATOM     22  C   UNL     1       6.530   5.368  15.472  0.00  0.00    +0.000 C 
ATOM     23  O   UNL     1       7.486   5.920  15.986  0.00  0.00    +0.000 OA
BRANCH  22  24
ATOM     24  C   UNL     1       6.580   4.756  14.136  0.00  0.00    +0.000 A 
ATOM     25  C   UNL     1       5.687   3.782  13.686  0.00  0.00    +0.000 A 
ATOM     26  C   UNL     1       5.832   3.275  12.396  0.00  0.00    +0.000 A 
ATOM     27  C   UNL     1       6.864   3.759  11.604  0.00  0.00    +0.000 A 
ATOM     28  N   UNL     1       7.745   4.698  12.014  0.00  0.00    +0.000 NA
ATOM     29  C   UNL     1       7.583   5.176  13.272  0.00  0.00    +0.000 A 
ENDBRANCH  22  24
ENDBRANCH  21  22
ENDBRANCH   1  21
TORSDOF 7
ENDMDL
MODEL 3
REMARK VINA RESULT:      -8.7      2.177      6.099
REMARK  Name = 
REMARK  8 active torsions:
REMARK  status: ('A' for Active; 'I' for Inactive)
REMARK    1  A    between atoms: C_1  and  C_2
REMARK    2  A    between atoms: C_5  and  C_6
REMARK    3  A    between atoms: C_6  and  C_8
REMARK    4  A    between atoms: C_8  and  C_9
REMARK    5  A    between atoms: C_8  and  O_19
REMARK    6  A    between atoms: C_9  and  N_10
REMARK    7  A    between atoms: O_19  and  C_20
REMARK    8  A    between atoms: C_20  and  C_22
REMARK                            x       y       z     vdW  Elec       q    Type
REMARK                         _______ _______ _______ _____ _____    ______ ____
ROOT
ATOM      1  C   UNL     1       2.568   6.991  18.224  0.00  0.00    +0.000 C 
ENDROOT
BRANCH   1   2
ATOM      2  C   UNL     1       2.073   8.442  18.331  0.00  0.00    +0.000 C 
ATOM      3  O   UNL     1       2.051   9.191  17.352  0.00  0.00    +0.000 OA
BRANCH   2   8
ATOM      4  C   UNL     1      -0.814  10.221  23.020  0.00  0.00    +0.000 C 
ATOM      5  C   UNL     1       0.093   9.843  21.884  0.00  0.00    +0.000 A 
ATOM      6  C   UNL     1       0.184  10.646  20.746  0.00  0.00    +0.000 A 
ATOM      7  C   UNL     1       0.894  10.204  19.627  0.00  0.00    +0.000 A 
ATOM      8  C   UNL     1       1.521   8.950  19.628  0.00  0.00    +0.000 A 
ATOM      9  C   UNL     1       1.514   8.188  20.801  0.00  0.00    +0.000 A 
ATOM     10  C   UNL     1       0.799   8.634  21.920  0.00  0.00    +0.000 A 
ENDBRANCH   2   8
ENDBRANCH   1   2
BRANCH   1  11
ATOM     11  C   UNL     1       1.427   6.086  17.734  0.00  0.00    +0.000 C 
BRANCH  11  12
ATOM     12  N   UNL     1       1.599   4.690  18.080  0.00  0.00    +0.000 N 
ATOM     13  N   UNL     1       1.778   3.776  17.107  0.00  0.00    +0.000 NA
ATOM     14  N   UNL     1       2.124   2.634  17.689  0.00  0.00    +0.000 NA
ATOM     15  C   UNL     1       2.160   2.839  19.043  0.00  0.00    +0.000 A 
ATOM     16  C   UNL     1       2.514   1.977  20.094  0.00  0.00    +0.000 A 
ATOM     17  C   UNL     1       2.469   2.469  21.404  0.00  0.00    +0.000 A 
ATOM     18  C   UNL     1       2.066   3.780  21.665  0.00  0.00    +0.000 A 
ATOM     19  C   UNL     1       1.712   4.654  20.629  0.00  0.00    +0.000 A 
ATOM     20  C   UNL     1       1.787   4.149  19.326  0.00  0.00    +0.000 A 
ENDBRANCH  11  12
ENDBRANCH   1  11
BRANCH   1  21
ATOM     21  O   UNL     1       3.769   6.877  17.440  0.00  0.00    +0.000 OA
BRANCH  21  22
ATOM     22  C   UNL     1       4.689   5.969  17.854  0.00  0.00    +0.000 C 
ATOM     23  O   UNL     1       4.855   5.600  19.002  0.00  0.00    +0.000 OA
BRANCH  22  24
ATOM     24  C   UNL     1       5.476   5.453  16.723  0.00  0.00    +0.000 A 
ATOM     25  C   UNL     1       5.038   4.451  15.856  0.00  0.00    +0.000 A 
ATOM     26  C   UNL     1       5.872   4.043  14.817  0.00  0.00    +0.000 A 
ATOM     27  C   UNL     1       7.112   4.650  14.683  0.00  0.00    +0.000 A 
ATOM     28  N   UNL     1       7.564   5.619  15.509  0.00  0.00    +0.000 NA
ATOM     29  C   UNL     1       6.735   6.000  16.512  0.00  0.00    +0.000 A 
ENDBRANCH  22  24
ENDBRANCH  21  22
ENDBRANCH   1  21
TORSDOF 7
ENDMDL
MODEL 4
REMARK VINA RESULT:      -8.5      1.815      6.360
REMARK  Name = 
REMARK  8 active torsions:
REMARK  status: ('A' for Active; 'I' for Inactive)
REMARK    1  A    between atoms: C_1  and  C_2
REMARK    2  A    between atoms: C_5  and  C_6
REMARK    3  A    between atoms: C_6  and  C_8
REMARK    4  A    between atoms: C_8  and  C_9
REMARK    5  A    between atoms: C_8  and  O_19
REMARK    6  A    between atoms: C_9  and  N_10
REMARK    7  A    between atoms: O_19  and  C_20
REMARK    8  A    between atoms: C_20  and  C_22
REMARK                            x       y       z     vdW  Elec       q    Type
REMARK                         _______ _______ _______ _____ _____    ______ ____
ROOT
ATOM      1  C   UNL     1       5.489   4.400  17.478  0.00  0.00    +0.000 C 
ENDROOT
BRANCH   1   2
ATOM      2  C   UNL     1       5.138   5.337  18.644  0.00  0.00    +0.000 C 
ATOM      3  O   UNL     1       5.813   5.366  19.675  0.00  0.00    +0.000 OA
BRANCH   2   8
ATOM      4  C   UNL     1       1.167   9.545  18.685  0.00  0.00    +0.000 C 
ATOM      5  C   UNL     1       2.067   8.348  18.572  0.00  0.00    +0.000 A 
ATOM      6  C   UNL     1       2.119   7.396  19.592  0.00  0.00    +0.000 A 
ATOM      7  C   UNL     1       3.079   6.382  19.560  0.00  0.00    +0.000 A 
ATOM      8  C   UNL     1       4.003   6.305  18.509  0.00  0.00    +0.000 A 
ATOM      9  C   UNL     1       3.889   7.198  17.438  0.00  0.00    +0.000 A 
ATOM     10  C   UNL     1       2.927   8.216  17.475  0.00  0.00    +0.000 A 
ENDBRANCH   2   8
ENDBRANCH   1   2
BRANCH   1  11
ATOM     11  C   UNL     1       4.680   3.098  17.594  0.00  0.00    +0.000 C 
BRANCH  11  12
ATOM     12  N   UNL     1       3.319   3.296  18.049  0.00  0.00    +0.000 N 
ATOM     13  N   UNL     1       2.342   3.529  17.152  0.00  0.00    +0.000 NA
ATOM     14  N   UNL     1       1.182   3.455  17.795  0.00  0.00    +0.000 NA
ATOM     15  C   UNL     1       1.442   3.174  19.111  0.00  0.00    +0.000 A 
ATOM     16  C   UNL     1       0.573   2.946  20.191  0.00  0.00    +0.000 A 
ATOM     17  C   UNL     1       1.127   2.663  21.445  0.00  0.00    +0.000 A 
ATOM     18  C   UNL     1       2.512   2.624  21.626  0.00  0.00    +0.000 A 
ATOM     19  C   UNL     1       3.392   2.847  20.559  0.00  0.00    +0.000 A 
ATOM     20  C   UNL     1       2.816   3.104  19.310  0.00  0.00    +0.000 A 
ENDBRANCH  11  12
ENDBRANCH   1  11
BRANCH   1  21
ATOM     21  O   UNL     1       5.360   5.043  16.198  0.00  0.00    +0.000 OA
BRANCH  21  22
ATOM     22  C   UNL     1       6.510   5.354  15.547  0.00  0.00    +0.000 C 
ATOM     23  O   UNL     1       7.415   6.035  15.993  0.00  0.00    +0.000 OA
BRANCH  22  24
ATOM     24  C   UNL     1       6.548   4.745  14.209  0.00  0.00    +0.000 A 
ATOM     25  C   UNL     1       5.641   3.783  13.759  0.00  0.00    +0.000 A 
ATOM     26  C   UNL     1       5.776   3.277  12.468  0.00  0.00    +0.000 A 
ATOM     27  C   UNL     1       6.812   3.750  11.675  0.00  0.00    +0.000 A 
ATOM     28  N   UNL     1       7.706   4.676  12.084  0.00  0.00    +0.000 NA
ATOM     29  C   UNL     1       7.555   5.153  13.343  0.00  0.00    +0.000 A 
ENDBRANCH  22  24
ENDBRANCH  21  22
ENDBRANCH   1  21
TORSDOF 7
ENDMDL
MODEL 5
REMARK VINA RESULT:      -8.4      0.841      1.179
REMARK  Name = 
REMARK  8 active torsions:
REMARK  status: ('A' for Active; 'I' for Inactive)
REMARK    1  A    between atoms: C_1  and  C_2
REMARK    2  A    between atoms: C_5  and  C_6
REMARK    3  A    between atoms: C_6  and  C_8
REMARK    4  A    between atoms: C_8  and  C_9
REMARK    5  A    between atoms: C_8  and  O_19
REMARK    6  A    between atoms: C_9  and  N_10
REMARK    7  A    between atoms: O_19  and  C_20
REMARK    8  A    between atoms: C_20  and  C_22
REMARK                            x       y       z     vdW  Elec       q    Type
REMARK                         _______ _______ _______ _____ _____    ______ ____
ROOT
ATOM      1  C   UNL     1       4.993   4.401  17.299  0.00  0.00    +0.000 C 
ENDROOT
BRANCH   1   2
ATOM      2  C   UNL     1       4.839   5.374  18.479  0.00  0.00    +0.000 C 
ATOM      3  O   UNL     1       5.647   5.394  19.410  0.00  0.00    +0.000 OA
BRANCH   2   8
ATOM      4  C   UNL     1       1.056   9.722  18.990  0.00  0.00    +0.000 C 
ATOM      5  C   UNL     1       1.894   8.496  18.765  0.00  0.00    +0.000 A 
ATOM      6  C   UNL     1       2.004   7.516  19.754  0.00  0.00    +0.000 A 
ATOM      7  C   UNL     1       2.916   6.468  19.608  0.00  0.00    +0.000 A 
ATOM      8  C   UNL     1       3.735   6.386  18.473  0.00  0.00    +0.000 A 
ATOM      9  C   UNL     1       3.557   7.310  17.439  0.00  0.00    +0.000 A 
ATOM     10  C   UNL     1       2.642   8.361  17.590  0.00  0.00    +0.000 A 
ENDBRANCH   2   8
ENDBRANCH   1   2
BRANCH   1  11
ATOM     11  C   UNL     1       6.481   4.242  16.945  0.00  0.00    +0.000 C 
BRANCH  11  12
ATOM     12  N   UNL     1       6.821   4.728  15.624  0.00  0.00    +0.000 N 
ATOM     13  N   UNL     1       7.782   5.662  15.482  0.00  0.00    +0.000 NA
ATOM     14  N   UNL     1       8.047   5.769  14.185  0.00  0.00    +0.000 NA
ATOM     15  C   UNL     1       7.239   4.892  13.511  0.00  0.00    +0.000 A 
ATOM     16  C   UNL     1       7.159   4.582  12.144  0.00  0.00    +0.000 A 
ATOM     17  C   UNL     1       6.231   3.618  11.731  0.00  0.00    +0.000 A 
ATOM     18  C   UNL     1       5.390   2.990  12.653  0.00  0.00    +0.000 A 
ATOM     19  C   UNL     1       5.458   3.287  14.021  0.00  0.00    +0.000 A 
ATOM     20  C   UNL     1       6.409   4.235  14.413  0.00  0.00    +0.000 A 
ENDBRANCH  11  12
ENDBRANCH   1  11
BRANCH   1  21
ATOM     21  O   UNL     1       4.321   3.149  17.528  0.00  0.00    +0.000 OA
BRANCH  21  22
ATOM     22  C   UNL     1       2.968   3.185  17.613  0.00  0.00    +0.000 C 
ATOM     23  O   UNL     1       2.201   3.325  16.678  0.00  0.00    +0.000 OA
BRANCH  22  24
ATOM     24  C   UNL     1       2.515   3.015  19.002  0.00  0.00    +0.000 A 
ATOM     25  C   UNL     1       3.342   2.612  20.053  0.00  0.00    +0.000 A 
ATOM     26  C   UNL     1       2.801   2.486  21.331  0.00  0.00    +0.000 A 
ATOM     27  C   UNL     1       1.454   2.768  21.512  0.00  0.00    +0.000 A 
ATOM     28  N   UNL     1       0.630   3.157  20.515  0.00  0.00    +0.000 NA
ATOM     29  C   UNL     1       1.179   3.272  19.281  0.00  0.00    +0.000 A 
ENDBRANCH  22  24
ENDBRANCH  21  22
ENDBRANCH   1  21
TORSDOF 7
ENDMDL
MODEL 6
REMARK VINA RESULT:      -8.2      3.620      7.558
REMARK  Name = 
REMARK  8 active torsions:
REMARK  status: ('A' for Active; 'I' for Inactive)
REMARK    1  A    between atoms: C_1  and  C_2
REMARK    2  A    between atoms: C_5  and  C_6
REMARK    3  A    between atoms: C_6  and  C_8
REMARK    4  A    between atoms: C_8  and  C_9
REMARK    5  A    between atoms: C_8  and  O_19
REMARK    6  A    between atoms: C_9  and  N_10
REMARK    7  A    between atoms: O_19  and  C_20
REMARK    8  A    between atoms: C_20  and  C_22
REMARK                            x       y       z     vdW  Elec       q    Type
REMARK                         _______ _______ _______ _____ _____    ______ ____
ROOT
ATOM      1  C   UNL     1       6.799   5.958  18.228  0.00  0.00    +0.000 C 
ENDROOT
BRANCH   1   2
ATOM      2  C   UNL     1       7.402   4.871  17.325  0.00  0.00    +0.000 C 
ATOM      3  O   UNL     1       8.329   4.155  17.707  0.00  0.00    +0.000 OA
BRANCH   2   8
ATOM      4  C   UNL     1       5.716   3.276  12.025  0.00  0.00    +0.000 C 
ATOM      5  C   UNL     1       6.027   3.839  13.382  0.00  0.00    +0.000 A 
ATOM      6  C   UNL     1       7.107   4.705  13.564  0.00  0.00    +0.000 A 
ATOM      7  C   UNL     1       7.493   5.087  14.852  0.00  0.00    +0.000 A 
ATOM      8  C   UNL     1       6.807   4.606  15.976  0.00  0.00    +0.000 A 
ATOM      9  C   UNL     1       5.667   3.819  15.790  0.00  0.00    +0.000 A 
ATOM     10  C   UNL     1       5.284   3.436  14.498  0.00  0.00    +0.000 A 
ENDBRANCH   2   8
ENDBRANCH   1   2
BRANCH   1  11
ATOM     11  C   UNL     1       6.267   5.324  19.523  0.00  0.00    +0.000 C 
BRANCH  11  12
ATOM     12  N   UNL     1       5.233   4.334  19.306  0.00  0.00    +0.000 N 
ATOM     13  N   UNL     1       5.373   3.096  19.822  0.00  0.00    +0.000 NA
ATOM     14  N   UNL     1       4.213   2.467  19.670  0.00  0.00    +0.000 NA
ATOM     15  C   UNL     1       3.341   3.322  19.050  0.00  0.00    +0.000 A 
ATOM     16  C   UNL     1       1.988   3.166  18.708  0.00  0.00    +0.000 A 
ATOM     17  C   UNL     1       1.331   4.231  18.080  0.00  0.00    +0.000 A 
ATOM     18  C   UNL     1       2.008   5.417  17.784  0.00  0.00    +0.000 A 
ATOM     19  C   UNL     1       3.356   5.590  18.120  0.00  0.00    +0.000 A 
ATOM     20  C   UNL     1       3.986   4.522  18.769  0.00  0.00    +0.000 A 
ENDBRANCH  11  12
ENDBRANCH   1  11
BRANCH   1  21
ATOM     21  O   UNL     1       7.707   7.051  18.456  0.00  0.00    +0.000 OA
BRANCH  21  22
ATOM     22  C   UNL     1       7.598   8.123  17.632  0.00  0.00    +0.000 C 
ATOM     23  O   UNL     1       6.991   8.148  16.576  0.00  0.00    +0.000 OA
BRANCH  22  24
ATOM     24  C   UNL     1       8.302   9.292  18.180  0.00  0.00    +0.000 A 
ATOM     25  C   UNL     1       9.096   9.262  19.327  0.00  0.00    +0.000 A 
ATOM     26  C   UNL     1       9.717  10.435  19.752  0.00  0.00    +0.000 A 
ATOM     27  C   UNL     1       9.520  11.594  19.016  0.00  0.00    +0.000 A 
ATOM     28  N   UNL     1       8.754  11.655  17.905  0.00  0.00    +0.000 NA
ATOM     29  C   UNL     1       8.161  10.501  17.511  0.00  0.00    +0.000 A 
ENDBRANCH  22  24
ENDBRANCH  21  22
ENDBRANCH   1  21
TORSDOF 7
ENDMDL
MODEL 7
REMARK VINA RESULT:      -8.1      2.731      6.071
REMARK  Name = 
REMARK  8 active torsions:
REMARK  status: ('A' for Active; 'I' for Inactive)
REMARK    1  A    between atoms: C_1  and  C_2
REMARK    2  A    between atoms: C_5  and  C_6
REMARK    3  A    between atoms: C_6  and  C_8
REMARK    4  A    between atoms: C_8  and  C_9
REMARK    5  A    between atoms: C_8  and  O_19
REMARK    6  A    between atoms: C_9  and  N_10
REMARK    7  A    between atoms: O_19  and  C_20
REMARK    8  A    between atoms: C_20  and  C_22
REMARK                            x       y       z     vdW  Elec       q    Type
REMARK                         _______ _______ _______ _____ _____    ______ ____
ROOT
ATOM      1  C   UNL     1       4.619   5.141  16.923  0.00  0.00    +0.000 C 
ENDROOT
BRANCH   1   2
ATOM      2  C   UNL     1       6.144   4.984  16.818  0.00  0.00    +0.000 C 
ATOM      3  O   UNL     1       6.656   4.028  16.232  0.00  0.00    +0.000 OA
BRANCH   2   8
ATOM      4  C   UNL     1       8.914   9.484  19.174  0.00  0.00    +0.000 C 
ATOM      5  C   UNL     1       8.368   8.268  18.483  0.00  0.00    +0.000 A 
ATOM      6  C   UNL     1       7.756   8.373  17.232  0.00  0.00    +0.000 A 
ATOM      7  C   UNL     1       7.101   7.273  16.675  0.00  0.00    +0.000 A 
ATOM      8  C   UNL     1       7.044   6.052  17.361  0.00  0.00    +0.000 A 
ATOM      9  C   UNL     1       7.739   5.917  18.567  0.00  0.00    +0.000 A 
ATOM     10  C   UNL     1       8.394   7.024  19.124  0.00  0.00    +0.000 A 
ENDBRANCH   2   8
ENDBRANCH   1   2
BRANCH   1  11
ATOM     11  C   UNL     1       3.956   3.756  16.994  0.00  0.00    +0.000 C 
BRANCH  11  12
ATOM     12  N   UNL     1       3.896   3.206  18.332  0.00  0.00    +0.000 N 
ATOM     13  N   UNL     1       5.035   2.874  18.971  0.00  0.00    +0.000 NA
ATOM     14  N   UNL     1       4.722   2.608  20.234  0.00  0.00    +0.000 NA
ATOM     15  C   UNL     1       3.371   2.775  20.383  0.00  0.00    +0.000 A 
ATOM     16  C   UNL     1       2.551   2.668  21.519  0.00  0.00    +0.000 A 
ATOM     17  C   UNL     1       1.179   2.910  21.377  0.00  0.00    +0.000 A 
ATOM     18  C   UNL     1       0.632   3.234  20.133  0.00  0.00    +0.000 A 
ATOM     19  C   UNL     1       1.435   3.346  18.991  0.00  0.00    +0.000 A 
ATOM     20  C   UNL     1       2.806   3.124  19.161  0.00  0.00    +0.000 A 
ENDBRANCH  11  12
ENDBRANCH   1  11
BRANCH   1  21
ATOM     21  O   UNL     1       4.229   6.019  17.994  0.00  0.00    +0.000 OA
BRANCH  21  22
ATOM     22  C   UNL     1       3.518   7.124  17.655  0.00  0.00    +0.000 C 
ATOM     23  O   UNL     1       3.587   7.713  16.591  0.00  0.00    +0.000 OA
BRANCH  22  24
ATOM     24  C   UNL     1       2.617   7.535  18.742  0.00  0.00    +0.000 A 
ATOM     25  C   UNL     1       1.927   8.748  18.773  0.00  0.00    +0.000 A 
ATOM     26  C   UNL     1       1.097   9.028  19.857  0.00  0.00    +0.000 A 
ATOM     27  C   UNL     1       0.990   8.087  20.871  0.00  0.00    +0.000 A 
ATOM     28  N   UNL     1       1.648   6.907  20.871  0.00  0.00    +0.000 NA
ATOM     29  C   UNL     1       2.448   6.657  19.806  0.00  0.00    +0.000 A 
ENDBRANCH  22  24
ENDBRANCH  21  22
ENDBRANCH   1  21
TORSDOF 7
ENDMDL
MODEL 8
REMARK VINA RESULT:      -8.1      3.055      6.035
REMARK  Name = 
REMARK  8 active torsions:
REMARK  status: ('A' for Active; 'I' for Inactive)
REMARK    1  A    between atoms: C_1  and  C_2
REMARK    2  A    between atoms: C_5  and  C_6
REMARK    3  A    between atoms: C_6  and  C_8
REMARK    4  A    between atoms: C_8  and  C_9
REMARK    5  A    between atoms: C_8  and  O_19
REMARK    6  A    between atoms: C_9  and  N_10
REMARK    7  A    between atoms: O_19  and  C_20
REMARK    8  A    between atoms: C_20  and  C_22
REMARK                            x       y       z     vdW  Elec       q    Type
REMARK                         _______ _______ _______ _____ _____    ______ ____
ROOT
ATOM      1  C   UNL     1       4.834   5.156  17.066  0.00  0.00    +0.000 C 
ENDROOT
BRANCH   1   2
ATOM      2  C   UNL     1       6.362   5.316  17.084  0.00  0.00    +0.000 C 
ATOM      3  O   UNL     1       7.106   4.471  16.582  0.00  0.00    +0.000 OA
BRANCH   2   8
ATOM      4  C   UNL     1       9.450   9.860  18.899  0.00  0.00    +0.000 C 
ATOM      5  C   UNL     1       8.508   8.744  18.549  0.00  0.00    +0.000 A 
ATOM      6  C   UNL     1       8.591   7.511  19.199  0.00  0.00    +0.000 A 
ATOM      7  C   UNL     1       7.829   6.428  18.752  0.00  0.00    +0.000 A 
ATOM      8  C   UNL     1       6.977   6.560  17.647  0.00  0.00    +0.000 A 
ATOM      9  C   UNL     1       6.820   7.819  17.058  0.00  0.00    +0.000 A 
ATOM     10  C   UNL     1       7.587   8.902  17.507  0.00  0.00    +0.000 A 
ENDBRANCH   2   8
ENDBRANCH   1   2
BRANCH   1  11
ATOM     11  C   UNL     1       4.465   3.664  17.090  0.00  0.00    +0.000 C 
BRANCH  11  12
ATOM     12  N   UNL     1       4.192   3.152  18.417  0.00  0.00    +0.000 N 
ATOM     13  N   UNL     1       5.215   2.802  19.223  0.00  0.00    +0.000 NA
ATOM     14  N   UNL     1       4.713   2.579  20.432  0.00  0.00    +0.000 NA
ATOM     15  C   UNL     1       3.361   2.791  20.378  0.00  0.00    +0.000 A 
ATOM     16  C   UNL     1       2.382   2.739  21.384  0.00  0.00    +0.000 A 
ATOM     17  C   UNL     1       1.054   3.019  21.038  0.00  0.00    +0.000 A 
ATOM     18  C   UNL     1       0.704   3.325  19.721  0.00  0.00    +0.000 A 
ATOM     19  C   UNL     1       1.668   3.383  18.706  0.00  0.00    +0.000 A 
ATOM     20  C   UNL     1       2.992   3.124  19.079  0.00  0.00    +0.000 A 
ENDBRANCH  11  12
ENDBRANCH   1  11
BRANCH   1  21
ATOM     21  O   UNL     1       4.189   5.923  18.099  0.00  0.00    +0.000 OA
BRANCH  21  22
ATOM     22  C   UNL     1       3.441   6.983  17.701  0.00  0.00    +0.000 C 
ATOM     23  O   UNL     1       3.457   7.487  16.593  0.00  0.00    +0.000 OA
BRANCH  22  24
ATOM     24  C   UNL     1       2.569   7.459  18.786  0.00  0.00    +0.000 A 
ATOM     25  C   UNL     1       2.314   6.744  19.958  0.00  0.00    +0.000 A 
ATOM     26  C   UNL     1       1.471   7.297  20.919  0.00  0.00    +0.000 A 
ATOM     27  C   UNL     1       0.913   8.544  20.674  0.00  0.00    +0.000 A 
ATOM     28  N   UNL     1       1.139   9.257  19.549  0.00  0.00    +0.000 NA
ATOM     29  C   UNL     1       1.962   8.698  18.629  0.00  0.00    +0.000 A 
ENDBRANCH  22  24
ENDBRANCH  21  22
ENDBRANCH   1  21
TORSDOF 7
ENDMDL
MODEL 9
REMARK VINA RESULT:      -8.1      1.894      6.441
REMARK  Name = 
REMARK  8 active torsions:
REMARK  status: ('A' for Active; 'I' for Inactive)
REMARK    1  A    between atoms: C_1  and  C_2
REMARK    2  A    between atoms: C_5  and  C_6
REMARK    3  A    between atoms: C_6  and  C_8
REMARK    4  A    between atoms: C_8  and  C_9
REMARK    5  A    between atoms: C_8  and  O_19
REMARK    6  A    between atoms: C_9  and  N_10
REMARK    7  A    between atoms: O_19  and  C_20
REMARK    8  A    between atoms: C_20  and  C_22
REMARK                            x       y       z     vdW  Elec       q    Type
REMARK                         _______ _______ _______ _____ _____    ______ ____
ROOT
ATOM      1  C   UNL     1       5.556   4.210  17.377  0.00  0.00    +0.000 C 
ENDROOT
BRANCH   1   2
ATOM      2  C   UNL     1       5.350   5.086  18.623  0.00  0.00    +0.000 C 
ATOM      3  O   UNL     1       6.032   4.936  19.638  0.00  0.00    +0.000 OA
BRANCH   2   8
ATOM      4  C   UNL     1       1.127   8.976  17.906  0.00  0.00    +0.000 C 
ATOM      5  C   UNL     1       2.313   8.103  18.200  0.00  0.00    +0.000 A 
ATOM      6  C   UNL     1       3.382   8.027  17.305  0.00  0.00    +0.000 A 
ATOM      7  C   UNL     1       4.397   7.088  17.501  0.00  0.00    +0.000 A 
ATOM      8  C   UNL     1       4.358   6.208  18.592  0.00  0.00    +0.000 A 
ATOM      9  C   UNL     1       3.340   6.349  19.541  0.00  0.00    +0.000 A 
ATOM     10  C   UNL     1       2.322   7.291  19.340  0.00  0.00    +0.000 A 
ENDBRANCH   2   8
ENDBRANCH   1   2
BRANCH   1  11
ATOM     11  C   UNL     1       4.631   2.984  17.444  0.00  0.00    +0.000 C 
BRANCH  11  12
ATOM     12  N   UNL     1       3.309   3.277  17.957  0.00  0.00    +0.000 N 
ATOM     13  N   UNL     1       2.324   3.625  17.107  0.00  0.00    +0.000 NA
ATOM     14  N   UNL     1       1.186   3.624  17.791  0.00  0.00    +0.000 NA
ATOM     15  C   UNL     1       1.467   3.272  19.085  0.00  0.00    +0.000 A 
ATOM     16  C   UNL     1       0.621   3.077  20.189  0.00  0.00    +0.000 A 
ATOM     17  C   UNL     1       1.193   2.701  21.411  0.00  0.00    +0.000 A 
ATOM     18  C   UNL     1       2.575   2.540  21.536  0.00  0.00    +0.000 A 
ATOM     19  C   UNL     1       3.432   2.729  20.445  0.00  0.00    +0.000 A 
ATOM     20  C   UNL     1       2.837   3.080  19.229  0.00  0.00    +0.000 A 
ENDBRANCH  11  12
ENDBRANCH   1  11
BRANCH   1  21
ATOM     21  O   UNL     1       5.431   4.957  16.154  0.00  0.00    +0.000 OA
BRANCH  21  22
ATOM     22  C   UNL     1       6.583   5.317  15.533  0.00  0.00    +0.000 C 
ATOM     23  O   UNL     1       7.464   6.005  16.015  0.00  0.00    +0.000 OA
BRANCH  22  24
ATOM     24  C   UNL     1       6.657   4.752  14.177  0.00  0.00    +0.000 A 
ATOM     25  C   UNL     1       7.605   5.128  13.222  0.00  0.00    +0.000 A 
ATOM     26  C   UNL     1       7.580   4.522  11.968  0.00  0.00    +0.000 A 
ATOM     27  C   UNL     1       6.608   3.565  11.713  0.00  0.00    +0.000 A 
ATOM     28  N   UNL     1       5.677   3.184  12.614  0.00  0.00    +0.000 NA
ATOM     29  C   UNL     1       5.722   3.787  13.827  0.00  0.00    +0.000 A 
ENDBRANCH  22  24
ENDBRANCH  21  22
ENDBRANCH   1  21
TORSDOF 7
ENDMDL
