MODEL 1
REMARK VINA RESULT:      -8.9      0.000      0.000
REMARK  Name = 
REMARK  8 active torsions:
REMARK  status: ('A' for Active; 'I' for Inactive)
REMARK    1  A    between atoms: C_1  and  O_2
REMARK    2  A    between atoms: O_2  and  C_3
REMARK    3  A    between atoms: C_8  and  O_9
REMARK    4  A    between atoms: C_10  and  C_11
REMARK    5  A    between atoms: C_11  and  N_12
REMARK    6  A    between atoms: N_12  and  C_13
REMARK    7  A    between atoms: C_13  and  C_14
REMARK    8  A    between atoms: N_21  and  C_22
REMARK                            x       y       z     vdW  Elec       q    Type
REMARK                         _______ _______ _______ _____ _____    ______ ____
ROOT
ATOM      1  N   UNL     1       4.097   4.805  18.650  0.00  0.00    +0.000 N 
ATOM      2  C   UNL     1       3.590   6.121  18.711  0.00  0.00    +0.000 C 
ATOM      3  O   UNL     1       4.204   7.072  18.235  0.00  0.00    +0.000 OA
ATOM      4  N   UNL     1       2.391   6.271  19.389  0.00  0.00    +0.000 N 
ATOM      5  H   UNL     1       2.181   5.521  20.033  0.00  0.00    +0.000 HD
ENDROOT
BRANCH   4   6
ATOM      6  C   UNL     1       1.897   7.568  19.740  0.00  0.00    +0.000 A 
ATOM      7  C   UNL     1       1.472   7.895  21.032  0.00  0.00    +0.000 A 
ATOM      8  C   UNL     1       0.846   9.119  21.292  0.00  0.00    +0.000 A 
ATOM      9  C   UNL     1       0.649  10.029  20.258  0.00  0.00    +0.000 A 
ATOM     10  C   UNL     1       1.114   9.735  18.980  0.00  0.00    +0.000 A 
ATOM     11  C   UNL     1       1.754   8.516  18.725  0.00  0.00    +0.000 A 
ENDBRANCH   4   6
BRANCH   1  12
ATOM     12  C   UNL     1       5.482   4.747  18.128  0.00  0.00    +0.000 C 
BRANCH  12  19
ATOM     13  C   UNL     1       5.651   3.355  11.890  0.00  0.00    +0.000 A 
ATOM     14  C   UNL     1       6.979   3.729  11.774  0.00  0.00    +0.000 A 
ATOM     15  C   UNL     1       7.603   4.401  12.843  0.00  0.00    +0.000 A 
ATOM     16  C   UNL     1       6.964   4.666  14.057  0.00  0.00    +0.000 A 
ATOM     17  N   UNL     1       7.550   5.414  15.014  0.00  0.00    +0.000 NA
ATOM     18  C   UNL     1       6.923   5.547  16.209  0.00  0.00    +0.000 A 
ATOM     19  C   UNL     1       5.780   4.883  16.615  0.00  0.00    +0.000 A 
ATOM     20  C   UNL     1       5.128   4.197  15.568  0.00  0.00    +0.000 A 
ATOM     21  C   UNL     1       5.673   4.118  14.253  0.00  0.00    +0.000 A 
ATOM     22  C   UNL     1       5.025   3.504  13.137  0.00  0.00    +0.000 A 
BRANCH  13  24
ATOM     23  C   UNL     1       3.518   3.244  10.761  0.00  0.00    +0.000 C 
ATOM     24  O   UNL     1       4.878   2.828  10.885  0.00  0.00    +0.000 OA
ENDBRANCH  13  24
BRANCH  18  25
ATOM     25  O   UNL     1       7.550   6.402  17.057  0.00  0.00    +0.000 OA
ATOM     26  H   UNL     1       8.400   6.525  16.605  0.00  0.00    +0.000 HD
ENDBRANCH  18  25
ENDBRANCH  12  19
ENDBRANCH   1  12
BRANCH   1  27
ATOM     27  C   UNL     1       3.121   3.683  18.326  0.00  0.00    +0.000 C 
BRANCH  27  28
ATOM     28  C   UNL     1       2.593   2.660  19.408  0.00  0.00    +0.000 C 
ATOM     29  C   UNL     1       1.134   2.914  19.849  0.00  0.00    +0.000 C 
ATOM     30  C   UNL     1       1.112   2.825  21.355  0.00  0.00    +0.000 C 
ATOM     31  C   UNL     1       2.562   2.863  21.766  0.00  0.00    +0.000 C 
ATOM     32  O   UNL     1       3.384   2.706  20.605  0.00  0.00    +0.000 OA
ENDBRANCH  27  28
ENDBRANCH   1  27
TORSDOF 7
ENDMDL
MODEL 2
REMARK VINA RESULT:      -8.8      1.898      7.965
REMARK  Name = 
REMARK  8 active torsions:
REMARK  status: ('A' for Active; 'I' for Inactive)
REMARK    1  A    between atoms: C_1  and  O_2
REMARK    2  A    between atoms: O_2  and  C_3
REMARK    3  A    between atoms: C_8  and  O_9
REMARK    4  A    between atoms: C_10  and  C_11
REMARK    5  A    between atoms: C_11  and  N_12
REMARK    6  A    between atoms: N_12  and  C_13
REMARK    7  A    between atoms: C_13  and  C_14
REMARK    8  A    between atoms: N_21  and  C_22
REMARK                            x       y       z     vdW  Elec       q    Type
REMARK                         _______ _______ _______ _____ _____    ______ ____
ROOT
ATOM      1  N   UNL     1       4.558   5.271  17.452  0.00  0.00    +0.000 N 
ATOM      2  C   UNL     1       5.331   5.306  16.270  0.00  0.00    +0.000 C 
ATOM      3  O   UNL     1       5.967   6.304  15.944  0.00  0.00    +0.000 OA
ATOM      4  N   UNL     1       5.276   4.166  15.485  0.00  0.00    +0.000 N 
ATOM      5  H   UNL     1       4.465   3.586  15.649  0.00  0.00    +0.000 HD
ENDROOT
BRANCH   4   6
ATOM      6  C   UNL     1       5.803   4.159  14.153  0.00  0.00    +0.000 A 
ATOM      7  C   UNL     1       5.212   3.445  13.106  0.00  0.00    +0.000 A 
ATOM      8  C   UNL     1       5.849   3.335  11.864  0.00  0.00    +0.000 A 
ATOM      9  C   UNL     1       7.081   3.948  11.662  0.00  0.00    +0.000 A 
ATOM     10  C   UNL     1       7.653   4.704  12.681  0.00  0.00    +0.000 A 
ATOM     11  C   UNL     1       7.008   4.826  13.917  0.00  0.00    +0.000 A 
ENDBRANCH   4   6
BRANCH   1  12
ATOM     12  C   UNL     1       4.469   6.590  18.118  0.00  0.00    +0.000 C 
BRANCH  12  19
ATOM     13  C   UNL     1      -0.379  10.689  18.872  0.00  0.00    +0.000 A 
ATOM     14  C   UNL     1      -0.480  10.425  20.228  0.00  0.00    +0.000 A 
ATOM     15  C   UNL     1       0.238   9.344  20.775  0.00  0.00    +0.000 A 
ATOM     16  C   UNL     1       1.106   8.544  20.027  0.00  0.00    +0.000 A 
ATOM     17  N   UNL     1       1.686   7.447  20.555  0.00  0.00    +0.000 NA
ATOM     18  C   UNL     1       2.599   6.774  19.811  0.00  0.00    +0.000 A 
ATOM     19  C   UNL     1       3.111   7.166  18.588  0.00  0.00    +0.000 A 
ATOM     20  C   UNL     1       2.416   8.249  18.010  0.00  0.00    +0.000 A 
ATOM     21  C   UNL     1       1.362   8.928  18.689  0.00  0.00    +0.000 A 
ATOM     22  C   UNL     1       0.573   9.978  18.125  0.00  0.00    +0.000 A 
BRANCH  13  24
ATOM     23  C   UNL     1      -0.740  12.985  18.211  0.00  0.00    +0.000 C 
ATOM     24  O   UNL     1      -1.125  11.611  18.179  0.00  0.00    +0.000 OA
ENDBRANCH  13  24
BRANCH  18  25
ATOM     25  O   UNL     1       3.040   5.632  20.399  0.00  0.00    +0.000 OA
ATOM     26  H   UNL     1       3.972   5.851  20.558  0.00  0.00    +0.000 HD
ENDBRANCH  18  25
ENDBRANCH  12  19
ENDBRANCH   1  12
BRANCH   1  27
ATOM     27  C   UNL     1       4.603   4.003  18.291  0.00  0.00    +0.000 C 
BRANCH  27  28
ATOM     28  C   UNL     1       3.449   2.923  18.285  0.00  0.00    +0.000 C 
ATOM     29  C   UNL     1       2.117   3.435  17.693  0.00  0.00    +0.000 C 
ATOM     30  C   UNL     1       1.024   2.992  18.635  0.00  0.00    +0.000 C 
ATOM     31  C   UNL     1       1.744   2.549  19.882  0.00  0.00    +0.000 C 
ATOM     32  O   UNL     1       3.147   2.469  19.612  0.00  0.00    +0.000 OA
ENDBRANCH  27  28
ENDBRANCH   1  27
TORSDOF 7
ENDMDL
MODEL 3
REMARK VINA RESULT:      -8.7      2.086      7.983
REMARK  Name = 
REMARK  8 active torsions:
REMARK  status: ('A' for Active; 'I' for Inactive)
REMARK    1  A    between atoms: C_1  and  O_2
REMARK    2  A    between atoms: O_2  and  C_3
REMARK    3  A    between atoms: C_8  and  O_9
REMARK    4  A    between atoms: C_10  and  C_11
REMARK    5  A    between atoms: C_11  and  N_12
REMARK    6  A    between atoms: N_12  and  C_13
REMARK    7  A    between atoms: C_13  and  C_14
REMARK    8  A    between atoms: N_21  and  C_22
REMARK                            x       y       z     vdW  Elec       q    Type
REMARK                         _______ _______ _______ _____ _____    ______ ____
ROOT
ATOM      1  N   UNL     1       4.272   5.648  17.282  0.00  0.00    +0.000 N 
ATOM      2  C   UNL     1       5.231   5.562  16.250  0.00  0.00    +0.000 C 
ATOM      3  O   UNL     1       5.988   6.493  15.994  0.00  0.00    +0.000 OA
ATOM      4  N   UNL     1       5.220   4.386  15.518  0.00  0.00    +0.000 N 
ATOM      5  H   UNL     1       4.350   3.874  15.567  0.00  0.00    +0.000 HD
ENDROOT
BRANCH   4   6
ATOM      6  C   UNL     1       5.960   4.267  14.298  0.00  0.00    +0.000 A 
ATOM      7  C   UNL     1       7.144   4.970  14.055  0.00  0.00    +0.000 A 
ATOM      8  C   UNL     1       7.744   4.949  12.791  0.00  0.00    +0.000 A 
ATOM      9  C   UNL     1       7.164   4.214  11.762  0.00  0.00    +0.000 A 
ATOM     10  C   UNL     1       6.014   3.470  12.007  0.00  0.00    +0.000 A 
ATOM     11  C   UNL     1       5.423   3.480  13.275  0.00  0.00    +0.000 A 
ENDBRANCH   4   6
BRANCH   1  12
ATOM     12  C   UNL     1       4.176   7.006  17.865  0.00  0.00    +0.000 C 
BRANCH  12  19
ATOM     13  C   UNL     1      -0.800  10.946  18.640  0.00  0.00    +0.000 A 
ATOM     14  C   UNL     1      -0.783  10.804  20.018  0.00  0.00    +0.000 A 
ATOM     15  C   UNL     1       0.028   9.811  20.599  0.00  0.00    +0.000 A 
ATOM     16  C   UNL     1       0.875   8.983  19.857  0.00  0.00    +0.000 A 
ATOM     17  N   UNL     1       1.548   7.966  20.432  0.00  0.00    +0.000 NA
ATOM     18  C   UNL     1       2.434   7.266  19.681  0.00  0.00    +0.000 A 
ATOM     19  C   UNL     1       2.831   7.564  18.390  0.00  0.00    +0.000 A 
ATOM     20  C   UNL     1       2.040   8.558  17.775  0.00  0.00    +0.000 A 
ATOM     21  C   UNL     1       1.008   9.251  18.474  0.00  0.00    +0.000 A 
ATOM     22  C   UNL     1       0.127  10.210  17.885  0.00  0.00    +0.000 A 
BRANCH  13  24
ATOM     23  C   UNL     1      -2.622  11.184  17.073  0.00  0.00    +0.000 C 
ATOM     24  O   UNL     1      -1.641  11.766  17.931  0.00  0.00    +0.000 OA
ENDBRANCH  13  24
BRANCH  18  25
ATOM     25  O   UNL     1       2.975   6.203  20.330  0.00  0.00    +0.000 OA
ATOM     26  H   UNL     1       3.069   6.561  21.228  0.00  0.00    +0.000 HD
ENDBRANCH  18  25
ENDBRANCH  12  19
ENDBRANCH   1  12
BRANCH   1  27
ATOM     27  C   UNL     1       4.076   4.429  18.173  0.00  0.00    +0.000 C 
BRANCH  27  28
ATOM     28  C   UNL     1       2.945   3.354  17.928  0.00  0.00    +0.000 C 
ATOM     29  C   UNL     1       1.513   3.934  17.966  0.00  0.00    +0.000 C 
ATOM     30  C   UNL     1       0.687   2.998  18.815  0.00  0.00    +0.000 C 
ATOM     31  C   UNL     1       1.693   2.116  19.508  0.00  0.00    +0.000 C 
ATOM     32  O   UNL     1       2.981   2.317  18.919  0.00  0.00    +0.000 OA
ENDBRANCH  27  28
ENDBRANCH   1  27
TORSDOF 7
ENDMDL
MODEL 4
REMARK VINA RESULT:      -8.5      0.668      1.135
REMARK  Name = 
REMARK  8 active torsions:
REMARK  status: ('A' for Active; 'I' for Inactive)
REMARK    1  A    between atoms: C_1  and  O_2
REMARK    2  A    between atoms: O_2  and  C_3
REMARK    3  A    between atoms: C_8  and  O_9
REMARK    4  A    between atoms: C_10  and  C_11
REMARK    5  A    between atoms: C_11  and  N_12
REMARK    6  A    between atoms: N_12  and  C_13
REMARK    7  A    between atoms: C_13  and  C_14
REMARK    8  A    between atoms: N_21  and  C_22
REMARK                            x       y       z     vdW  Elec       q    Type
REMARK                         _______ _______ _______ _____ _____    ______ ____
ROOT
ATOM      1  N   UNL     1       3.491   5.402  18.676  0.00  0.00    +0.000 N 
ATOM      2  C   UNL     1       3.112   6.759  18.589  0.00  0.00    +0.000 C 
ATOM      3  O   UNL     1       3.852   7.604  18.096  0.00  0.00    +0.000 OA
ATOM      4  N   UNL     1       1.884   7.075  19.146  0.00  0.00    +0.000 N 
ATOM      5  H   UNL     1       1.551   6.407  19.826  0.00  0.00    +0.000 HD
ENDROOT
BRANCH   4   6
ATOM      6  C   UNL     1       1.493   8.438  19.349  0.00  0.00    +0.000 A 
ATOM      7  C   UNL     1       1.554   9.405  18.341  0.00  0.00    +0.000 A 
ATOM      8  C   UNL     1       1.317  10.754  18.626  0.00  0.00    +0.000 A 
ATOM      9  C   UNL     1       1.010  11.143  19.927  0.00  0.00    +0.000 A 
ATOM     10  C   UNL     1       0.896  10.182  20.927  0.00  0.00    +0.000 A 
ATOM     11  C   UNL     1       1.118   8.831  20.637  0.00  0.00    +0.000 A 
ENDBRANCH   4   6
BRANCH   1  12
ATOM     12  C   UNL     1       4.900   5.172  18.284  0.00  0.00    +0.000 C 
BRANCH  12  19
ATOM     13  C   UNL     1       5.787   3.396  12.206  0.00  0.00    +0.000 A 
ATOM     14  C   UNL     1       7.098   3.845  12.196  0.00  0.00    +0.000 A 
ATOM     15  C   UNL     1       7.569   4.622  13.272  0.00  0.00    +0.000 A 
ATOM     16  C   UNL     1       6.795   4.924  14.395  0.00  0.00    +0.000 A 
ATOM     17  N   UNL     1       7.236   5.767  15.350  0.00  0.00    +0.000 NA
ATOM     18  C   UNL     1       6.483   5.938  16.465  0.00  0.00    +0.000 A 
ATOM     19  C   UNL     1       5.344   5.229  16.802  0.00  0.00    +0.000 A 
ATOM     20  C   UNL     1       4.843   4.438  15.747  0.00  0.00    +0.000 A 
ATOM     21  C   UNL     1       5.524   4.309  14.500  0.00  0.00    +0.000 A 
ATOM     22  C   UNL     1       5.029   3.585  13.372  0.00  0.00    +0.000 A 
BRANCH  13  24
ATOM     23  C   UNL     1       3.790   3.073  10.887  0.00  0.00    +0.000 C 
ATOM     24  O   UNL     1       5.153   2.758  11.170  0.00  0.00    +0.000 OA
ENDBRANCH  13  24
BRANCH  18  25
ATOM     25  O   UNL     1       6.971   6.883  17.309  0.00  0.00    +0.000 OA
ATOM     26  H   UNL     1       6.418   6.736  18.094  0.00  0.00    +0.000 HD
ENDBRANCH  18  25
ENDBRANCH  12  19
ENDBRANCH   1  12
BRANCH   1  27
ATOM     27  C   UNL     1       2.438   4.350  18.358  0.00  0.00    +0.000 C 
BRANCH  27  28
ATOM     28  C   UNL     1       2.174   3.089  19.274  0.00  0.00    +0.000 C 
ATOM     29  C   UNL     1       0.909   3.209  20.152  0.00  0.00    +0.000 C 
ATOM     30  C   UNL     1       1.298   2.760  21.540  0.00  0.00    +0.000 C 
ATOM     31  C   UNL     1       2.805   2.719  21.524  0.00  0.00    +0.000 C 
ATOM     32  O   UNL     1       3.265   2.857  20.176  0.00  0.00    +0.000 OA
ENDBRANCH  27  28
ENDBRANCH   1  27
TORSDOF 7
ENDMDL
MODEL 5
REMARK VINA RESULT:      -8.5      0.987      1.573
REMARK  Name = 
REMARK  8 active torsions:
REMARK  status: ('A' for Active; 'I' for Inactive)
REMARK    1  A    between atoms: C_1  and  O_2
REMARK    2  A    between atoms: O_2  and  C_3
REMARK    3  A    between atoms: C_8  and  O_9
REMARK    4  A    between atoms: C_10  and  C_11
REMARK    5  A    between atoms: C_11  and  N_12
REMARK    6  A    between atoms: N_12  and  C_13
REMARK    7  A    between atoms: C_13  and  C_14
REMARK    8  A    between atoms: N_21  and  C_22
REMARK                            x       y       z     vdW  Elec       q    Type
REMARK                         _______ _______ _______ _____ _____    ______ ____
ROOT
ATOM      1  N   UNL     1       5.059   4.717  19.310  0.00  0.00    +0.000 N 
ATOM      2  C   UNL     1       4.198   5.779  18.960  0.00  0.00    +0.000 C 
ATOM      3  O   UNL     1       4.440   6.520  18.012  0.00  0.00    +0.000 OA
ATOM      4  N   UNL     1       3.102   5.960  19.788  0.00  0.00    +0.000 N 
ATOM      5  H   UNL     1       3.204   5.555  20.708  0.00  0.00    +0.000 HD
ENDROOT
BRANCH   4   6
ATOM      6  C   UNL     1       2.294   7.139  19.700  0.00  0.00    +0.000 A 
ATOM      7  C   UNL     1       2.207   7.915  18.539  0.00  0.00    +0.000 A 
ATOM      8  C   UNL     1       1.537   9.144  18.547  0.00  0.00    +0.000 A 
ATOM      9  C   UNL     1       0.942   9.600  19.719  0.00  0.00    +0.000 A 
ATOM     10  C   UNL     1       0.979   8.812  20.866  0.00  0.00    +0.000 A 
ATOM     11  C   UNL     1       1.636   7.576  20.852  0.00  0.00    +0.000 A 
ENDBRANCH   4   6
BRANCH   1  12
ATOM     12  C   UNL     1       6.323   4.725  18.539  0.00  0.00    +0.000 C 
BRANCH  12  19
ATOM     13  C   UNL     1       5.864   3.302  12.322  0.00  0.00    +0.000 A 
ATOM     14  C   UNL     1       7.008   4.017  12.006  0.00  0.00    +0.000 A 
ATOM     15  C   UNL     1       7.589   4.854  12.978  0.00  0.00    +0.000 A 
ATOM     16  C   UNL     1       7.104   4.962  14.284  0.00  0.00    +0.000 A 
ATOM     17  N   UNL     1       7.612   5.860  15.152  0.00  0.00    +0.000 NA
ATOM     18  C   UNL     1       7.170   5.844  16.435  0.00  0.00    +0.000 A 
ATOM     19  C   UNL     1       6.328   4.905  17.001  0.00  0.00    +0.000 A 
ATOM     20  C   UNL     1       5.728   4.047  16.056  0.00  0.00    +0.000 A 
ATOM     21  C   UNL     1       6.057   4.091  14.669  0.00  0.00    +0.000 A 
ATOM     22  C   UNL     1       5.429   3.303  13.656  0.00  0.00    +0.000 A 
BRANCH  13  24
ATOM     23  C   UNL     1       3.842   3.063  11.023  0.00  0.00    +0.000 C 
ATOM     24  O   UNL     1       5.113   2.565  11.441  0.00  0.00    +0.000 OA
ENDBRANCH  13  24
BRANCH  18  25
ATOM     25  O   UNL     1       7.671   6.854  17.192  0.00  0.00    +0.000 OA
ATOM     26  H   UNL     1       7.921   6.376  17.999  0.00  0.00    +0.000 HD
ENDBRANCH  18  25
ENDBRANCH  12  19
ENDBRANCH   1  12
BRANCH   1  27
ATOM     27  C   UNL     1       4.425   3.391  19.707  0.00  0.00    +0.000 C 
BRANCH  27  28
ATOM     28  C   UNL     1       3.162   2.786  18.976  0.00  0.00    +0.000 C 
ATOM     29  C   UNL     1       2.847   3.452  17.618  0.00  0.00    +0.000 C 
ATOM     30  C   UNL     1       1.361   3.716  17.596  0.00  0.00    +0.000 C 
ATOM     31  C   UNL     1       0.914   3.523  19.023  0.00  0.00    +0.000 C 
ATOM     32  O   UNL     1       1.977   2.926  19.772  0.00  0.00    +0.000 OA
ENDBRANCH  27  28
ENDBRANCH   1  27
TORSDOF 7
ENDMDL
MODEL 6
REMARK VINA RESULT:      -8.4      3.656      6.790
REMARK  Name = 
REMARK  8 active torsions:
REMARK  status: ('A' for Active; 'I' for Inactive)
REMARK    1  A    between atoms: C_1  and  O_2
REMARK    2  A    between atoms: O_2  and  C_3
REMARK    3  A    between atoms: C_8  and  O_9
REMARK    4  A    between atoms: C_10  and  C_11
REMARK    5  A    between atoms: C_11  and  N_12
REMARK    6  A    between atoms: N_12  and  C_13
REMARK    7  A    between atoms: C_13  and  C_14
REMARK    8  A    between atoms: N_21  and  C_22
REMARK                            x       y       z     vdW  Elec       q    Type
REMARK                         _______ _______ _______ _____ _____    ______ ____
ROOT
ATOM      1  N   UNL     1       1.050   9.935  18.520  0.00  0.00    +0.000 N 
ATOM      2  C   UNL     1      -0.324  10.250  18.604  0.00  0.00    +0.000 C 
ATOM      3  O   UNL     1      -1.046   9.762  19.468  0.00  0.00    +0.000 OA
ATOM      4  N   UNL     1      -0.806  11.096  17.619  0.00  0.00    +0.000 N 
ATOM      5  H   UNL     1      -0.238  11.130  16.784  0.00  0.00    +0.000 HD
ENDROOT
BRANCH   4   6
ATOM      6  C   UNL     1      -2.212  11.296  17.438  0.00  0.00    +0.000 A 
ATOM      7  C   UNL     1      -3.051  11.764  18.455  0.00  0.00    +0.000 A 
ATOM      8  C   UNL     1      -4.439  11.789  18.285  0.00  0.00    +0.000 A 
ATOM      9  C   UNL     1      -4.998  11.351  17.088  0.00  0.00    +0.000 A 
ATOM     10  C   UNL     1      -4.170  10.932  16.051  0.00  0.00    +0.000 A 
ATOM     11  C   UNL     1      -2.780  10.922  16.217  0.00  0.00    +0.000 A 
ENDBRANCH   4   6
BRANCH   1  12
ATOM     12  C   UNL     1       1.448   8.851  19.446  0.00  0.00    +0.000 C 
BRANCH  12  19
ATOM     13  C   UNL     1       5.372   5.402  15.759  0.00  0.00    +0.000 A 
ATOM     14  C   UNL     1       4.908   4.202  16.273  0.00  0.00    +0.000 A 
ATOM     15  C   UNL     1       4.070   4.214  17.405  0.00  0.00    +0.000 A 
ATOM     16  C   UNL     1       3.626   5.389  18.017  0.00  0.00    +0.000 A 
ATOM     17  N   UNL     1       2.924   5.363  19.167  0.00  0.00    +0.000 NA
ATOM     18  C   UNL     1       2.432   6.530  19.654  0.00  0.00    +0.000 A 
ATOM     19  C   UNL     1       2.462   7.760  19.023  0.00  0.00    +0.000 A 
ATOM     20  C   UNL     1       3.291   7.785  17.882  0.00  0.00    +0.000 A 
ATOM     21  C   UNL     1       3.938   6.616  17.384  0.00  0.00    +0.000 A 
ATOM     22  C   UNL     1       4.847   6.595  16.281  0.00  0.00    +0.000 A 
BRANCH  13  24
ATOM     23  C   UNL     1       6.608   4.412  13.936  0.00  0.00    +0.000 C 
ATOM     24  O   UNL     1       6.301   5.538  14.758  0.00  0.00    +0.000 OA
ENDBRANCH  13  24
BRANCH  18  25
ATOM     25  O   UNL     1       1.832   6.401  20.866  0.00  0.00    +0.000 OA
ATOM     26  H   UNL     1       1.723   7.332  21.120  0.00  0.00    +0.000 HD
ENDBRANCH  18  25
ENDBRANCH  12  19
ENDBRANCH   1  12
BRANCH   1  27
ATOM     27  C   UNL     1       2.021  11.069  18.223  0.00  0.00    +0.000 C 
BRANCH  27  28
ATOM     28  C   UNL     1       1.984  12.456  18.978  0.00  0.00    +0.000 C 
ATOM     29  C   UNL     1       1.473  12.363  20.433  0.00  0.00    +0.000 C 
ATOM     30  C   UNL     1       0.480  13.484  20.619  0.00  0.00    +0.000 C 
ATOM     31  C   UNL     1       0.186  13.975  19.225  0.00  0.00    +0.000 C 
ATOM     32  O   UNL     1       1.123  13.393  18.314  0.00  0.00    +0.000 OA
ENDBRANCH  27  28
ENDBRANCH   1  27
TORSDOF 7
ENDMDL
MODEL 7
REMARK VINA RESULT:      -8.4      1.047      1.166
REMARK  Name = 
REMARK  8 active torsions:
REMARK  status: ('A' for Active; 'I' for Inactive)
REMARK    1  A    between atoms: C_1  and  O_2
REMARK    2  A    between atoms: O_2  and  C_3
REMARK    3  A    between atoms: C_8  and  O_9
REMARK    4  A    between atoms: C_10  and  C_11
REMARK    5  A    between atoms: C_11  and  N_12
REMARK    6  A    between atoms: N_12  and  C_13
REMARK    7  A    between atoms: C_13  and  C_14
REMARK    8  A    between atoms: N_21  and  C_22
REMARK                            x       y       z     vdW  Elec       q    Type
REMARK                         _______ _______ _______ _____ _____    ______ ____
ROOT
ATOM      1  N   UNL     1       4.709   5.239  19.031  0.00  0.00    +0.000 N 
ATOM      2  C   UNL     1       3.951   6.371  18.658  0.00  0.00    +0.000 C 
ATOM      3  O   UNL     1       4.308   7.116  17.751  0.00  0.00    +0.000 OA
ATOM      4  N   UNL     1       2.818   6.609  19.419  0.00  0.00    +0.000 N 
ATOM      5  H   UNL     1       2.829   6.174  20.330  0.00  0.00    +0.000 HD
ENDROOT
BRANCH   4   6
ATOM      6  C   UNL     1       2.104   7.846  19.314  0.00  0.00    +0.000 A 
ATOM      7  C   UNL     1       1.511   8.477  20.412  0.00  0.00    +0.000 A 
ATOM      8  C   UNL     1       0.688   9.595  20.239  0.00  0.00    +0.000 A 
ATOM      9  C   UNL     1       0.459  10.094  18.960  0.00  0.00    +0.000 A 
ATOM     10  C   UNL     1       1.085   9.505  17.866  0.00  0.00    +0.000 A 
ATOM     11  C   UNL     1       1.921   8.396  18.043  0.00  0.00    +0.000 A 
ENDBRANCH   4   6
BRANCH   1  12
ATOM     12  C   UNL     1       6.019   5.175  18.344  0.00  0.00    +0.000 C 
BRANCH  12  19
ATOM     13  C   UNL     1       5.597   3.270  12.255  0.00  0.00    +0.000 A 
ATOM     14  C   UNL     1       6.858   3.753  11.946  0.00  0.00    +0.000 A 
ATOM     15  C   UNL     1       7.531   4.569  12.876  0.00  0.00    +0.000 A 
ATOM     16  C   UNL     1       7.015   4.879  14.137  0.00  0.00    +0.000 A 
ATOM     17  N   UNL     1       7.630   5.757  14.955  0.00  0.00    +0.000 NA
ATOM     18  C   UNL     1       7.137   5.935  16.206  0.00  0.00    +0.000 A 
ATOM     19  C   UNL     1       6.123   5.206  16.799  0.00  0.00    +0.000 A 
ATOM     20  C   UNL     1       5.426   4.376  15.897  0.00  0.00    +0.000 A 
ATOM     21  C   UNL     1       5.819   4.234  14.533  0.00  0.00    +0.000 A 
ATOM     22  C   UNL     1       5.109   3.469  13.556  0.00  0.00    +0.000 A 
BRANCH  13  24
ATOM     23  C   UNL     1       3.569   3.215  10.943  0.00  0.00    +0.000 C 
ATOM     24  O   UNL     1       4.769   2.589  11.397  0.00  0.00    +0.000 OA
ENDBRANCH  13  24
BRANCH  18  25
ATOM     25  O   UNL     1       7.769   6.914  16.903  0.00  0.00    +0.000 OA
ATOM     26  H   UNL     1       8.651   6.893  16.497  0.00  0.00    +0.000 HD
ENDBRANCH  18  25
ENDBRANCH  12  19
ENDBRANCH   1  12
BRANCH   1  27
ATOM     27  C   UNL     1       3.958   3.954  19.345  0.00  0.00    +0.000 C 
BRANCH  27  28
ATOM     28  C   UNL     1       2.824   3.368  18.413  0.00  0.00    +0.000 C 
ATOM     29  C   UNL     1       1.393   3.741  18.860  0.00  0.00    +0.000 C 
ATOM     30  C   UNL     1       0.572   2.476  18.794  0.00  0.00    +0.000 C 
ATOM     31  C   UNL     1       1.582   1.367  18.648  0.00  0.00    +0.000 C 
ATOM     32  O   UNL     1       2.866   1.935  18.371  0.00  0.00    +0.000 OA
ENDBRANCH  27  28
ENDBRANCH   1  27
TORSDOF 7
ENDMDL
MODEL 8
REMARK VINA RESULT:      -8.3      3.719      6.806
REMARK  Name = 
REMARK  8 active torsions:
REMARK  status: ('A' for Active; 'I' for Inactive)
REMARK    1  A    between atoms: C_1  and  O_2
REMARK    2  A    between atoms: O_2  and  C_3
REMARK    3  A    between atoms: C_8  and  O_9
REMARK    4  A    between atoms: C_10  and  C_11
REMARK    5  A    between atoms: C_11  and  N_12
REMARK    6  A    between atoms: N_12  and  C_13
REMARK    7  A    between atoms: C_13  and  C_14
REMARK    8  A    between atoms: N_21  and  C_22
REMARK                            x       y       z     vdW  Elec       q    Type
REMARK                         _______ _______ _______ _____ _____    ______ ____
ROOT
ATOM      1  N   UNL     1       1.064   9.913  18.545  0.00  0.00    +0.000 N 
ATOM      2  C   UNL     1      -0.310  10.229  18.618  0.00  0.00    +0.000 C 
ATOM      3  O   UNL     1      -1.042   9.728  19.466  0.00  0.00    +0.000 OA
ATOM      4  N   UNL     1      -0.779  11.090  17.641  0.00  0.00    +0.000 N 
ATOM      5  H   UNL     1      -0.201  11.136  16.813  0.00  0.00    +0.000 HD
ENDROOT
BRANCH   4   6
ATOM      6  C   UNL     1      -2.183  11.295  17.447  0.00  0.00    +0.000 A 
ATOM      7  C   UNL     1      -3.033  11.747  18.462  0.00  0.00    +0.000 A 
ATOM      8  C   UNL     1      -4.419  11.777  18.275  0.00  0.00    +0.000 A 
ATOM      9  C   UNL     1      -4.964  11.360  17.065  0.00  0.00    +0.000 A 
ATOM     10  C   UNL     1      -4.125  10.957  16.031  0.00  0.00    +0.000 A 
ATOM     11  C   UNL     1      -2.737  10.942  16.213  0.00  0.00    +0.000 A 
ENDBRANCH   4   6
BRANCH   1  12
ATOM     12  C   UNL     1       1.450   8.814  19.460  0.00  0.00    +0.000 C 
BRANCH  12  19
ATOM     13  C   UNL     1       5.389   5.397  15.759  0.00  0.00    +0.000 A 
ATOM     14  C   UNL     1       4.926   4.193  16.263  0.00  0.00    +0.000 A 
ATOM     15  C   UNL     1       4.085   4.196  17.393  0.00  0.00    +0.000 A 
ATOM     16  C   UNL     1       3.638   5.366  18.012  0.00  0.00    +0.000 A 
ATOM     17  N   UNL     1       2.932   5.330  19.160  0.00  0.00    +0.000 NA
ATOM     18  C   UNL     1       2.437   6.493  19.654  0.00  0.00    +0.000 A 
ATOM     19  C   UNL     1       2.467   7.727  19.031  0.00  0.00    +0.000 A 
ATOM     20  C   UNL     1       3.299   7.762  17.894  0.00  0.00    +0.000 A 
ATOM     21  C   UNL     1       3.949   6.598  17.388  0.00  0.00    +0.000 A 
ATOM     22  C   UNL     1       4.862   6.586  16.289  0.00  0.00    +0.000 A 
BRANCH  13  24
ATOM     23  C   UNL     1       6.600   4.436  13.904  0.00  0.00    +0.000 C 
ATOM     24  O   UNL     1       6.321   5.541  14.762  0.00  0.00    +0.000 OA
ENDBRANCH  13  24
BRANCH  18  25
ATOM     25  O   UNL     1       1.834   6.354  20.862  0.00  0.00    +0.000 OA
ATOM     26  H   UNL     1       1.508   7.256  21.013  0.00  0.00    +0.000 HD
ENDBRANCH  18  25
ENDBRANCH  12  19
ENDBRANCH   1  12
BRANCH   1  27
ATOM     27  C   UNL     1       2.040  11.049  18.277  0.00  0.00    +0.000 C 
BRANCH  27  28
ATOM     28  C   UNL     1       1.813  12.523  18.799  0.00  0.00    +0.000 C 
ATOM     29  C   UNL     1       2.902  13.521  18.349  0.00  0.00    +0.000 C 
ATOM     30  C   UNL     1       3.287  14.325  19.567  0.00  0.00    +0.000 C 
ATOM     31  C   UNL     1       2.688  13.576  20.729  0.00  0.00    +0.000 C 
ATOM     32  O   UNL     1       1.793  12.575  20.233  0.00  0.00    +0.000 OA
ENDBRANCH  27  28
ENDBRANCH   1  27
TORSDOF 7
ENDMDL
MODEL 9
REMARK VINA RESULT:      -8.2      1.789      7.806
REMARK  Name = 
REMARK  8 active torsions:
REMARK  status: ('A' for Active; 'I' for Inactive)
REMARK    1  A    between atoms: C_1  and  O_2
REMARK    2  A    between atoms: O_2  and  C_3
REMARK    3  A    between atoms: C_8  and  O_9
REMARK    4  A    between atoms: C_10  and  C_11
REMARK    5  A    between atoms: C_11  and  N_12
REMARK    6  A    between atoms: N_12  and  C_13
REMARK    7  A    between atoms: C_13  and  C_14
REMARK    8  A    between atoms: N_21  and  C_22
REMARK                            x       y       z     vdW  Elec       q    Type
REMARK                         _______ _______ _______ _____ _____    ______ ____
ROOT
ATOM      1  N   UNL     1       3.887   4.209  17.486  0.00  0.00    +0.000 N 
ATOM      2  C   UNL     1       5.031   4.265  16.661  0.00  0.00    +0.000 C 
ATOM      3  O   UNL     1       6.094   4.730  17.062  0.00  0.00    +0.000 OA
ATOM      4  N   UNL     1       4.856   3.816  15.362  0.00  0.00    +0.000 N 
ATOM      5  H   UNL     1       3.896   3.814  15.049  0.00  0.00    +0.000 HD
ENDROOT
BRANCH   4   6
ATOM      6  C   UNL     1       5.851   4.048  14.358  0.00  0.00    +0.000 A 
ATOM      7  C   UNL     1       6.896   4.963  14.522  0.00  0.00    +0.000 A 
ATOM      8  C   UNL     1       7.748   5.276  13.456  0.00  0.00    +0.000 A 
ATOM      9  C   UNL     1       7.562   4.666  12.220  0.00  0.00    +0.000 A 
ATOM     10  C   UNL     1       6.557   3.717  12.061  0.00  0.00    +0.000 A 
ATOM     11  C   UNL     1       5.715   3.394  13.132  0.00  0.00    +0.000 A 
ENDBRANCH   4   6
BRANCH   1  12
ATOM     12  C   UNL     1       4.073   4.916  18.774  0.00  0.00    +0.000 C 
BRANCH  12  19
ATOM     13  C   UNL     1       0.057   9.354  21.023  0.00  0.00    +0.000 A 
ATOM     14  C   UNL     1      -0.035   9.989  19.795  0.00  0.00    +0.000 A 
ATOM     15  C   UNL     1       0.846   9.621  18.760  0.00  0.00    +0.000 A 
ATOM     16  C   UNL     1       1.787   8.595  18.884  0.00  0.00    +0.000 A 
ATOM     17  N   UNL     1       2.693   8.348  17.917  0.00  0.00    +0.000 NA
ATOM     18  C   UNL     1       3.510   7.274  18.051  0.00  0.00    +0.000 A 
ATOM     19  C   UNL     1       3.433   6.302  19.032  0.00  0.00    +0.000 A 
ATOM     20  C   UNL     1       2.558   6.637  20.086  0.00  0.00    +0.000 A 
ATOM     21  C   UNL     1       1.756   7.816  20.066  0.00  0.00    +0.000 A 
ATOM     22  C   UNL     1       0.910   8.245  21.135  0.00  0.00    +0.000 A 
BRANCH  13  24
ATOM     23  C   UNL     1      -0.664  11.073  22.559  0.00  0.00    +0.000 C 
ATOM     24  O   UNL     1      -0.632   9.704  22.157  0.00  0.00    +0.000 OA
ENDBRANCH  13  24
BRANCH  18  25
ATOM     25  O   UNL     1       4.448   7.181  17.073  0.00  0.00    +0.000 OA
ATOM     26  H   UNL     1       4.195   7.924  16.501  0.00  0.00    +0.000 HD
ENDBRANCH  18  25
ENDBRANCH  12  19
ENDBRANCH   1  12
BRANCH   1  27
ATOM     27  C   UNL     1       3.036   2.948  17.433  0.00  0.00    +0.000 C 
BRANCH  27  28
ATOM     28  C   UNL     1       2.256   2.382  18.685  0.00  0.00    +0.000 C 
ATOM     29  C   UNL     1       1.118   3.300  19.181  0.00  0.00    +0.000 C 
ATOM     30  C   UNL     1       1.246   3.382  20.683  0.00  0.00    +0.000 C 
ATOM     31  C   UNL     1       2.608   2.811  20.985  0.00  0.00    +0.000 C 
ATOM     32  O   UNL     1       3.130   2.190  19.807  0.00  0.00    +0.000 OA
ENDBRANCH  27  28
ENDBRANCH   1  27
TORSDOF 7
ENDMDL
