MODEL 1
REMARK VINA RESULT:      -8.3      0.000      0.000
REMARK  Name = 
REMARK  6 active torsions:
REMARK  status: ('A' for Active; 'I' for Inactive)
REMARK    1  A    between atoms: C_1  and  C_2
REMARK    2  A    between atoms: C_2  and  N_3
REMARK    3  A    between atoms: N_6  and  O_7
REMARK    4  A    between atoms: C_12  and  C_13
REMARK    5  A    between atoms: N_15  and  C_16
REMARK    6  A    between atoms: C_16  and  C_17
REMARK                            x       y       z     vdW  Elec       q    Type
REMARK                         _______ _______ _______ _____ _____    ______ ____
ROOT
ATOM      1  N   UNL     1      -0.049  11.496  19.888  0.00  0.00    +0.000 N 
ATOM      2  C   UNL     1      -0.573  12.049  21.054  0.00  0.00    +0.000 A 
ATOM      3  O   UNL     1      -1.061  13.183  21.113  0.00  0.00    +0.000 OA
ATOM      4  N   UNL     1      -0.523  11.250  22.184  0.00  0.00    +0.000 N 
ATOM      5  C   UNL     1       0.001   9.987  22.304  0.00  0.00    +0.000 A 
ATOM      6  O   UNL     1       0.032   9.314  23.328  0.00  0.00    +0.000 OA
ATOM      7  C   UNL     1       0.578   9.445  21.059  0.00  0.00    +0.000 A 
ATOM      8  C   UNL     1       1.140   8.161  21.089  0.00  0.00    +0.000 A 
ATOM      9  C   UNL     1       1.760   7.637  19.956  0.00  0.00    +0.000 A 
ATOM     10  C   UNL     1       1.806   8.411  18.795  0.00  0.00    +0.000 A 
ATOM     11  C   UNL     1       1.197   9.673  18.755  0.00  0.00    +0.000 A 
ATOM     12  C   UNL     1       0.572  10.212  19.889  0.00  0.00    +0.000 A 
ENDROOT
BRANCH   9  13
ATOM     13  C   UNL     1       2.341   6.314  19.987  0.00  0.00    +0.000 A 
ATOM     14  C   UNL     1       3.421   5.896  19.245  0.00  0.00    +0.000 A 
ATOM     15  N   UNL     1       3.614   4.609  19.650  0.00  0.00    +0.000 N 
ATOM     16  N   UNL     1       2.688   4.235  20.554  0.00  0.00    +0.000 NA
ATOM     17  N   UNL     1       1.913   5.289  20.786  0.00  0.00    +0.000 NA
BRANCH  15  18
ATOM     18  C   UNL     1       4.694   3.717  19.265  0.00  0.00    +0.000 C 
BRANCH  18  19
ATOM     19  C   UNL     1       5.352   4.232  18.008  0.00  0.00    +0.000 A 
ATOM     20  C   UNL     1       4.785   3.945  16.759  0.00  0.00    +0.000 A 
ATOM     21  C   UNL     1       5.496   4.202  15.588  0.00  0.00    +0.000 A 
ATOM     22  C   UNL     1       6.762   4.777  15.653  0.00  0.00    +0.000 A 
ATOM     23  C   UNL     1       7.304   5.136  16.886  0.00  0.00    +0.000 A 
ATOM     24  C   UNL     1       6.603   4.865  18.062  0.00  0.00    +0.000 A 
ENDBRANCH  18  19
ENDBRANCH  15  18
ENDBRANCH   9  13
BRANCH   1  26
ATOM     25  C   UNL     1      -1.496  12.065  17.931  0.00  0.00    +0.000 C 
ATOM     26  C   UNL     1      -0.170  12.269  18.646  0.00  0.00    +0.000 C 
ENDBRANCH   1  26
BRANCH   4  27
ATOM     27  O   UNL     1      -1.050  11.810  23.370  0.00  0.00    +0.000 OA
ATOM     28  H   UNL     1      -1.258  12.726  23.084  0.00  0.00    +0.000 HD
ENDBRANCH   4  27
TORSDOF 5
ENDMDL
MODEL 2
REMARK VINA RESULT:      -8.0      0.677      1.308
REMARK  Name = 
REMARK  6 active torsions:
REMARK  status: ('A' for Active; 'I' for Inactive)
REMARK    1  A    between atoms: C_1  and  C_2
REMARK    2  A    between atoms: C_2  and  N_3
REMARK    3  A    between atoms: N_6  and  O_7
REMARK    4  A    between atoms: C_12  and  C_13
REMARK    5  A    between atoms: N_15  and  C_16
REMARK    6  A    between atoms: C_16  and  C_17
REMARK                            x       y       z     vdW  Elec       q    Type
REMARK                         _______ _______ _______ _____ _____    ______ ____
ROOT
ATOM      1  N   UNL     1      -0.040  11.611  19.896  0.00  0.00    +0.000 N 
ATOM      2  C   UNL     1      -0.581  12.141  21.065  0.00  0.00    +0.000 A 
ATOM      3  O   UNL     1      -1.072  13.273  21.138  0.00  0.00    +0.000 OA
ATOM      4  N   UNL     1      -0.542  11.322  22.181  0.00  0.00    +0.000 N 
ATOM      5  C   UNL     1      -0.017  10.059  22.286  0.00  0.00    +0.000 A 
ATOM      6  O   UNL     1       0.003   9.368  23.298  0.00  0.00    +0.000 OA
ATOM      7  C   UNL     1       0.578   9.541  21.039  0.00  0.00    +0.000 A 
ATOM      8  C   UNL     1       1.143   8.258  21.053  0.00  0.00    +0.000 A 
ATOM      9  C   UNL     1       1.779   7.756  19.919  0.00  0.00    +0.000 A 
ATOM     10  C   UNL     1       1.838   8.550  18.773  0.00  0.00    +0.000 A 
ATOM     11  C   UNL     1       1.226   9.812  18.747  0.00  0.00    +0.000 A 
ATOM     12  C   UNL     1       0.585  10.328  19.883  0.00  0.00    +0.000 A 
ENDROOT
BRANCH   9  13
ATOM     13  C   UNL     1       2.364   6.434  19.933  0.00  0.00    +0.000 A 
ATOM     14  C   UNL     1       3.466   6.038  19.213  0.00  0.00    +0.000 A 
ATOM     15  N   UNL     1       3.652   4.741  19.591  0.00  0.00    +0.000 N 
ATOM     16  N   UNL     1       2.700   4.343  20.458  0.00  0.00    +0.000 NA
ATOM     17  N   UNL     1       1.915   5.388  20.693  0.00  0.00    +0.000 NA
BRANCH  15  18
ATOM     18  C   UNL     1       4.745   3.862  19.216  0.00  0.00    +0.000 C 
BRANCH  18  19
ATOM     19  C   UNL     1       5.788   4.647  18.459  0.00  0.00    +0.000 A 
ATOM     20  C   UNL     1       6.736   5.401  19.163  0.00  0.00    +0.000 A 
ATOM     21  C   UNL     1       7.548   6.314  18.491  0.00  0.00    +0.000 A 
ATOM     22  C   UNL     1       7.443   6.457  17.110  0.00  0.00    +0.000 A 
ATOM     23  C   UNL     1       6.555   5.658  16.391  0.00  0.00    +0.000 A 
ATOM     24  C   UNL     1       5.729   4.755  17.061  0.00  0.00    +0.000 A 
ENDBRANCH  18  19
ENDBRANCH  15  18
ENDBRANCH   9  13
BRANCH   1  26
ATOM     25  C   UNL     1       1.024  13.351  18.453  0.00  0.00    +0.000 C 
ATOM     26  C   UNL     1      -0.147  12.406  18.668  0.00  0.00    +0.000 C 
ENDBRANCH   1  26
BRANCH   4  27
ATOM     27  O   UNL     1      -1.086  11.859  23.371  0.00  0.00    +0.000 OA
ATOM     28  H   UNL     1      -0.286  11.946  23.935  0.00  0.00    +0.000 HD
ENDBRANCH   4  27
TORSDOF 5
ENDMDL
MODEL 3
REMARK VINA RESULT:      -8.0      3.696      8.839
REMARK  Name = 
REMARK  6 active torsions:
REMARK  status: ('A' for Active; 'I' for Inactive)
REMARK    1  A    between atoms: C_1  and  C_2
REMARK    2  A    between atoms: C_2  and  N_3
REMARK    3  A    between atoms: N_6  and  O_7
REMARK    4  A    between atoms: C_12  and  C_13
REMARK    5  A    between atoms: N_15  and  C_16
REMARK    6  A    between atoms: C_16  and  C_17
REMARK                            x       y       z     vdW  Elec       q    Type
REMARK                         _______ _______ _______ _____ _____    ______ ____
ROOT
ATOM      1  N   UNL     1       3.140   4.180  20.070  0.00  0.00    +0.000 N 
ATOM      2  C   UNL     1       4.051   3.537  19.236  0.00  0.00    +0.000 A 
ATOM      3  O   UNL     1       4.507   2.410  19.461  0.00  0.00    +0.000 OA
ATOM      4  N   UNL     1       4.442   4.236  18.106  0.00  0.00    +0.000 N 
ATOM      5  C   UNL     1       4.059   5.495  17.716  0.00  0.00    +0.000 A 
ATOM      6  O   UNL     1       4.435   6.082  16.707  0.00  0.00    +0.000 OA
ATOM      7  C   UNL     1       3.120   6.160  18.639  0.00  0.00    +0.000 A 
ATOM      8  C   UNL     1       2.678   7.452  18.321  0.00  0.00    +0.000 A 
ATOM      9  C   UNL     1       1.847   8.148  19.199  0.00  0.00    +0.000 A 
ATOM     10  C   UNL     1       1.462   7.532  20.391  0.00  0.00    +0.000 A 
ATOM     11  C   UNL     1       1.865   6.220  20.679  0.00  0.00    +0.000 A 
ATOM     12  C   UNL     1       2.703   5.511  19.805  0.00  0.00    +0.000 A 
ENDROOT
BRANCH   9  13
ATOM     13  C   UNL     1       1.392   9.480  18.874  0.00  0.00    +0.000 A 
ATOM     14  C   UNL     1       0.162  10.006  19.190  0.00  0.00    +0.000 A 
ATOM     15  N   UNL     1       0.224  11.284  18.720  0.00  0.00    +0.000 N 
ATOM     16  N   UNL     1       1.402  11.525  18.113  0.00  0.00    +0.000 NA
ATOM     17  N   UNL     1       2.139  10.425  18.224  0.00  0.00    +0.000 NA
BRANCH  15  18
ATOM     18  C   UNL     1      -0.771  12.331  18.879  0.00  0.00    +0.000 C 
BRANCH  18  19
ATOM     19  C   UNL     1      -2.106  11.839  18.380  0.00  0.00    +0.000 A 
ATOM     20  C   UNL     1      -2.222  11.350  17.071  0.00  0.00    +0.000 A 
ATOM     21  C   UNL     1      -3.478  11.117  16.515  0.00  0.00    +0.000 A 
ATOM     22  C   UNL     1      -4.627  11.340  17.270  0.00  0.00    +0.000 A 
ATOM     23  C   UNL     1      -4.521  11.754  18.597  0.00  0.00    +0.000 A 
ATOM     24  C   UNL     1      -3.266  12.004  19.152  0.00  0.00    +0.000 A 
ENDBRANCH  18  19
ENDBRANCH  15  18
ENDBRANCH   9  13
BRANCH   1  26
ATOM     25  C   UNL     1       1.320   2.709  20.948  0.00  0.00    +0.000 C 
ATOM     26  C   UNL     1       2.625   3.437  21.227  0.00  0.00    +0.000 C 
ENDBRANCH   1  26
BRANCH   4  27
ATOM     27  O   UNL     1       5.371   3.589  17.259  0.00  0.00    +0.000 OA
ATOM     28  H   UNL     1       4.817   2.882  16.858  0.00  0.00    +0.000 HD
ENDBRANCH   4  27
TORSDOF 5
ENDMDL
MODEL 4
REMARK VINA RESULT:      -8.0      1.097      1.553
REMARK  Name = 
REMARK  6 active torsions:
REMARK  status: ('A' for Active; 'I' for Inactive)
REMARK    1  A    between atoms: C_1  and  C_2
REMARK    2  A    between atoms: C_2  and  N_3
REMARK    3  A    between atoms: N_6  and  O_7
REMARK    4  A    between atoms: C_12  and  C_13
REMARK    5  A    between atoms: N_15  and  C_16
REMARK    6  A    between atoms: C_16  and  C_17
REMARK                            x       y       z     vdW  Elec       q    Type
REMARK                         _______ _______ _______ _____ _____    ______ ____
ROOT
ATOM      1  N   UNL     1      -0.127  11.054  19.451  0.00  0.00    +0.000 N 
ATOM      2  C   UNL     1      -0.473  11.520  20.716  0.00  0.00    +0.000 A 
ATOM      3  O   UNL     1      -1.095  12.571  20.910  0.00  0.00    +0.000 OA
ATOM      4  N   UNL     1      -0.079  10.734  21.786  0.00  0.00    +0.000 N 
ATOM      5  C   UNL     1       0.632   9.561  21.756  0.00  0.00    +0.000 A 
ATOM      6  O   UNL     1       0.968   8.896  22.730  0.00  0.00    +0.000 OA
ATOM      7  C   UNL     1       1.012   9.112  20.402  0.00  0.00    +0.000 A 
ATOM      8  C   UNL     1       1.745   7.924  20.276  0.00  0.00    +0.000 A 
ATOM      9  C   UNL     1       2.187   7.499  19.024  0.00  0.00    +0.000 A 
ATOM     10  C   UNL     1       1.883   8.274  17.904  0.00  0.00    +0.000 A 
ATOM     11  C   UNL     1       1.106   9.434  18.029  0.00  0.00    +0.000 A 
ATOM     12  C   UNL     1       0.657   9.873  19.284  0.00  0.00    +0.000 A 
ENDROOT
BRANCH   9  13
ATOM     13  C   UNL     1       2.944   6.275  18.893  0.00  0.00    +0.000 A 
ATOM     14  C   UNL     1       2.910   5.423  17.814  0.00  0.00    +0.000 A 
ATOM     15  N   UNL     1       3.812   4.454  18.136  0.00  0.00    +0.000 N 
ATOM     16  N   UNL     1       4.342   4.664  19.357  0.00  0.00    +0.000 NA
ATOM     17  N   UNL     1       3.830   5.799  19.821  0.00  0.00    +0.000 NA
BRANCH  15  18
ATOM     18  C   UNL     1       4.256   3.350  17.301  0.00  0.00    +0.000 C 
BRANCH  18  19
ATOM     19  C   UNL     1       5.343   3.827  16.370  0.00  0.00    +0.000 A 
ATOM     20  C   UNL     1       6.442   4.529  16.886  0.00  0.00    +0.000 A 
ATOM     21  C   UNL     1       7.327   5.180  16.028  0.00  0.00    +0.000 A 
ATOM     22  C   UNL     1       7.141   5.108  14.650  0.00  0.00    +0.000 A 
ATOM     23  C   UNL     1       6.096   4.350  14.124  0.00  0.00    +0.000 A 
ATOM     24  C   UNL     1       5.198   3.711  14.979  0.00  0.00    +0.000 A 
ENDBRANCH  18  19
ENDBRANCH  15  18
ENDBRANCH   9  13
BRANCH   1  26
ATOM     25  C   UNL     1      -1.951  11.319  17.764  0.00  0.00    +0.000 C 
ATOM     26  C   UNL     1      -0.609  11.804  18.286  0.00  0.00    +0.000 C 
ENDBRANCH   1  26
BRANCH   4  27
ATOM     27  O   UNL     1      -0.425  11.207  23.072  0.00  0.00    +0.000 OA
ATOM     28  H   UNL     1      -0.735  10.385  23.511  0.00  0.00    +0.000 HD
ENDBRANCH   4  27
TORSDOF 5
ENDMDL
MODEL 5
REMARK VINA RESULT:      -8.0      1.935      3.016
REMARK  Name = 
REMARK  6 active torsions:
REMARK  status: ('A' for Active; 'I' for Inactive)
REMARK    1  A    between atoms: C_1  and  C_2
REMARK    2  A    between atoms: C_2  and  N_3
REMARK    3  A    between atoms: N_6  and  O_7
REMARK    4  A    between atoms: C_12  and  C_13
REMARK    5  A    between atoms: N_15  and  C_16
REMARK    6  A    between atoms: C_16  and  C_17
REMARK                            x       y       z     vdW  Elec       q    Type
REMARK                         _______ _______ _______ _____ _____    ______ ____
ROOT
ATOM      1  N   UNL     1      -1.160  11.545  19.767  0.00  0.00    +0.000 N 
ATOM      2  C   UNL     1      -1.425  11.894  21.089  0.00  0.00    +0.000 A 
ATOM      3  O   UNL     1      -2.220  12.784  21.414  0.00  0.00    +0.000 OA
ATOM      4  N   UNL     1      -0.739  11.182  22.058  0.00  0.00    +0.000 N 
ATOM      5  C   UNL     1       0.189  10.187  21.878  0.00  0.00    +0.000 A 
ATOM      6  O   UNL     1       0.781   9.584  22.766  0.00  0.00    +0.000 OA
ATOM      7  C   UNL     1       0.471   9.865  20.466  0.00  0.00    +0.000 A 
ATOM      8  C   UNL     1       1.411   8.863  20.187  0.00  0.00    +0.000 A 
ATOM      9  C   UNL     1       1.762   8.574  18.868  0.00  0.00    +0.000 A 
ATOM     10  C   UNL     1       1.159   9.296  17.838  0.00  0.00    +0.000 A 
ATOM     11  C   UNL     1       0.182  10.262  18.120  0.00  0.00    +0.000 A 
ATOM     12  C   UNL     1      -0.178  10.563  19.442  0.00  0.00    +0.000 A 
ENDROOT
BRANCH   9  13
ATOM     13  C   UNL     1       2.732   7.542  18.580  0.00  0.00    +0.000 A 
ATOM     14  C   UNL     1       2.886   6.369  19.281  0.00  0.00    +0.000 A 
ATOM     15  N   UNL     1       3.878   5.718  18.610  0.00  0.00    +0.000 N 
ATOM     16  N   UNL     1       4.342   6.457  17.583  0.00  0.00    +0.000 NA
ATOM     17  N   UNL     1       3.624   7.574  17.543  0.00  0.00    +0.000 NA
BRANCH  15  18
ATOM     18  C   UNL     1       4.374   4.375  18.858  0.00  0.00    +0.000 C 
BRANCH  18  19
ATOM     19  C   UNL     1       3.224   3.471  19.227  0.00  0.00    +0.000 A 
ATOM     20  C   UNL     1       2.364   2.998  18.227  0.00  0.00    +0.000 A 
ATOM     21  C   UNL     1       1.169   2.366  18.567  0.00  0.00    +0.000 A 
ATOM     22  C   UNL     1       0.839   2.173  19.907  0.00  0.00    +0.000 A 
ATOM     23  C   UNL     1       1.723   2.573  20.908  0.00  0.00    +0.000 A 
ATOM     24  C   UNL     1       2.912   3.220  20.572  0.00  0.00    +0.000 A 
ENDBRANCH  18  19
ENDBRANCH  15  18
ENDBRANCH   9  13
BRANCH   1  26
ATOM     25  C   UNL     1      -3.220  11.475  18.354  0.00  0.00    +0.000 C 
ATOM     26  C   UNL     1      -1.936  12.207  18.712  0.00  0.00    +0.000 C 
ENDBRANCH   1  26
BRANCH   4  27
ATOM     27  O   UNL     1      -1.003  11.537  23.401  0.00  0.00    +0.000 OA
ATOM     28  H   UNL     1      -1.728  10.917  23.633  0.00  0.00    +0.000 HD
ENDBRANCH   4  27
TORSDOF 5
ENDMDL
MODEL 6
REMARK VINA RESULT:      -7.9      3.003      8.550
REMARK  Name = 
REMARK  6 active torsions:
REMARK  status: ('A' for Active; 'I' for Inactive)
REMARK    1  A    between atoms: C_1  and  C_2
REMARK    2  A    between atoms: C_2  and  N_3
REMARK    3  A    between atoms: N_6  and  O_7
REMARK    4  A    between atoms: C_12  and  C_13
REMARK    5  A    between atoms: N_15  and  C_16
REMARK    6  A    between atoms: C_16  and  C_17
REMARK                            x       y       z     vdW  Elec       q    Type
REMARK                         _______ _______ _______ _____ _____    ______ ____
ROOT
ATOM      1  N   UNL     1       4.597   4.757  18.299  0.00  0.00    +0.000 N 
ATOM      2  C   UNL     1       4.463   3.617  19.089  0.00  0.00    +0.000 A 
ATOM      3  O   UNL     1       5.127   2.588  18.920  0.00  0.00    +0.000 OA
ATOM      4  N   UNL     1       3.523   3.685  20.104  0.00  0.00    +0.000 N 
ATOM      5  C   UNL     1       2.690   4.729  20.415  0.00  0.00    +0.000 A 
ATOM      6  O   UNL     1       1.864   4.747  21.322  0.00  0.00    +0.000 OA
ATOM      7  C   UNL     1       2.834   5.908  19.539  0.00  0.00    +0.000 A 
ATOM      8  C   UNL     1       2.018   7.022  19.782  0.00  0.00    +0.000 A 
ATOM      9  C   UNL     1       2.069   8.129  18.936  0.00  0.00    +0.000 A 
ATOM     10  C   UNL     1       2.947   8.108  17.852  0.00  0.00    +0.000 A 
ATOM     11  C   UNL     1       3.798   7.013  17.644  0.00  0.00    +0.000 A 
ATOM     12  C   UNL     1       3.754   5.892  18.486  0.00  0.00    +0.000 A 
ENDROOT
BRANCH   9  13
ATOM     13  C   UNL     1       1.227   9.277  19.185  0.00  0.00    +0.000 A 
ATOM     14  C   UNL     1       0.828  10.197  18.243  0.00  0.00    +0.000 A 
ATOM     15  N   UNL     1       0.023  11.048  18.941  0.00  0.00    +0.000 N 
ATOM     16  N   UNL     1      -0.039  10.706  20.242  0.00  0.00    +0.000 NA
ATOM     17  N   UNL     1       0.681   9.600  20.397  0.00  0.00    +0.000 NA
BRANCH  15  18
ATOM     18  C   UNL     1      -0.758  12.153  18.413  0.00  0.00    +0.000 C 
BRANCH  18  19
ATOM     19  C   UNL     1      -2.144  11.671  18.064  0.00  0.00    +0.000 A 
ATOM     20  C   UNL     1      -2.387  11.107  16.805  0.00  0.00    +0.000 A 
ATOM     21  C   UNL     1      -3.694  10.878  16.376  0.00  0.00    +0.000 A 
ATOM     22  C   UNL     1      -4.765  11.180  17.213  0.00  0.00    +0.000 A 
ATOM     23  C   UNL     1      -4.531  11.671  18.497  0.00  0.00    +0.000 A 
ATOM     24  C   UNL     1      -3.226  11.917  18.923  0.00  0.00    +0.000 A 
ENDBRANCH  18  19
ENDBRANCH  15  18
ENDBRANCH   9  13
BRANCH   1  26
ATOM     25  C   UNL     1       5.203   4.179  15.945  0.00  0.00    +0.000 C 
ATOM     26  C   UNL     1       5.648   4.763  17.275  0.00  0.00    +0.000 C 
ENDBRANCH   1  26
BRANCH   4  27
ATOM     27  O   UNL     1       3.381   2.528  20.904  0.00  0.00    +0.000 OA
ATOM     28  H   UNL     1       2.421   2.544  21.109  0.00  0.00    +0.000 HD
ENDBRANCH   4  27
TORSDOF 5
ENDMDL
MODEL 7
REMARK VINA RESULT:      -7.9      1.929      3.146
REMARK  Name = 
REMARK  6 active torsions:
REMARK  status: ('A' for Active; 'I' for Inactive)
REMARK    1  A    between atoms: C_1  and  C_2
REMARK    2  A    between atoms: C_2  and  N_3
REMARK    3  A    between atoms: N_6  and  O_7
REMARK    4  A    between atoms: C_12  and  C_13
REMARK    5  A    between atoms: N_15  and  C_16
REMARK    6  A    between atoms: C_16  and  C_17
REMARK                            x       y       z     vdW  Elec       q    Type
REMARK                         _______ _______ _______ _____ _____    ______ ____
ROOT
ATOM      1  N   UNL     1      -0.322  11.723  19.834  0.00  0.00    +0.000 N 
ATOM      2  C   UNL     1      -0.673  11.888  21.172  0.00  0.00    +0.000 A 
ATOM      3  O   UNL     1      -1.322  12.852  21.594  0.00  0.00    +0.000 OA
ATOM      4  N   UNL     1      -0.252  10.895  22.041  0.00  0.00    +0.000 N 
ATOM      5  C   UNL     1       0.490   9.778  21.751  0.00  0.00    +0.000 A 
ATOM      6  O   UNL     1       0.850   8.924  22.554  0.00  0.00    +0.000 OA
ATOM      7  C   UNL     1       0.875   9.651  20.332  0.00  0.00    +0.000 A 
ATOM      8  C   UNL     1       1.638   8.541  19.946  0.00  0.00    +0.000 A 
ATOM      9  C   UNL     1       2.085   8.416  18.631  0.00  0.00    +0.000 A 
ATOM     10  C   UNL     1       1.753   9.412  17.711  0.00  0.00    +0.000 A 
ATOM     11  C   UNL     1       0.946  10.494  18.090  0.00  0.00    +0.000 A 
ATOM     12  C   UNL     1       0.493  10.631  19.411  0.00  0.00    +0.000 A 
ENDROOT
BRANCH   9  13
ATOM     13  C   UNL     1       2.873   7.273  18.232  0.00  0.00    +0.000 A 
ATOM     14  C   UNL     1       2.748   5.999  18.735  0.00  0.00    +0.000 A 
ATOM     15  N   UNL     1       3.662   5.278  18.025  0.00  0.00    +0.000 N 
ATOM     16  N   UNL     1       4.343   6.062  17.167  0.00  0.00    +0.000 NA
ATOM     17  N   UNL     1       3.847   7.290  17.271  0.00  0.00    +0.000 NA
BRANCH  15  18
ATOM     18  C   UNL     1       3.882   3.843  18.073  0.00  0.00    +0.000 C 
BRANCH  18  19
ATOM     19  C   UNL     1       3.013   3.234  19.146  0.00  0.00    +0.000 A 
ATOM     20  C   UNL     1       1.643   3.054  18.910  0.00  0.00    +0.000 A 
ATOM     21  C   UNL     1       0.787   2.720  19.959  0.00  0.00    +0.000 A 
ATOM     22  C   UNL     1       1.296   2.533  21.242  0.00  0.00    +0.000 A 
ATOM     23  C   UNL     1       2.667   2.636  21.471  0.00  0.00    +0.000 A 
ATOM     24  C   UNL     1       3.525   2.986  20.429  0.00  0.00    +0.000 A 
ENDBRANCH  18  19
ENDBRANCH  15  18
ENDBRANCH   9  13
BRANCH   1  26
ATOM     25  C   UNL     1       0.085  13.898  18.673  0.00  0.00    +0.000 C 
ATOM     26  C   UNL     1      -0.830  12.700  18.865  0.00  0.00    +0.000 C 
ENDBRANCH   1  26
BRANCH   4  27
ATOM     27  O   UNL     1      -0.603  11.062  23.400  0.00  0.00    +0.000 OA
ATOM     28  H   UNL     1       0.120  11.643  23.723  0.00  0.00    +0.000 HD
ENDBRANCH   4  27
TORSDOF 5
ENDMDL
MODEL 8
REMARK VINA RESULT:      -7.9      3.044      4.567
REMARK  Name = 
REMARK  6 active torsions:
REMARK  status: ('A' for Active; 'I' for Inactive)
REMARK    1  A    between atoms: C_1  and  C_2
REMARK    2  A    between atoms: C_2  and  N_3
REMARK    3  A    between atoms: N_6  and  O_7
REMARK    4  A    between atoms: C_12  and  C_13
REMARK    5  A    between atoms: N_15  and  C_16
REMARK    6  A    between atoms: C_16  and  C_17
REMARK                            x       y       z     vdW  Elec       q    Type
REMARK                         _______ _______ _______ _____ _____    ______ ____
ROOT
ATOM      1  N   UNL     1      -2.566  12.776  21.190  0.00  0.00    +0.000 N 
ATOM      2  C   UNL     1      -3.703  13.075  20.444  0.00  0.00    +0.000 A 
ATOM      3  O   UNL     1      -4.598  13.833  20.835  0.00  0.00    +0.000 OA
ATOM      4  N   UNL     1      -3.797  12.465  19.204  0.00  0.00    +0.000 N 
ATOM      5  C   UNL     1      -2.918  11.585  18.626  0.00  0.00    +0.000 A 
ATOM      6  O   UNL     1      -3.041  11.061  17.524  0.00  0.00    +0.000 OA
ATOM      7  C   UNL     1      -1.741  11.264  19.457  0.00  0.00    +0.000 A 
ATOM      8  C   UNL     1      -0.791  10.369  18.947  0.00  0.00    +0.000 A 
ATOM      9  C   UNL     1       0.300   9.981  19.725  0.00  0.00    +0.000 A 
ATOM     10  C   UNL     1       0.428  10.504  21.012  0.00  0.00    +0.000 A 
ATOM     11  C   UNL     1      -0.498  11.439  21.498  0.00  0.00    +0.000 A 
ATOM     12  C   UNL     1      -1.600  11.835  20.725  0.00  0.00    +0.000 A 
ENDROOT
BRANCH   9  13
ATOM     13  C   UNL     1       1.279   9.056  19.201  0.00  0.00    +0.000 A 
ATOM     14  C   UNL     1       1.788   7.966  19.867  0.00  0.00    +0.000 A 
ATOM     15  N   UNL     1       2.627   7.392  18.958  0.00  0.00    +0.000 N 
ATOM     16  N   UNL     1       2.671   8.105  17.815  0.00  0.00    +0.000 NA
ATOM     17  N   UNL     1       1.824   9.120  17.948  0.00  0.00    +0.000 NA
BRANCH  15  18
ATOM     18  C   UNL     1       3.353   6.142  19.096  0.00  0.00    +0.000 C 
BRANCH  18  19
ATOM     19  C   UNL     1       2.375   5.003  19.246  0.00  0.00    +0.000 A 
ATOM     20  C   UNL     1       1.958   4.610  20.525  0.00  0.00    +0.000 A 
ATOM     21  C   UNL     1       1.251   3.421  20.700  0.00  0.00    +0.000 A 
ATOM     22  C   UNL     1       0.928   2.633  19.598  0.00  0.00    +0.000 A 
ATOM     23  C   UNL     1       1.272   3.053  18.314  0.00  0.00    +0.000 A 
ATOM     24  C   UNL     1       1.994   4.234  18.136  0.00  0.00    +0.000 A 
ENDBRANCH  18  19
ENDBRANCH  15  18
ENDBRANCH   9  13
BRANCH   1  26
ATOM     25  C   UNL     1      -3.093  12.809  23.632  0.00  0.00    +0.000 C 
ATOM     26  C   UNL     1      -2.379  13.474  22.467  0.00  0.00    +0.000 C 
ENDBRANCH   1  26
BRANCH   4  27
ATOM     27  O   UNL     1      -4.953  12.763  18.446  0.00  0.00    +0.000 OA
ATOM     28  H   UNL     1      -5.571  13.080  19.140  0.00  0.00    +0.000 HD
ENDBRANCH   4  27
TORSDOF 5
ENDMDL
MODEL 9
REMARK VINA RESULT:      -7.9      2.671      4.151
REMARK  Name = 
REMARK  6 active torsions:
REMARK  status: ('A' for Active; 'I' for Inactive)
REMARK    1  A    between atoms: C_1  and  C_2
REMARK    2  A    between atoms: C_2  and  N_3
REMARK    3  A    between atoms: N_6  and  O_7
REMARK    4  A    between atoms: C_12  and  C_13
REMARK    5  A    between atoms: N_15  and  C_16
REMARK    6  A    between atoms: C_16  and  C_17
REMARK                            x       y       z     vdW  Elec       q    Type
REMARK                         _______ _______ _______ _____ _____    ______ ____
ROOT
ATOM      1  N   UNL     1      -1.835  12.109  20.576  0.00  0.00    +0.000 N 
ATOM      2  C   UNL     1      -2.910  12.465  19.766  0.00  0.00    +0.000 A 
ATOM      3  O   UNL     1      -3.811  13.231  20.125  0.00  0.00    +0.000 OA
ATOM      4  N   UNL     1      -2.932  11.905  18.499  0.00  0.00    +0.000 N 
ATOM      5  C   UNL     1      -2.036  11.024  17.949  0.00  0.00    +0.000 A 
ATOM      6  O   UNL     1      -2.095  10.545  16.822  0.00  0.00    +0.000 OA
ATOM      7  C   UNL     1      -0.928  10.641  18.845  0.00  0.00    +0.000 A 
ATOM      8  C   UNL     1       0.035   9.741  18.367  0.00  0.00    +0.000 A 
ATOM      9  C   UNL     1       1.059   9.296  19.202  0.00  0.00    +0.000 A 
ATOM     10  C   UNL     1       1.110   9.767  20.514  0.00  0.00    +0.000 A 
ATOM     11  C   UNL     1       0.175  10.708  20.972  0.00  0.00    +0.000 A 
ATOM     12  C   UNL     1      -0.861  11.161  20.142  0.00  0.00    +0.000 A 
ENDROOT
BRANCH   9  13
ATOM     13  C   UNL     1       2.050   8.366  18.710  0.00  0.00    +0.000 A 
ATOM     14  C   UNL     1       2.437   7.204  19.335  0.00  0.00    +0.000 A 
ATOM     15  N   UNL     1       3.345   6.660  18.476  0.00  0.00    +0.000 N 
ATOM     16  N   UNL     1       3.544   7.455  17.406  0.00  0.00    +0.000 NA
ATOM     17  N   UNL     1       2.731   8.498  17.531  0.00  0.00    +0.000 NA
BRANCH  15  18
ATOM     18  C   UNL     1       4.000   5.368  18.587  0.00  0.00    +0.000 C 
BRANCH  18  19
ATOM     19  C   UNL     1       2.997   4.330  19.027  0.00  0.00    +0.000 A 
ATOM     20  C   UNL     1       2.073   3.821  18.104  0.00  0.00    +0.000 A 
ATOM     21  C   UNL     1       0.996   3.050  18.538  0.00  0.00    +0.000 A 
ATOM     22  C   UNL     1       0.851   2.754  19.891  0.00  0.00    +0.000 A 
ATOM     23  C   UNL     1       1.806   3.191  20.808  0.00  0.00    +0.000 A 
ATOM     24  C   UNL     1       2.876   3.977  20.380  0.00  0.00    +0.000 A 
ENDBRANCH  18  19
ENDBRANCH  15  18
ENDBRANCH   9  13
BRANCH   1  26
ATOM     25  C   UNL     1      -2.410  11.985  23.004  0.00  0.00    +0.000 C 
ATOM     26  C   UNL     1      -1.720  12.754  21.889  0.00  0.00    +0.000 C 
ENDBRANCH   1  26
BRANCH   4  27
ATOM     27  O   UNL     1      -4.025  12.261  17.676  0.00  0.00    +0.000 OA
ATOM     28  H   UNL     1      -4.413  11.382  17.468  0.00  0.00    +0.000 HD
ENDBRANCH   4  27
TORSDOF 5
ENDMDL
