MODEL 1
REMARK VINA RESULT:      -6.6      0.000      0.000
REMARK  Name = 
REMARK  8 active torsions:
REMARK  status: ('A' for Active; 'I' for Inactive)
REMARK    1  A    between atoms: O_1  and  C_2
REMARK    2  A    between atoms: C_2  and  C_3
REMARK    3  A    between atoms: C_2  and  C_13
REMARK    4  A    between atoms: C_3  and  N_4
REMARK    5  A    between atoms: N_4  and  C_5
REMARK    6  A    between atoms: C_5  and  C_6
REMARK    7  A    between atoms: C_6  and  N_7
REMARK    8  A    between atoms: C_13  and  C_14
REMARK                            x       y       z     vdW  Elec       q    Type
REMARK                         _______ _______ _______ _____ _____    ______ ____
ROOT
ATOM      1  C   UNL     1       7.287   5.070  17.757  0.00  0.00    +0.000 C 
ENDROOT
BRANCH   1   2
ATOM      2  N   UNL     1       6.286   4.097  18.246  0.00  0.00    +0.000 NA
ATOM      3  H   UNL     1       6.785   3.334  18.708  0.00  0.00    +0.000 HD
BRANCH   2   4
ATOM      4  C   UNL     1       5.451   4.776  19.253  0.00  0.00    +0.000 C 
BRANCH   4   5
ATOM      5  C   UNL     1       3.937   4.729  18.959  0.00  0.00    +0.000 C 
BRANCH   5   6
ATOM      6  N   UNL     1       3.212   3.850  19.903  0.00  0.00    +0.000 NA
ATOM      7  C   UNL     1       1.759   3.761  19.632  0.00  0.00    +0.000 C 
ATOM      8  C   UNL     1       1.402   2.991  18.345  0.00  0.00    +0.000 C 
ATOM      9  N   UNL     1       1.921   1.618  18.368  0.00  0.00    +0.000 NA
ATOM     10  C   UNL     1       3.363   1.618  18.660  0.00  0.00    +0.000 C 
ATOM     11  C   UNL     1       3.756   2.472  19.891  0.00  0.00    +0.000 C 
ATOM     12  H   UNL     1       1.754   1.173  17.468  0.00  0.00    +0.000 HD
ENDBRANCH   5   6
ENDBRANCH   4   5
ENDBRANCH   2   4
ENDBRANCH   1   2
BRANCH   1  13
ATOM     13  C   UNL     1       6.864   5.762  16.451  0.00  0.00    +0.000 C 
BRANCH  13  14
ATOM     14  O   UNL     1       6.275   7.026  16.783  0.00  0.00    +0.000 OA
ATOM     15  H   UNL     1       5.317   6.861  16.825  0.00  0.00    +0.000 HD
ENDBRANCH  13  14
BRANCH  13  16
ATOM     16  C   UNL     1       5.845   4.875  15.713  0.00  0.00    +0.000 C 
BRANCH  16  17
ATOM     17  C   UNL     1       6.276   4.539  14.306  0.00  0.00    +0.000 A 
ATOM     18  C   UNL     1       7.379   5.169  13.718  0.00  0.00    +0.000 A 
ATOM     19  C   UNL     1       7.732   4.883  12.400  0.00  0.00    +0.000 A 
ATOM     20  C   UNL     1       6.990   3.965  11.660  0.00  0.00    +0.000 A 
ATOM     21  C   UNL     1       5.896   3.324  12.239  0.00  0.00    +0.000 A 
ATOM     22  C   UNL     1       5.541   3.612  13.556  0.00  0.00    +0.000 A 
ENDBRANCH  16  17
ENDBRANCH  13  16
ENDBRANCH   1  13
TORSDOF 8
ENDMDL
MODEL 2
REMARK VINA RESULT:      -6.4      2.939      6.552
REMARK  Name = 
REMARK  8 active torsions:
REMARK  status: ('A' for Active; 'I' for Inactive)
REMARK    1  A    between atoms: O_1  and  C_2
REMARK    2  A    between atoms: C_2  and  C_3
REMARK    3  A    between atoms: C_2  and  C_13
REMARK    4  A    between atoms: C_3  and  N_4
REMARK    5  A    between atoms: N_4  and  C_5
REMARK    6  A    between atoms: C_5  and  C_6
REMARK    7  A    between atoms: C_6  and  N_7
REMARK    8  A    between atoms: C_13  and  C_14
REMARK                            x       y       z     vdW  Elec       q    Type
REMARK                         _______ _______ _______ _____ _____    ______ ____
ROOT
ATOM      1  C   UNL     1       3.500   2.915  20.167  0.00  0.00    +0.000 C 
ENDROOT
BRANCH   1   2
ATOM      2  N   UNL     1       4.766   2.555  19.492  0.00  0.00    +0.000 NA
ATOM      3  H   UNL     1       4.618   1.679  18.988  0.00  0.00    +0.000 HD
BRANCH   2   4
ATOM      4  C   UNL     1       5.064   3.608  18.504  0.00  0.00    +0.000 C 
BRANCH   4   5
ATOM      5  C   UNL     1       5.816   4.826  19.081  0.00  0.00    +0.000 C 
BRANCH   5   6
ATOM      6  N   UNL     1       7.242   4.838  18.691  0.00  0.00    +0.000 NA
ATOM      7  C   UNL     1       7.467   4.535  17.258  0.00  0.00    +0.000 C 
ATOM      8  C   UNL     1       6.998   5.646  16.297  0.00  0.00    +0.000 C 
ATOM      9  N   UNL     1       7.660   6.926  16.575  0.00  0.00    +0.000 NA
ATOM     10  C   UNL     1       7.506   7.287  17.993  0.00  0.00    +0.000 C 
ATOM     11  C   UNL     1       7.874   6.148  18.977  0.00  0.00    +0.000 C 
ATOM     12  H   UNL     1       7.257   7.654  15.991  0.00  0.00    +0.000 HD
ENDBRANCH   5   6
ENDBRANCH   4   5
ENDBRANCH   2   4
ENDBRANCH   1   2
BRANCH   1  13
ATOM     13  C   UNL     1       2.297   2.103  19.658  0.00  0.00    +0.000 C 
BRANCH  13  14
ATOM     14  O   UNL     1       2.706   1.378  18.492  0.00  0.00    +0.000 OA
ATOM     15  H   UNL     1       1.965   0.781  18.286  0.00  0.00    +0.000 HD
ENDBRANCH  13  14
BRANCH  13  16
ATOM     16  C   UNL     1       1.144   3.063  19.314  0.00  0.00    +0.000 C 
BRANCH  16  17
ATOM     17  C   UNL     1       1.581   4.507  19.270  0.00  0.00    +0.000 A 
ATOM     18  C   UNL     1       2.062   5.081  18.087  0.00  0.00    +0.000 A 
ATOM     19  C   UNL     1       2.509   6.401  18.078  0.00  0.00    +0.000 A 
ATOM     20  C   UNL     1       2.476   7.160  19.246  0.00  0.00    +0.000 A 
ATOM     21  C   UNL     1       1.990   6.602  20.427  0.00  0.00    +0.000 A 
ATOM     22  C   UNL     1       1.545   5.281  20.438  0.00  0.00    +0.000 A 
ENDBRANCH  16  17
ENDBRANCH  13  16
ENDBRANCH   1  13
TORSDOF 8
ENDMDL
MODEL 3
REMARK VINA RESULT:      -6.4      3.072      6.547
REMARK  Name = 
REMARK  8 active torsions:
REMARK  status: ('A' for Active; 'I' for Inactive)
REMARK    1  A    between atoms: O_1  and  C_2
REMARK    2  A    between atoms: C_2  and  C_3
REMARK    3  A    between atoms: C_2  and  C_13
REMARK    4  A    between atoms: C_3  and  N_4
REMARK    5  A    between atoms: N_4  and  C_5
REMARK    6  A    between atoms: C_5  and  C_6
REMARK    7  A    between atoms: C_6  and  N_7
REMARK    8  A    between atoms: C_13  and  C_14
REMARK                            x       y       z     vdW  Elec       q    Type
REMARK                         _______ _______ _______ _____ _____    ______ ____
ROOT
ATOM      1  C   UNL     1       3.774   2.606  18.317  0.00  0.00    +0.000 C 
ENDROOT
BRANCH   1   2
ATOM      2  N   UNL     1       4.935   2.678  19.230  0.00  0.00    +0.000 NA
ATOM      3  H   UNL     1       5.785   2.665  18.662  0.00  0.00    +0.000 HD
BRANCH   2   4
ATOM      4  C   UNL     1       4.875   3.970  19.936  0.00  0.00    +0.000 C 
BRANCH   4   5
ATOM      5  C   UNL     1       5.512   5.145  19.164  0.00  0.00    +0.000 C 
BRANCH   5   6
ATOM      6  N   UNL     1       6.850   4.805  18.635  0.00  0.00    +0.000 NA
ATOM      7  C   UNL     1       6.867   4.574  17.172  0.00  0.00    +0.000 C 
ATOM      8  C   UNL     1       6.648   5.845  16.329  0.00  0.00    +0.000 C 
ATOM      9  N   UNL     1       7.658   6.872  16.614  0.00  0.00    +0.000 NA
ATOM     10  C   UNL     1       7.724   7.141  18.059  0.00  0.00    +0.000 C 
ATOM     11  C   UNL     1       7.840   5.867  18.933  0.00  0.00    +0.000 C 
ATOM     12  H   UNL     1       7.427   7.728  16.116  0.00  0.00    +0.000 HD
ENDBRANCH   5   6
ENDBRANCH   4   5
ENDBRANCH   2   4
ENDBRANCH   1   2
BRANCH   1  13
ATOM     13  C   UNL     1       2.429   2.536  19.060  0.00  0.00    +0.000 C 
BRANCH  13  14
ATOM     14  O   UNL     1       1.899   1.214  18.906  0.00  0.00    +0.000 OA
ATOM     15  H   UNL     1       2.473   0.780  18.250  0.00  0.00    +0.000 HD
ENDBRANCH  13  14
BRANCH  13  16
ATOM     16  C   UNL     1       1.463   3.574  18.461  0.00  0.00    +0.000 C 
BRANCH  16  17
ATOM     17  C   UNL     1       1.741   4.977  18.943  0.00  0.00    +0.000 A 
ATOM     18  C   UNL     1       1.464   5.357  20.261  0.00  0.00    +0.000 A 
ATOM     19  C   UNL     1       1.680   6.671  20.674  0.00  0.00    +0.000 A 
ATOM     20  C   UNL     1       2.178   7.614  19.777  0.00  0.00    +0.000 A 
ATOM     21  C   UNL     1       2.467   7.244  18.465  0.00  0.00    +0.000 A 
ATOM     22  C   UNL     1       2.249   5.930  18.051  0.00  0.00    +0.000 A 
ENDBRANCH  16  17
ENDBRANCH  13  16
ENDBRANCH   1  13
TORSDOF 8
ENDMDL
MODEL 4
REMARK VINA RESULT:      -6.4      1.252      1.876
REMARK  Name = 
REMARK  8 active torsions:
REMARK  status: ('A' for Active; 'I' for Inactive)
REMARK    1  A    between atoms: O_1  and  C_2
REMARK    2  A    between atoms: C_2  and  C_3
REMARK    3  A    between atoms: C_2  and  C_13
REMARK    4  A    between atoms: C_3  and  N_4
REMARK    5  A    between atoms: N_4  and  C_5
REMARK    6  A    between atoms: C_5  and  C_6
REMARK    7  A    between atoms: C_6  and  N_7
REMARK    8  A    between atoms: C_13  and  C_14
REMARK                            x       y       z     vdW  Elec       q    Type
REMARK                         _______ _______ _______ _____ _____    ______ ____
ROOT
ATOM      1  C   UNL     1       7.054   5.832  18.258  0.00  0.00    +0.000 C 
ENDROOT
BRANCH   1   2
ATOM      2  N   UNL     1       6.370   4.646  18.819  0.00  0.00    +0.000 NA
ATOM      3  H   UNL     1       6.874   4.358  19.660  0.00  0.00    +0.000 HD
BRANCH   2   4
ATOM      4  C   UNL     1       5.011   5.055  19.216  0.00  0.00    +0.000 C 
BRANCH   4   5
ATOM      5  C   UNL     1       3.885   4.187  18.616  0.00  0.00    +0.000 C 
BRANCH   5   6
ATOM      6  N   UNL     1       2.577   4.878  18.634  0.00  0.00    +0.000 NA
ATOM      7  C   UNL     1       1.473   4.070  18.067  0.00  0.00    +0.000 C 
ATOM      8  C   UNL     1       1.061   2.865  18.937  0.00  0.00    +0.000 C 
ATOM      9  N   UNL     1       0.646   3.279  20.283  0.00  0.00    +0.000 NA
ATOM     10  C   UNL     1       1.684   4.114  20.907  0.00  0.00    +0.000 C 
ATOM     11  C   UNL     1       2.187   5.271  20.008  0.00  0.00    +0.000 C 
ATOM     12  H   UNL     1       0.477   2.457  20.857  0.00  0.00    +0.000 HD
ENDBRANCH   5   6
ENDBRANCH   4   5
ENDBRANCH   2   4
ENDBRANCH   1   2
BRANCH   1  13
ATOM     13  C   UNL     1       6.983   5.895  16.723  0.00  0.00    +0.000 C 
BRANCH  13  14
ATOM     14  O   UNL     1       5.927   6.792  16.359  0.00  0.00    +0.000 OA
ATOM     15  H   UNL     1       5.419   6.326  15.672  0.00  0.00    +0.000 HD
ENDBRANCH  13  14
BRANCH  13  16
ATOM     16  C   UNL     1       6.704   4.486  16.169  0.00  0.00    +0.000 C 
BRANCH  16  17
ATOM     17  C   UNL     1       6.756   4.432  14.661  0.00  0.00    +0.000 A 
ATOM     18  C   UNL     1       5.899   3.594  13.938  0.00  0.00    +0.000 A 
ATOM     19  C   UNL     1       5.997   3.520  12.550  0.00  0.00    +0.000 A 
ATOM     20  C   UNL     1       6.946   4.282  11.872  0.00  0.00    +0.000 A 
ATOM     21  C   UNL     1       7.798   5.127  12.581  0.00  0.00    +0.000 A 
ATOM     22  C   UNL     1       7.702   5.200  13.970  0.00  0.00    +0.000 A 
ENDBRANCH  16  17
ENDBRANCH  13  16
ENDBRANCH   1  13
TORSDOF 8
ENDMDL
MODEL 5
REMARK VINA RESULT:      -6.3      1.132      1.494
REMARK  Name = 
REMARK  8 active torsions:
REMARK  status: ('A' for Active; 'I' for Inactive)
REMARK    1  A    between atoms: O_1  and  C_2
REMARK    2  A    between atoms: C_2  and  C_3
REMARK    3  A    between atoms: C_2  and  C_13
REMARK    4  A    between atoms: C_3  and  N_4
REMARK    5  A    between atoms: N_4  and  C_5
REMARK    6  A    between atoms: C_5  and  C_6
REMARK    7  A    between atoms: C_6  and  N_7
REMARK    8  A    between atoms: C_13  and  C_14
REMARK                            x       y       z     vdW  Elec       q    Type
REMARK                         _______ _______ _______ _____ _____    ______ ____
ROOT
ATOM      1  C   UNL     1       6.161   5.426  17.944  0.00  0.00    +0.000 C 
ENDROOT
BRANCH   1   2
ATOM      2  N   UNL     1       6.309   4.083  18.544  0.00  0.00    +0.000 NA
ATOM      3  H   UNL     1       7.177   4.071  19.084  0.00  0.00    +0.000 HD
BRANCH   2   4
ATOM      4  C   UNL     1       5.186   3.880  19.478  0.00  0.00    +0.000 C 
BRANCH   4   5
ATOM      5  C   UNL     1       3.869   3.446  18.801  0.00  0.00    +0.000 C 
BRANCH   5   6
ATOM      6  N   UNL     1       3.207   2.339  19.526  0.00  0.00    +0.000 NA
ATOM      7  C   UNL     1       2.811   2.689  20.909  0.00  0.00    +0.000 C 
ATOM      8  C   UNL     1       1.645   3.695  20.996  0.00  0.00    +0.000 C 
ATOM      9  N   UNL     1       0.442   3.198  20.316  0.00  0.00    +0.000 NA
ATOM     10  C   UNL     1       0.760   2.799  18.936  0.00  0.00    +0.000 C 
ATOM     11  C   UNL     1       1.994   1.871  18.816  0.00  0.00    +0.000 C 
ATOM     12  H   UNL     1      -0.271   3.923  20.308  0.00  0.00    +0.000 HD
ENDBRANCH   5   6
ENDBRANCH   4   5
ENDBRANCH   2   4
ENDBRANCH   1   2
BRANCH   1  13
ATOM     13  C   UNL     1       6.811   5.537  16.555  0.00  0.00    +0.000 C 
BRANCH  13  14
ATOM     14  O   UNL     1       7.565   6.755  16.507  0.00  0.00    +0.000 OA
ATOM     15  H   UNL     1       8.419   6.514  16.108  0.00  0.00    +0.000 HD
ENDBRANCH  13  14
BRANCH  13  16
ATOM     16  C   UNL     1       5.711   5.547  15.478  0.00  0.00    +0.000 C 
BRANCH  16  17
ATOM     17  C   UNL     1       6.135   4.856  14.205  0.00  0.00    +0.000 A 
ATOM     18  C   UNL     1       7.316   5.217  13.545  0.00  0.00    +0.000 A 
ATOM     19  C   UNL     1       7.665   4.602  12.343  0.00  0.00    +0.000 A 
ATOM     20  C   UNL     1       6.843   3.622  11.793  0.00  0.00    +0.000 A 
ATOM     21  C   UNL     1       5.670   3.247  12.447  0.00  0.00    +0.000 A 
ATOM     22  C   UNL     1       5.319   3.863  13.647  0.00  0.00    +0.000 A 
ENDBRANCH  16  17
ENDBRANCH  13  16
ENDBRANCH   1  13
TORSDOF 8
ENDMDL
MODEL 6
REMARK VINA RESULT:      -6.3      1.528      2.245
REMARK  Name = 
REMARK  8 active torsions:
REMARK  status: ('A' for Active; 'I' for Inactive)
REMARK    1  A    between atoms: O_1  and  C_2
REMARK    2  A    between atoms: C_2  and  C_3
REMARK    3  A    between atoms: C_2  and  C_13
REMARK    4  A    between atoms: C_3  and  N_4
REMARK    5  A    between atoms: N_4  and  C_5
REMARK    6  A    between atoms: C_5  and  C_6
REMARK    7  A    between atoms: C_6  and  N_7
REMARK    8  A    between atoms: C_13  and  C_14
REMARK                            x       y       z     vdW  Elec       q    Type
REMARK                         _______ _______ _______ _____ _____    ______ ____
ROOT
ATOM      1  C   UNL     1       5.189   5.282  18.142  0.00  0.00    +0.000 C 
ENDROOT
BRANCH   1   2
ATOM      2  N   UNL     1       3.962   5.728  17.447  0.00  0.00    +0.000 NA
ATOM      3  H   UNL     1       4.206   5.936  16.477  0.00  0.00    +0.000 HD
BRANCH   2   4
ATOM      4  C   UNL     1       3.009   4.604  17.450  0.00  0.00    +0.000 C 
BRANCH   4   5
ATOM      5  C   UNL     1       2.099   4.546  18.696  0.00  0.00    +0.000 C 
BRANCH   5   6
ATOM      6  N   UNL     1       1.733   3.159  19.055  0.00  0.00    +0.000 NA
ATOM      7  C   UNL     1       2.899   2.261  19.217  0.00  0.00    +0.000 C 
ATOM      8  C   UNL     1       3.758   2.559  20.463  0.00  0.00    +0.000 C 
ATOM      9  N   UNL     1       2.973   2.473  21.701  0.00  0.00    +0.000 NA
ATOM     10  C   UNL     1       1.774   3.320  21.609  0.00  0.00    +0.000 C 
ATOM     11  C   UNL     1       0.951   3.111  20.313  0.00  0.00    +0.000 C 
ATOM     12  H   UNL     1       3.543   2.770  22.489  0.00  0.00    +0.000 HD
ENDBRANCH   5   6
ENDBRANCH   4   5
ENDBRANCH   2   4
ENDBRANCH   1   2
BRANCH   1  13
ATOM     13  C   UNL     1       6.197   4.602  17.201  0.00  0.00    +0.000 C 
BRANCH  13  14
ATOM     14  O   UNL     1       7.333   4.196  17.976  0.00  0.00    +0.000 OA
ATOM     15  H   UNL     1       7.329   3.223  17.950  0.00  0.00    +0.000 HD
ENDBRANCH  13  14
BRANCH  13  16
ATOM     16  C   UNL     1       6.624   5.597  16.107  0.00  0.00    +0.000 C 
BRANCH  16  17
ATOM     17  C   UNL     1       6.659   4.974  14.733  0.00  0.00    +0.000 A 
ATOM     18  C   UNL     1       7.624   5.353  13.792  0.00  0.00    +0.000 A 
ATOM     19  C   UNL     1       7.609   4.803  12.511  0.00  0.00    +0.000 A 
ATOM     20  C   UNL     1       6.636   3.870  12.160  0.00  0.00    +0.000 A 
ATOM     21  C   UNL     1       5.677   3.478  13.092  0.00  0.00    +0.000 A 
ATOM     22  C   UNL     1       5.690   4.029  14.373  0.00  0.00    +0.000 A 
ENDBRANCH  16  17
ENDBRANCH  13  16
ENDBRANCH   1  13
TORSDOF 8
ENDMDL
MODEL 7
REMARK VINA RESULT:      -6.3      2.458      6.455
REMARK  Name = 
REMARK  8 active torsions:
REMARK  status: ('A' for Active; 'I' for Inactive)
REMARK    1  A    between atoms: O_1  and  C_2
REMARK    2  A    between atoms: C_2  and  C_3
REMARK    3  A    between atoms: C_2  and  C_13
REMARK    4  A    between atoms: C_3  and  N_4
REMARK    5  A    between atoms: N_4  and  C_5
REMARK    6  A    between atoms: C_5  and  C_6
REMARK    7  A    between atoms: C_6  and  N_7
REMARK    8  A    between atoms: C_13  and  C_14
REMARK                            x       y       z     vdW  Elec       q    Type
REMARK                         _______ _______ _______ _____ _____    ______ ____
ROOT
ATOM      1  C   UNL     1       3.331   2.407  20.180  0.00  0.00    +0.000 C 
ENDROOT
BRANCH   1   2
ATOM      2  N   UNL     1       4.682   2.325  19.585  0.00  0.00    +0.000 NA
ATOM      3  H   UNL     1       4.596   1.895  18.662  0.00  0.00    +0.000 HD
BRANCH   2   4
ATOM      4  C   UNL     1       5.181   3.700  19.406  0.00  0.00    +0.000 C 
BRANCH   4   5
ATOM      5  C   UNL     1       5.194   4.185  17.941  0.00  0.00    +0.000 C 
BRANCH   5   6
ATOM      6  N   UNL     1       6.291   5.143  17.680  0.00  0.00    +0.000 NA
ATOM      7  C   UNL     1       7.327   4.621  16.760  0.00  0.00    +0.000 C 
ATOM      8  C   UNL     1       6.856   4.469  15.299  0.00  0.00    +0.000 C 
ATOM      9  N   UNL     1       6.387   5.743  14.741  0.00  0.00    +0.000 NA
ATOM     10  C   UNL     1       5.369   6.345  15.617  0.00  0.00    +0.000 C 
ATOM     11  C   UNL     1       5.781   6.411  17.109  0.00  0.00    +0.000 C 
ATOM     12  H   UNL     1       5.995   5.588  13.816  0.00  0.00    +0.000 HD
ENDBRANCH   5   6
ENDBRANCH   4   5
ENDBRANCH   2   4
ENDBRANCH   1   2
BRANCH   1  13
ATOM     13  C   UNL     1       2.242   1.800  19.279  0.00  0.00    +0.000 C 
BRANCH  13  14
ATOM     14  O   UNL     1       2.803   1.582  17.979  0.00  0.00    +0.000 OA
ATOM     15  H   UNL     1       3.312   2.387  17.779  0.00  0.00    +0.000 HD
ENDBRANCH  13  14
BRANCH  13  16
ATOM     16  C   UNL     1       1.053   2.774  19.192  0.00  0.00    +0.000 C 
BRANCH  16  17
ATOM     17  C   UNL     1       1.477   4.221  19.268  0.00  0.00    +0.000 A 
ATOM     18  C   UNL     1       1.866   4.921  18.121  0.00  0.00    +0.000 A 
ATOM     19  C   UNL     1       2.304   6.241  18.218  0.00  0.00    +0.000 A 
ATOM     20  C   UNL     1       2.352   6.874  19.459  0.00  0.00    +0.000 A 
ATOM     21  C   UNL     1       1.958   6.189  20.607  0.00  0.00    +0.000 A 
ATOM     22  C   UNL     1       1.522   4.867  20.510  0.00  0.00    +0.000 A 
ENDBRANCH  16  17
ENDBRANCH  13  16
ENDBRANCH   1  13
TORSDOF 8
ENDMDL
MODEL 8
REMARK VINA RESULT:      -6.2      1.310      1.963
REMARK  Name = 
REMARK  8 active torsions:
REMARK  status: ('A' for Active; 'I' for Inactive)
REMARK    1  A    between atoms: O_1  and  C_2
REMARK    2  A    between atoms: C_2  and  C_3
REMARK    3  A    between atoms: C_2  and  C_13
REMARK    4  A    between atoms: C_3  and  N_4
REMARK    5  A    between atoms: N_4  and  C_5
REMARK    6  A    between atoms: C_5  and  C_6
REMARK    7  A    between atoms: C_6  and  N_7
REMARK    8  A    between atoms: C_13  and  C_14
REMARK                            x       y       z     vdW  Elec       q    Type
REMARK                         _______ _______ _______ _____ _____    ______ ____
ROOT
ATOM      1  C   UNL     1       6.895   5.687  18.388  0.00  0.00    +0.000 C 
ENDROOT
BRANCH   1   2
ATOM      2  N   UNL     1       5.555   5.682  19.014  0.00  0.00    +0.000 NA
ATOM      3  H   UNL     1       4.915   6.184  18.395  0.00  0.00    +0.000 HD
BRANCH   2   4
ATOM      4  C   UNL     1       5.104   4.282  19.104  0.00  0.00    +0.000 C 
BRANCH   4   5
ATOM      5  C   UNL     1       3.731   4.100  19.784  0.00  0.00    +0.000 C 
BRANCH   5   6
ATOM      6  N   UNL     1       2.610   4.427  18.877  0.00  0.00    +0.000 NA
ATOM      7  C   UNL     1       2.642   3.676  17.601  0.00  0.00    +0.000 C 
ATOM      8  C   UNL     1       2.335   2.172  17.745  0.00  0.00    +0.000 C 
ATOM      9  N   UNL     1       1.018   1.938  18.349  0.00  0.00    +0.000 NA
ATOM     10  C   UNL     1       0.894   2.677  19.615  0.00  0.00    +0.000 C 
ATOM     11  C   UNL     1       1.298   4.170  19.516  0.00  0.00    +0.000 C 
ATOM     12  H   UNL     1       0.890   0.943  18.520  0.00  0.00    +0.000 HD
ENDBRANCH   5   6
ENDBRANCH   4   5
ENDBRANCH   2   4
ENDBRANCH   1   2
BRANCH   1  13
ATOM     13  C   UNL     1       6.964   4.833  17.111  0.00  0.00    +0.000 C 
BRANCH  13  14
ATOM     14  O   UNL     1       8.159   4.045  17.161  0.00  0.00    +0.000 OA
ATOM     15  H   UNL     1       7.868   3.150  17.410  0.00  0.00    +0.000 HD
ENDBRANCH  13  14
BRANCH  13  16
ATOM     16  C   UNL     1       6.984   5.758  15.881  0.00  0.00    +0.000 C 
BRANCH  16  17
ATOM     17  C   UNL     1       6.714   5.021  14.592  0.00  0.00    +0.000 A 
ATOM     18  C   UNL     1       5.599   4.187  14.456  0.00  0.00    +0.000 A 
ATOM     19  C   UNL     1       5.394   3.475  13.276  0.00  0.00    +0.000 A 
ATOM     20  C   UNL     1       6.296   3.592  12.221  0.00  0.00    +0.000 A 
ATOM     21  C   UNL     1       7.406   4.427  12.342  0.00  0.00    +0.000 A 
ATOM     22  C   UNL     1       7.613   5.138  13.523  0.00  0.00    +0.000 A 
ENDBRANCH  16  17
ENDBRANCH  13  16
ENDBRANCH   1  13
TORSDOF 8
ENDMDL
MODEL 9
REMARK VINA RESULT:      -6.2      0.932      1.972
REMARK  Name = 
REMARK  8 active torsions:
REMARK  status: ('A' for Active; 'I' for Inactive)
REMARK    1  A    between atoms: O_1  and  C_2
REMARK    2  A    between atoms: C_2  and  C_3
REMARK    3  A    between atoms: C_2  and  C_13
REMARK    4  A    between atoms: C_3  and  N_4
REMARK    5  A    between atoms: N_4  and  C_5
REMARK    6  A    between atoms: C_5  and  C_6
REMARK    7  A    between atoms: C_6  and  N_7
REMARK    8  A    between atoms: C_13  and  C_14
REMARK                            x       y       z     vdW  Elec       q    Type
REMARK                         _______ _______ _______ _____ _____    ______ ____
ROOT
ATOM      1  C   UNL     1       7.123   4.735  17.634  0.00  0.00    +0.000 C 
ENDROOT
BRANCH   1   2
ATOM      2  N   UNL     1       5.901   3.930  17.844  0.00  0.00    +0.000 NA
ATOM      3  H   UNL     1       6.175   2.947  17.896  0.00  0.00    +0.000 HD
BRANCH   2   4
ATOM      4  C   UNL     1       5.326   4.315  19.146  0.00  0.00    +0.000 C 
BRANCH   4   5
ATOM      5  C   UNL     1       3.805   4.577  19.115  0.00  0.00    +0.000 C 
BRANCH   5   6
ATOM      6  N   UNL     1       3.027   3.332  18.936  0.00  0.00    +0.000 NA
ATOM      7  C   UNL     1       3.210   2.355  20.034  0.00  0.00    +0.000 C 
ATOM      8  C   UNL     1       2.574   2.784  21.372  0.00  0.00    +0.000 C 
ATOM      9  N   UNL     1       1.131   3.020  21.241  0.00  0.00    +0.000 NA
ATOM     10  C   UNL     1       0.862   3.964  20.145  0.00  0.00    +0.000 C 
ATOM     11  C   UNL     1       1.576   3.608  18.817  0.00  0.00    +0.000 C 
ATOM     12  H   UNL     1       0.764   3.394  22.113  0.00  0.00    +0.000 HD
ENDBRANCH   5   6
ENDBRANCH   4   5
ENDBRANCH   2   4
ENDBRANCH   1   2
BRANCH   1  13
ATOM     13  C   UNL     1       6.922   5.881  16.629  0.00  0.00    +0.000 C 
BRANCH  13  14
ATOM     14  O   UNL     1       6.687   7.088  17.364  0.00  0.00    +0.000 OA
ATOM     15  H   UNL     1       6.110   6.831  18.105  0.00  0.00    +0.000 HD
ENDBRANCH  13  14
BRANCH  13  16
ATOM     16  C   UNL     1       5.716   5.560  15.728  0.00  0.00    +0.000 C 
BRANCH  16  17
ATOM     17  C   UNL     1       6.119   4.951  14.407  0.00  0.00    +0.000 A 
ATOM     18  C   UNL     1       5.319   3.989  13.780  0.00  0.00    +0.000 A 
ATOM     19  C   UNL     1       5.733   3.401  12.586  0.00  0.00    +0.000 A 
ATOM     20  C   UNL     1       6.946   3.770  12.006  0.00  0.00    +0.000 A 
ATOM     21  C   UNL     1       7.746   4.734  12.618  0.00  0.00    +0.000 A 
ATOM     22  C   UNL     1       7.333   5.321  13.813  0.00  0.00    +0.000 A 
ENDBRANCH  16  17
ENDBRANCH  13  16
ENDBRANCH   1  13
TORSDOF 8
ENDMDL
