MODEL 1
REMARK VINA RESULT:      -7.4      0.000      0.000
REMARK  Name = 
REMARK  2 active torsions:
REMARK  status: ('A' for Active; 'I' for Inactive)
REMARK    1  A    between atoms: N_3  and  C_4
REMARK    2  A    between atoms: C_12  and  C_13
REMARK                            x       y       z     vdW  Elec       q    Type
REMARK                         _______ _______ _______ _____ _____    ______ ____
ROOT
ATOM      1  O   UNL     1       3.587   7.612  17.488  0.00  0.00    +0.000 OA
ATOM      2  C   UNL     1       3.356   6.792  18.378  0.00  0.00    +0.000 C 
ATOM      3  N   UNL     1       3.947   5.547  18.481  0.00  0.00    +0.000 N 
ATOM      4  N   UNL     1       2.449   7.091  19.392  0.00  0.00    +0.000 N 
ATOM      5  C   UNL     1       1.868   8.310  19.537  0.00  0.00    +0.000 A 
ATOM      6  C   UNL     1       1.123   8.253  20.635  0.00  0.00    +0.000 A 
ATOM      7  O   UNL     1       1.153   6.987  21.256  0.00  0.00    +0.000 OA
ATOM      8  C   UNL     1       2.005   6.278  20.424  0.00  0.00    +0.000 A 
ATOM      9  O   UNL     1       2.289   5.097  20.595  0.00  0.00    +0.000 OA
ATOM     10  H   UNL     1       3.510   4.884  19.120  0.00  0.00    +0.000 HD
ENDROOT
BRANCH   3  11
ATOM     11  C   UNL     1       4.980   5.055  17.659  0.00  0.00    +0.000 A 
ATOM     12  C   UNL     1       6.327   5.127  18.023  0.00  0.00    +0.000 A 
ATOM     13  C   UNL     1       7.324   4.692  17.152  0.00  0.00    +0.000 A 
ATOM     14  C   UNL     1       6.980   4.166  15.911  0.00  0.00    +0.000 A 
ATOM     15  C   UNL     1       5.636   4.045  15.557  0.00  0.00    +0.000 A 
ATOM     16  C   UNL     1       4.637   4.473  16.436  0.00  0.00    +0.000 A 
ENDBRANCH   3  11
BRANCH   6  17
ATOM     17  C   UNL     1       0.336   9.315  21.266  0.00  0.00    +0.000 A 
ATOM     18  C   UNL     1      -0.056   9.244  22.611  0.00  0.00    +0.000 A 
ATOM     19  C   UNL     1      -0.819  10.262  23.188  0.00  0.00    +0.000 A 
ATOM     20  C   UNL     1      -1.202  11.364  22.430  0.00  0.00    +0.000 A 
ATOM     21  C   UNL     1      -0.822  11.451  21.094  0.00  0.00    +0.000 A 
ATOM     22  C   UNL     1      -0.058  10.436  20.517  0.00  0.00    +0.000 A 
ENDBRANCH   6  17
TORSDOF 2
ENDMDL
MODEL 2
REMARK VINA RESULT:      -7.4      0.100      1.056
REMARK  Name = 
REMARK  2 active torsions:
REMARK  status: ('A' for Active; 'I' for Inactive)
REMARK    1  A    between atoms: N_3  and  C_4
REMARK    2  A    between atoms: C_12  and  C_13
REMARK                            x       y       z     vdW  Elec       q    Type
REMARK                         _______ _______ _______ _____ _____    ______ ____
ROOT
ATOM      1  O   UNL     1       3.550   7.652  17.503  0.00  0.00    +0.000 OA
ATOM      2  C   UNL     1       3.325   6.844  18.406  0.00  0.00    +0.000 C 
ATOM      3  N   UNL     1       3.927   5.605  18.528  0.00  0.00    +0.000 N 
ATOM      4  N   UNL     1       2.416   7.151  19.416  0.00  0.00    +0.000 N 
ATOM      5  C   UNL     1       1.826   8.368  19.542  0.00  0.00    +0.000 A 
ATOM      6  C   UNL     1       1.082   8.323  20.641  0.00  0.00    +0.000 A 
ATOM      7  O   UNL     1       1.121   7.066  21.281  0.00  0.00    +0.000 OA
ATOM      8  C   UNL     1       1.978   6.351  20.460  0.00  0.00    +0.000 A 
ATOM      9  O   UNL     1       2.272   5.175  20.650  0.00  0.00    +0.000 OA
ATOM     10  H   UNL     1       3.495   4.949  19.177  0.00  0.00    +0.000 HD
ENDROOT
BRANCH   3  11
ATOM     11  C   UNL     1       4.962   5.109  17.714  0.00  0.00    +0.000 A 
ATOM     12  C   UNL     1       6.313   5.290  18.024  0.00  0.00    +0.000 A 
ATOM     13  C   UNL     1       7.308   4.844  17.158  0.00  0.00    +0.000 A 
ATOM     14  C   UNL     1       6.961   4.198  15.976  0.00  0.00    +0.000 A 
ATOM     15  C   UNL     1       5.618   3.969  15.679  0.00  0.00    +0.000 A 
ATOM     16  C   UNL     1       4.620   4.408  16.555  0.00  0.00    +0.000 A 
ENDBRANCH   3  11
BRANCH   6  17
ATOM     17  C   UNL     1       0.286   9.388  21.255  0.00  0.00    +0.000 A 
ATOM     18  C   UNL     1      -0.070  10.546  20.546  0.00  0.00    +0.000 A 
ATOM     19  C   UNL     1      -0.817  11.556  21.156  0.00  0.00    +0.000 A 
ATOM     20  C   UNL     1      -1.219  11.425  22.482  0.00  0.00    +0.000 A 
ATOM     21  C   UNL     1      -0.876  10.283  23.200  0.00  0.00    +0.000 A 
ATOM     22  C   UNL     1      -0.130   9.272  22.591  0.00  0.00    +0.000 A 
ENDBRANCH   6  17
TORSDOF 2
ENDMDL
MODEL 3
REMARK VINA RESULT:      -7.3      0.133      1.492
REMARK  Name = 
REMARK  2 active torsions:
REMARK  status: ('A' for Active; 'I' for Inactive)
REMARK    1  A    between atoms: N_3  and  C_4
REMARK    2  A    between atoms: C_12  and  C_13
REMARK                            x       y       z     vdW  Elec       q    Type
REMARK                         _______ _______ _______ _____ _____    ______ ____
ROOT
ATOM      1  O   UNL     1       3.491   7.726  17.416  0.00  0.00    +0.000 OA
ATOM      2  C   UNL     1       3.299   6.910  18.319  0.00  0.00    +0.000 C 
ATOM      3  N   UNL     1       3.922   5.680  18.420  0.00  0.00    +0.000 N 
ATOM      4  N   UNL     1       2.409   7.198  19.351  0.00  0.00    +0.000 N 
ATOM      5  C   UNL     1       1.803   8.405  19.497  0.00  0.00    +0.000 A 
ATOM      6  C   UNL     1       1.085   8.342  20.613  0.00  0.00    +0.000 A 
ATOM      7  O   UNL     1       1.158   7.083  21.244  0.00  0.00    +0.000 OA
ATOM      8  C   UNL     1       2.007   6.386  20.400  0.00  0.00    +0.000 A 
ATOM      9  O   UNL     1       2.323   5.213  20.576  0.00  0.00    +0.000 OA
ATOM     10  H   UNL     1       3.515   5.014  19.075  0.00  0.00    +0.000 HD
ENDROOT
BRANCH   3  11
ATOM     11  C   UNL     1       4.946   5.204  17.580  0.00  0.00    +0.000 A 
ATOM     12  C   UNL     1       4.684   4.565  16.365  0.00  0.00    +0.000 A 
ATOM     13  C   UNL     1       5.723   4.046  15.595  0.00  0.00    +0.000 A 
ATOM     14  C   UNL     1       7.039   4.175  16.027  0.00  0.00    +0.000 A 
ATOM     15  C   UNL     1       7.315   4.853  17.214  0.00  0.00    +0.000 A 
ATOM     16  C   UNL     1       6.273   5.381  17.981  0.00  0.00    +0.000 A 
ENDBRANCH   3  11
BRANCH   6  17
ATOM     17  C   UNL     1       0.288   9.392  21.251  0.00  0.00    +0.000 A 
ATOM     18  C   UNL     1      -0.111  10.543  20.554  0.00  0.00    +0.000 A 
ATOM     19  C   UNL     1      -0.859  11.538  21.186  0.00  0.00    +0.000 A 
ATOM     20  C   UNL     1      -1.220  11.399  22.523  0.00  0.00    +0.000 A 
ATOM     21  C   UNL     1      -0.834  10.264  23.229  0.00  0.00    +0.000 A 
ATOM     22  C   UNL     1      -0.087   9.268  22.598  0.00  0.00    +0.000 A 
ENDBRANCH   6  17
TORSDOF 2
ENDMDL
MODEL 4
REMARK VINA RESULT:      -7.3      0.118      1.057
REMARK  Name = 
REMARK  2 active torsions:
REMARK  status: ('A' for Active; 'I' for Inactive)
REMARK    1  A    between atoms: N_3  and  C_4
REMARK    2  A    between atoms: C_12  and  C_13
REMARK                            x       y       z     vdW  Elec       q    Type
REMARK                         _______ _______ _______ _____ _____    ______ ____
ROOT
ATOM      1  O   UNL     1       3.527   7.716  17.398  0.00  0.00    +0.000 OA
ATOM      2  C   UNL     1       3.333   6.893  18.294  0.00  0.00    +0.000 C 
ATOM      3  N   UNL     1       3.946   5.657  18.381  0.00  0.00    +0.000 N 
ATOM      4  N   UNL     1       2.449   7.177  19.332  0.00  0.00    +0.000 N 
ATOM      5  C   UNL     1       1.852   8.387  19.492  0.00  0.00    +0.000 A 
ATOM      6  C   UNL     1       1.138   8.319  20.610  0.00  0.00    +0.000 A 
ATOM      7  O   UNL     1       1.204   7.053  21.229  0.00  0.00    +0.000 OA
ATOM      8  C   UNL     1       2.045   6.358  20.375  0.00  0.00    +0.000 A 
ATOM      9  O   UNL     1       2.352   5.181  20.538  0.00  0.00    +0.000 OA
ATOM     10  H   UNL     1       3.537   4.988  19.031  0.00  0.00    +0.000 HD
ENDROOT
BRANCH   3  11
ATOM     11  C   UNL     1       4.964   5.182  17.532  0.00  0.00    +0.000 A 
ATOM     12  C   UNL     1       4.698   4.636  16.273  0.00  0.00    +0.000 A 
ATOM     13  C   UNL     1       5.726   4.113  15.492  0.00  0.00    +0.000 A 
ATOM     14  C   UNL     1       7.036   4.144  15.958  0.00  0.00    +0.000 A 
ATOM     15  C   UNL     1       7.320   4.728  17.192  0.00  0.00    +0.000 A 
ATOM     16  C   UNL     1       6.288   5.262  17.971  0.00  0.00    +0.000 A 
ENDBRANCH   3  11
BRANCH   6  17
ATOM     17  C   UNL     1       0.351   9.368  21.261  0.00  0.00    +0.000 A 
ATOM     18  C   UNL     1      -0.091   9.245  22.588  0.00  0.00    +0.000 A 
ATOM     19  C   UNL     1      -0.853  10.251  23.184  0.00  0.00    +0.000 A 
ATOM     20  C   UNL     1      -1.185  11.396  22.465  0.00  0.00    +0.000 A 
ATOM     21  C   UNL     1      -0.755  11.536  21.149  0.00  0.00    +0.000 A 
ATOM     22  C   UNL     1       0.008  10.531  20.552  0.00  0.00    +0.000 A 
ENDBRANCH   6  17
TORSDOF 2
ENDMDL
MODEL 5
REMARK VINA RESULT:      -7.3      2.889      7.474
REMARK  Name = 
REMARK  2 active torsions:
REMARK  status: ('A' for Active; 'I' for Inactive)
REMARK    1  A    between atoms: N_3  and  C_4
REMARK    2  A    between atoms: C_12  and  C_13
REMARK                            x       y       z     vdW  Elec       q    Type
REMARK                         _______ _______ _______ _____ _____    ______ ____
ROOT
ATOM      1  O   UNL     1       2.154   9.245  17.356  0.00  0.00    +0.000 OA
ATOM      2  C   UNL     1       1.810   9.024  18.518  0.00  0.00    +0.000 C 
ATOM      3  N   UNL     1       1.206   9.944  19.354  0.00  0.00    +0.000 N 
ATOM      4  N   UNL     1       2.007   7.767  19.083  0.00  0.00    +0.000 N 
ATOM      5  C   UNL     1       2.463   6.697  18.381  0.00  0.00    +0.000 A 
ATOM      6  C   UNL     1       2.463   5.662  19.213  0.00  0.00    +0.000 A 
ATOM      7  O   UNL     1       2.034   6.000  20.513  0.00  0.00    +0.000 OA
ATOM      8  C   UNL     1       1.761   7.353  20.383  0.00  0.00    +0.000 A 
ATOM      9  O   UNL     1       1.376   8.057  21.311  0.00  0.00    +0.000 OA
ATOM     10  H   UNL     1       1.180   9.713  20.346  0.00  0.00    +0.000 HD
ENDROOT
BRANCH   3  11
ATOM     11  C   UNL     1       0.788  11.238  18.989  0.00  0.00    +0.000 A 
ATOM     12  C   UNL     1       1.661  12.329  18.962  0.00  0.00    +0.000 A 
ATOM     13  C   UNL     1       1.195  13.607  18.663  0.00  0.00    +0.000 A 
ATOM     14  C   UNL     1      -0.151  13.805  18.373  0.00  0.00    +0.000 A 
ATOM     15  C   UNL     1      -1.022  12.716  18.350  0.00  0.00    +0.000 A 
ATOM     16  C   UNL     1      -0.551  11.432  18.641  0.00  0.00    +0.000 A 
ENDBRANCH   3  11
BRANCH   6  17
ATOM     17  C   UNL     1       2.811   4.265  18.940  0.00  0.00    +0.000 A 
ATOM     18  C   UNL     1       3.758   3.576  19.714  0.00  0.00    +0.000 A 
ATOM     19  C   UNL     1       4.086   2.249  19.427  0.00  0.00    +0.000 A 
ATOM     20  C   UNL     1       3.473   1.592  18.365  0.00  0.00    +0.000 A 
ATOM     21  C   UNL     1       2.531   2.259  17.588  0.00  0.00    +0.000 A 
ATOM     22  C   UNL     1       2.202   3.585  17.874  0.00  0.00    +0.000 A 
ENDBRANCH   6  17
TORSDOF 2
ENDMDL
MODEL 6
REMARK VINA RESULT:      -7.3      2.887      7.530
REMARK  Name = 
REMARK  2 active torsions:
REMARK  status: ('A' for Active; 'I' for Inactive)
REMARK    1  A    between atoms: N_3  and  C_4
REMARK    2  A    between atoms: C_12  and  C_13
REMARK                            x       y       z     vdW  Elec       q    Type
REMARK                         _______ _______ _______ _____ _____    ______ ____
ROOT
ATOM      1  O   UNL     1       2.120   9.291  17.340  0.00  0.00    +0.000 OA
ATOM      2  C   UNL     1       1.792   9.066  18.506  0.00  0.00    +0.000 C 
ATOM      3  N   UNL     1       1.201   9.986  19.353  0.00  0.00    +0.000 N 
ATOM      4  N   UNL     1       1.997   7.808  19.066  0.00  0.00    +0.000 N 
ATOM      5  C   UNL     1       2.442   6.740  18.354  0.00  0.00    +0.000 A 
ATOM      6  C   UNL     1       2.452   5.702  19.184  0.00  0.00    +0.000 A 
ATOM      7  O   UNL     1       2.042   6.038  20.491  0.00  0.00    +0.000 OA
ATOM      8  C   UNL     1       1.768   7.391  20.368  0.00  0.00    +0.000 A 
ATOM      9  O   UNL     1       1.397   8.093  21.303  0.00  0.00    +0.000 OA
ATOM     10  H   UNL     1       1.189   9.752  20.345  0.00  0.00    +0.000 HD
ENDROOT
BRANCH   3  11
ATOM     11  C   UNL     1       0.779  11.281  18.997  0.00  0.00    +0.000 A 
ATOM     12  C   UNL     1       1.648  12.376  18.984  0.00  0.00    +0.000 A 
ATOM     13  C   UNL     1       1.177  13.654  18.694  0.00  0.00    +0.000 A 
ATOM     14  C   UNL     1      -0.168  13.848  18.399  0.00  0.00    +0.000 A 
ATOM     15  C   UNL     1      -1.035  12.756  18.363  0.00  0.00    +0.000 A 
ATOM     16  C   UNL     1      -0.559  11.472  18.645  0.00  0.00    +0.000 A 
ENDBRANCH   3  11
BRANCH   6  17
ATOM     17  C   UNL     1       2.795   4.306  18.903  0.00  0.00    +0.000 A 
ATOM     18  C   UNL     1       2.152   3.577  17.890  0.00  0.00    +0.000 A 
ATOM     19  C   UNL     1       2.485   2.242  17.649  0.00  0.00    +0.000 A 
ATOM     20  C   UNL     1       3.464   1.617  18.415  0.00  0.00    +0.000 A 
ATOM     21  C   UNL     1       4.113   2.325  19.422  0.00  0.00    +0.000 A 
ATOM     22  C   UNL     1       3.782   3.659  19.664  0.00  0.00    +0.000 A 
ENDBRANCH   6  17
TORSDOF 2
ENDMDL
MODEL 7
REMARK VINA RESULT:      -7.1      2.856      7.612
REMARK  Name = 
REMARK  2 active torsions:
REMARK  status: ('A' for Active; 'I' for Inactive)
REMARK    1  A    between atoms: N_3  and  C_4
REMARK    2  A    between atoms: C_12  and  C_13
REMARK                            x       y       z     vdW  Elec       q    Type
REMARK                         _______ _______ _______ _____ _____    ______ ____
ROOT
ATOM      1  O   UNL     1       2.069   9.420  17.422  0.00  0.00    +0.000 OA
ATOM      2  C   UNL     1       1.756   9.163  18.585  0.00  0.00    +0.000 C 
ATOM      3  N   UNL     1       1.168  10.055  19.462  0.00  0.00    +0.000 N 
ATOM      4  N   UNL     1       1.973   7.891  19.109  0.00  0.00    +0.000 N 
ATOM      5  C   UNL     1       2.417   6.845  18.364  0.00  0.00    +0.000 A 
ATOM      6  C   UNL     1       2.443   5.786  19.165  0.00  0.00    +0.000 A 
ATOM      7  O   UNL     1       2.044   6.084  20.485  0.00  0.00    +0.000 OA
ATOM      8  C   UNL     1       1.762   7.438  20.402  0.00  0.00    +0.000 A 
ATOM      9  O   UNL     1       1.396   8.113  21.359  0.00  0.00    +0.000 OA
ATOM     10  H   UNL     1       1.168   9.795  20.447  0.00  0.00    +0.000 HD
ENDROOT
BRANCH   3  11
ATOM     11  C   UNL     1       0.734  11.357  19.146  0.00  0.00    +0.000 A 
ATOM     12  C   UNL     1      -0.520  11.615  18.586  0.00  0.00    +0.000 A 
ATOM     13  C   UNL     1      -0.885  12.909  18.223  0.00  0.00    +0.000 A 
ATOM     14  C   UNL     1      -0.001  13.963  18.431  0.00  0.00    +0.000 A 
ATOM     15  C   UNL     1       1.234  13.724  19.033  0.00  0.00    +0.000 A 
ATOM     16  C   UNL     1       1.595  12.426  19.405  0.00  0.00    +0.000 A 
ENDBRANCH   3  11
BRANCH   6  17
ATOM     17  C   UNL     1       2.792   4.400  18.843  0.00  0.00    +0.000 A 
ATOM     18  C   UNL     1       2.209   3.724  17.760  0.00  0.00    +0.000 A 
ATOM     19  C   UNL     1       2.545   2.398  17.480  0.00  0.00    +0.000 A 
ATOM     20  C   UNL     1       3.468   1.728  18.278  0.00  0.00    +0.000 A 
ATOM     21  C   UNL     1       4.056   2.382  19.356  0.00  0.00    +0.000 A 
ATOM     22  C   UNL     1       3.722   3.708  19.636  0.00  0.00    +0.000 A 
ENDBRANCH   6  17
TORSDOF 2
ENDMDL
MODEL 8
REMARK VINA RESULT:      -7.1      2.846      7.569
REMARK  Name = 
REMARK  2 active torsions:
REMARK  status: ('A' for Active; 'I' for Inactive)
REMARK    1  A    between atoms: N_3  and  C_4
REMARK    2  A    between atoms: C_12  and  C_13
REMARK                            x       y       z     vdW  Elec       q    Type
REMARK                         _______ _______ _______ _____ _____    ______ ____
ROOT
ATOM      1  O   UNL     1       2.048   9.444  17.468  0.00  0.00    +0.000 OA
ATOM      2  C   UNL     1       1.725   9.183  18.628  0.00  0.00    +0.000 C 
ATOM      3  N   UNL     1       1.125  10.072  19.501  0.00  0.00    +0.000 N 
ATOM      4  N   UNL     1       1.943   7.912  19.152  0.00  0.00    +0.000 N 
ATOM      5  C   UNL     1       2.399   6.869  18.410  0.00  0.00    +0.000 A 
ATOM      6  C   UNL     1       2.422   5.809  19.210  0.00  0.00    +0.000 A 
ATOM      7  O   UNL     1       2.010   6.103  20.527  0.00  0.00    +0.000 OA
ATOM      8  C   UNL     1       1.722   7.456  20.442  0.00  0.00    +0.000 A 
ATOM      9  O   UNL     1       1.344   8.128  21.397  0.00  0.00    +0.000 OA
ATOM     10  H   UNL     1       1.117   9.811  20.486  0.00  0.00    +0.000 HD
ENDROOT
BRANCH   3  11
ATOM     11  C   UNL     1       0.688  11.372  19.182  0.00  0.00    +0.000 A 
ATOM     12  C   UNL     1      -0.563  11.626  18.615  0.00  0.00    +0.000 A 
ATOM     13  C   UNL     1      -0.931  12.919  18.250  0.00  0.00    +0.000 A 
ATOM     14  C   UNL     1      -0.052  13.976  18.463  0.00  0.00    +0.000 A 
ATOM     15  C   UNL     1       1.180  13.742  19.072  0.00  0.00    +0.000 A 
ATOM     16  C   UNL     1       1.544  12.445  19.447  0.00  0.00    +0.000 A 
ENDBRANCH   3  11
BRANCH   6  17
ATOM     17  C   UNL     1       2.780   4.425  18.890  0.00  0.00    +0.000 A 
ATOM     18  C   UNL     1       3.693   3.699  19.670  0.00  0.00    +0.000 A 
ATOM     19  C   UNL     1       4.030   2.385  19.338  0.00  0.00    +0.000 A 
ATOM     20  C   UNL     1       3.462   1.778  18.223  0.00  0.00    +0.000 A 
ATOM     21  C   UNL     1       2.554   2.482  17.438  0.00  0.00    +0.000 A 
ATOM     22  C   UNL     1       2.215   3.795  17.769  0.00  0.00    +0.000 A 
ENDBRANCH   6  17
TORSDOF 2
ENDMDL
MODEL 9
REMARK VINA RESULT:      -7.1      1.773      8.004
REMARK  Name = 
REMARK  2 active torsions:
REMARK  status: ('A' for Active; 'I' for Inactive)
REMARK    1  A    between atoms: N_3  and  C_4
REMARK    2  A    between atoms: C_12  and  C_13
REMARK                            x       y       z     vdW  Elec       q    Type
REMARK                         _______ _______ _______ _____ _____    ______ ____
ROOT
ATOM      1  O   UNL     1       1.999  10.117  17.474  0.00  0.00    +0.000 OA
ATOM      2  C   UNL     1       1.767   9.245  18.313  0.00  0.00    +0.000 C 
ATOM      3  N   UNL     1       0.722   9.275  19.218  0.00  0.00    +0.000 N 
ATOM      4  N   UNL     1       2.576   8.114  18.396  0.00  0.00    +0.000 N 
ATOM      5  C   UNL     1       3.568   7.841  17.510  0.00  0.00    +0.000 A 
ATOM      6  C   UNL     1       4.078   6.664  17.853  0.00  0.00    +0.000 A 
ATOM      7  O   UNL     1       3.468   6.113  18.999  0.00  0.00    +0.000 OA
ATOM      8  C   UNL     1       2.522   7.076  19.313  0.00  0.00    +0.000 A 
ATOM      9  O   UNL     1       1.772   6.998  20.282  0.00  0.00    +0.000 OA
ATOM     10  H   UNL     1       0.773   8.620  19.997  0.00  0.00    +0.000 HD
ENDROOT
BRANCH   3  11
ATOM     11  C   UNL     1      -0.303  10.240  19.261  0.00  0.00    +0.000 A 
ATOM     12  C   UNL     1      -0.386  11.201  20.271  0.00  0.00    +0.000 A 
ATOM     13  C   UNL     1      -1.454  12.094  20.318  0.00  0.00    +0.000 A 
ATOM     14  C   UNL     1      -2.445  12.043  19.342  0.00  0.00    +0.000 A 
ATOM     15  C   UNL     1      -2.347  11.119  18.302  0.00  0.00    +0.000 A 
ATOM     16  C   UNL     1      -1.269  10.229  18.252  0.00  0.00    +0.000 A 
ENDBRANCH   3  11
BRANCH   6  17
ATOM     17  C   UNL     1       5.131   5.892  17.191  0.00  0.00    +0.000 A 
ATOM     18  C   UNL     1       6.175   5.294  17.915  0.00  0.00    +0.000 A 
ATOM     19  C   UNL     1       7.177   4.574  17.261  0.00  0.00    +0.000 A 
ATOM     20  C   UNL     1       7.153   4.441  15.876  0.00  0.00    +0.000 A 
ATOM     21  C   UNL     1       6.126   5.027  15.142  0.00  0.00    +0.000 A 
ATOM     22  C   UNL     1       5.122   5.746  15.794  0.00  0.00    +0.000 A 
ENDBRANCH   6  17
TORSDOF 2
ENDMDL
