MODEL 1
REMARK VINA RESULT:      -8.0      0.000      0.000
REMARK  Name = 
REMARK  8 active torsions:
REMARK  status: ('A' for Active; 'I' for Inactive)
REMARK    1  A    between atoms: C_1  and  C_2
REMARK    2  A    between atoms: C_2  and  C_3
REMARK    3  A    between atoms: C_3  and  C_4
REMARK    4  A    between atoms: C_6  and  C_7
REMARK    5  A    between atoms: C_10  and  O_11
REMARK    6  A    between atoms: O_11  and  C_12
REMARK    7  A    between atoms: C_15  and  C_16
REMARK    8  A    between atoms: C_19  and  O_20
REMARK                            x       y       z     vdW  Elec       q    Type
REMARK                         _______ _______ _______ _____ _____    ______ ____
ROOT
ATOM      1  C   UNL     1       5.019   5.408  16.069  0.00  0.00    +0.000 A 
ATOM      2  C   UNL     1       5.134   6.722  16.532  0.00  0.00    +0.000 A 
ATOM      3  C   UNL     1       4.401   7.145  17.646  0.00  0.00    +0.000 A 
ATOM      4  C   UNL     1       3.529   6.270  18.307  0.00  0.00    +0.000 A 
ATOM      5  C   UNL     1       3.320   4.991  17.770  0.00  0.00    +0.000 A 
ATOM      6 CL   UNL     1       2.085   3.901  18.303  0.00  0.00    +0.000 Cl
ATOM      7  C   UNL     1       4.099   4.553  16.690  0.00  0.00    +0.000 A 
ENDROOT
BRANCH   1  10
ATOM      8  C   UNL     1       6.577   3.933  13.123  0.00  0.00    +0.000 A 
ATOM      9  C   UNL     1       5.470   4.007  13.933  0.00  0.00    +0.000 A 
ATOM     10  C   UNL     1       5.836   4.926  14.959  0.00  0.00    +0.000 A 
ATOM     11  N   UNL     1       7.091   5.361  14.761  0.00  0.00    +0.000 NA
ATOM     12  O   UNL     1       7.545   4.743  13.614  0.00  0.00    +0.000 OA
BRANCH   8  13
ATOM     13  C   UNL     1       6.875   3.212  11.868  0.00  0.00    +0.000 C 
BRANCH  13  15
ATOM     14  C   UNL     1       6.370   0.894  11.045  0.00  0.00    +0.000 C 
ATOM     15  C   UNL     1       5.777   2.213  11.511  0.00  0.00    +0.000 C 
ENDBRANCH  13  15
ENDBRANCH   8  13
ENDBRANCH   1  10
BRANCH   4  16
ATOM     16  O   UNL     1       2.919   6.837  19.404  0.00  0.00    +0.000 OA
BRANCH  16  17
ATOM     17  C   UNL     1       2.039   7.883  19.256  0.00  0.00    +0.000 A 
ATOM     18  C   UNL     1       1.686   8.439  18.023  0.00  0.00    +0.000 A 
ATOM     19  C   UNL     1       0.965   9.636  17.985  0.00  0.00    +0.000 A 
ATOM     20  C   UNL     1       0.524  10.227  19.173  0.00  0.00    +0.000 A 
ATOM     21  C   UNL     1       0.738   9.584  20.397  0.00  0.00    +0.000 A 
ATOM     22  C   UNL     1       1.492   8.413  20.430  0.00  0.00    +0.000 A 
BRANCH  20  23
ATOM     23  C   UNL     1      -0.118  11.509  19.143  0.00  0.00    +0.000 C 
ATOM     24  N   UNL     1      -0.630  12.547  19.087  0.00  0.00    +0.000 NA
ENDBRANCH  20  23
BRANCH  22  25
ATOM     25  O   UNL     1       1.730   7.781  21.620  0.00  0.00    +0.000 OA
ATOM     26  H   UNL     1       2.683   7.626  21.723  0.00  0.00    +0.000 HD
ENDBRANCH  22  25
ENDBRANCH  16  17
ENDBRANCH   4  16
TORSDOF 7
ENDMDL
MODEL 2
REMARK VINA RESULT:      -7.6      2.960      4.469
REMARK  Name = 
REMARK  8 active torsions:
REMARK  status: ('A' for Active; 'I' for Inactive)
REMARK    1  A    between atoms: C_1  and  C_2
REMARK    2  A    between atoms: C_2  and  C_3
REMARK    3  A    between atoms: C_3  and  C_4
REMARK    4  A    between atoms: C_6  and  C_7
REMARK    5  A    between atoms: C_10  and  O_11
REMARK    6  A    between atoms: O_11  and  C_12
REMARK    7  A    between atoms: C_15  and  C_16
REMARK    8  A    between atoms: C_19  and  O_20
REMARK                            x       y       z     vdW  Elec       q    Type
REMARK                         _______ _______ _______ _____ _____    ______ ____
ROOT
ATOM      1  C   UNL     1       2.851   7.333  18.481  0.00  0.00    +0.000 A 
ATOM      2  C   UNL     1       2.626   8.360  17.559  0.00  0.00    +0.000 A 
ATOM      3  C   UNL     1       1.833   9.459  17.906  0.00  0.00    +0.000 A 
ATOM      4  C   UNL     1       1.235   9.542  19.170  0.00  0.00    +0.000 A 
ATOM      5  C   UNL     1       1.357   8.456  20.049  0.00  0.00    +0.000 A 
ATOM      6 CL   UNL     1       0.462   8.289  21.522  0.00  0.00    +0.000 Cl
ATOM      7  C   UNL     1       2.200   7.386  19.720  0.00  0.00    +0.000 A 
ENDROOT
BRANCH   1  10
ATOM      8  C   UNL     1       5.183   4.840  17.204  0.00  0.00    +0.000 A 
ATOM      9  C   UNL     1       4.478   5.994  16.967  0.00  0.00    +0.000 A 
ATOM     10  C   UNL     1       3.741   6.219  18.165  0.00  0.00    +0.000 A 
ATOM     11  N   UNL     1       3.998   5.245  19.053  0.00  0.00    +0.000 NA
ATOM     12  O   UNL     1       4.901   4.393  18.450  0.00  0.00    +0.000 OA
BRANCH   8  13
ATOM     13  C   UNL     1       6.166   4.067  16.417  0.00  0.00    +0.000 C 
BRANCH  13  15
ATOM     14  C   UNL     1       6.166   3.948  13.909  0.00  0.00    +0.000 C 
ATOM     15  C   UNL     1       6.547   4.780  15.123  0.00  0.00    +0.000 C 
ENDBRANCH  13  15
ENDBRANCH   8  13
ENDBRANCH   1  10
BRANCH   4  16
ATOM     16  O   UNL     1       0.521  10.706  19.357  0.00  0.00    +0.000 OA
BRANCH  16  17
ATOM     17  C   UNL     1      -0.794  10.794  18.961  0.00  0.00    +0.000 A 
ATOM     18  C   UNL     1      -1.348  10.048  17.917  0.00  0.00    +0.000 A 
ATOM     19  C   UNL     1      -2.623  10.366  17.441  0.00  0.00    +0.000 A 
ATOM     20  C   UNL     1      -3.375  11.367  18.065  0.00  0.00    +0.000 A 
ATOM     21  C   UNL     1      -2.884  12.002  19.210  0.00  0.00    +0.000 A 
ATOM     22  C   UNL     1      -1.596  11.708  19.654  0.00  0.00    +0.000 A 
BRANCH  20  23
ATOM     23  C   UNL     1      -4.635  11.769  17.509  0.00  0.00    +0.000 C 
ATOM     24  N   UNL     1      -5.663  12.065  17.064  0.00  0.00    +0.000 NA
ENDBRANCH  20  23
BRANCH  22  25
ATOM     25  O   UNL     1      -1.090  12.334  20.760  0.00  0.00    +0.000 OA
ATOM     26  H   UNL     1      -1.148  11.740  21.527  0.00  0.00    +0.000 HD
ENDBRANCH  22  25
ENDBRANCH  16  17
ENDBRANCH   4  16
TORSDOF 7
ENDMDL
MODEL 3
REMARK VINA RESULT:      -7.4      3.651      5.325
REMARK  Name = 
REMARK  8 active torsions:
REMARK  status: ('A' for Active; 'I' for Inactive)
REMARK    1  A    between atoms: C_1  and  C_2
REMARK    2  A    between atoms: C_2  and  C_3
REMARK    3  A    between atoms: C_3  and  C_4
REMARK    4  A    between atoms: C_6  and  C_7
REMARK    5  A    between atoms: C_10  and  O_11
REMARK    6  A    between atoms: O_11  and  C_12
REMARK    7  A    between atoms: C_15  and  C_16
REMARK    8  A    between atoms: C_19  and  O_20
REMARK                            x       y       z     vdW  Elec       q    Type
REMARK                         _______ _______ _______ _____ _____    ______ ____
ROOT
ATOM      1  C   UNL     1       2.493   7.684  18.786  0.00  0.00    +0.000 A 
ATOM      2  C   UNL     1       2.263   8.640  17.792  0.00  0.00    +0.000 A 
ATOM      3  C   UNL     1       1.440   9.741  18.050  0.00  0.00    +0.000 A 
ATOM      4  C   UNL     1       0.817   9.897  19.295  0.00  0.00    +0.000 A 
ATOM      5  C   UNL     1       0.946   8.876  20.248  0.00  0.00    +0.000 A 
ATOM      6 CL   UNL     1       0.029   8.790  21.714  0.00  0.00    +0.000 Cl
ATOM      7  C   UNL     1       1.819   7.805  20.007  0.00  0.00    +0.000 A 
ENDROOT
BRANCH   1  10
ATOM      8  C   UNL     1       4.956   5.201  17.758  0.00  0.00    +0.000 A 
ATOM      9  C   UNL     1       4.284   6.360  17.456  0.00  0.00    +0.000 A 
ATOM     10  C   UNL     1       3.413   6.572  18.563  0.00  0.00    +0.000 A 
ATOM     11  N   UNL     1       3.563   5.585  19.462  0.00  0.00    +0.000 NA
ATOM     12  O   UNL     1       4.528   4.738  18.957  0.00  0.00    +0.000 OA
BRANCH   8  13
ATOM     13  C   UNL     1       6.023   4.435  17.083  0.00  0.00    +0.000 C 
BRANCH  13  15
ATOM     14  C   UNL     1       7.603   6.100  18.103  0.00  0.00    +0.000 C 
ATOM     15  C   UNL     1       7.379   4.637  17.753  0.00  0.00    +0.000 C 
ENDBRANCH  13  15
ENDBRANCH   8  13
ENDBRANCH   1  10
BRANCH   4  16
ATOM     16  O   UNL     1       0.075  11.054  19.390  0.00  0.00    +0.000 OA
BRANCH  16  17
ATOM     17  C   UNL     1      -1.265  11.056  19.078  0.00  0.00    +0.000 A 
ATOM     18  C   UNL     1      -1.850  10.206  18.134  0.00  0.00    +0.000 A 
ATOM     19  C   UNL     1      -3.166  10.432  17.722  0.00  0.00    +0.000 A 
ATOM     20  C   UNL     1      -3.922  11.449  18.314  0.00  0.00    +0.000 A 
ATOM     21  C   UNL     1      -3.388  12.194  19.371  0.00  0.00    +0.000 A 
ATOM     22  C   UNL     1      -2.063  11.990  19.749  0.00  0.00    +0.000 A 
BRANCH  20  23
ATOM     23  C   UNL     1      -5.231  11.753  17.815  0.00  0.00    +0.000 C 
ATOM     24  N   UNL     1      -6.278  11.998  17.383  0.00  0.00    +0.000 NA
ENDBRANCH  20  23
BRANCH  22  25
ATOM     25  O   UNL     1      -1.517  12.723  20.767  0.00  0.00    +0.000 OA
ATOM     26  H   UNL     1      -2.221  13.187  21.250  0.00  0.00    +0.000 HD
ENDBRANCH  22  25
ENDBRANCH  16  17
ENDBRANCH   4  16
TORSDOF 7
ENDMDL
MODEL 4
REMARK VINA RESULT:      -7.3      3.651      5.536
REMARK  Name = 
REMARK  8 active torsions:
REMARK  status: ('A' for Active; 'I' for Inactive)
REMARK    1  A    between atoms: C_1  and  C_2
REMARK    2  A    between atoms: C_2  and  C_3
REMARK    3  A    between atoms: C_3  and  C_4
REMARK    4  A    between atoms: C_6  and  C_7
REMARK    5  A    between atoms: C_10  and  O_11
REMARK    6  A    between atoms: O_11  and  C_12
REMARK    7  A    between atoms: C_15  and  C_16
REMARK    8  A    between atoms: C_19  and  O_20
REMARK                            x       y       z     vdW  Elec       q    Type
REMARK                         _______ _______ _______ _____ _____    ______ ____
ROOT
ATOM      1  C   UNL     1       2.293   7.758  18.841  0.00  0.00    +0.000 A 
ATOM      2  C   UNL     1       1.864   8.602  17.812  0.00  0.00    +0.000 A 
ATOM      3  C   UNL     1       0.980   9.651  18.082  0.00  0.00    +0.000 A 
ATOM      4  C   UNL     1       0.493   9.865  19.379  0.00  0.00    +0.000 A 
ATOM      5  C   UNL     1       0.823   8.945  20.385  0.00  0.00    +0.000 A 
ATOM      6 CL   UNL     1       0.092   8.913  21.954  0.00  0.00    +0.000 Cl
ATOM      7  C   UNL     1       1.756   7.932  20.122  0.00  0.00    +0.000 A 
ENDROOT
BRANCH   1  10
ATOM      8  C   UNL     1       4.907   5.457  17.765  0.00  0.00    +0.000 A 
ATOM      9  C   UNL     1       4.174   6.585  17.492  0.00  0.00    +0.000 A 
ATOM     10  C   UNL     1       3.278   6.709  18.593  0.00  0.00    +0.000 A 
ATOM     11  N   UNL     1       3.475   5.703  19.461  0.00  0.00    +0.000 NA
ATOM     12  O   UNL     1       4.494   4.931  18.942  0.00  0.00    +0.000 OA
BRANCH   8  13
ATOM     13  C   UNL     1       6.025   4.777  17.079  0.00  0.00    +0.000 C 
BRANCH  13  15
ATOM     14  C   UNL     1       7.657   6.216  18.333  0.00  0.00    +0.000 C 
ATOM     15  C   UNL     1       7.302   4.799  17.914  0.00  0.00    +0.000 C 
ENDBRANCH  13  15
ENDBRANCH   8  13
ENDBRANCH   1  10
BRANCH   4  16
ATOM     16  O   UNL     1      -0.336  10.961  19.474  0.00  0.00    +0.000 OA
BRANCH  16  17
ATOM     17  C   UNL     1       0.182  12.236  19.460  0.00  0.00    +0.000 A 
ATOM     18  C   UNL     1       1.166  12.689  20.343  0.00  0.00    +0.000 A 
ATOM     19  C   UNL     1       1.467  14.053  20.402  0.00  0.00    +0.000 A 
ATOM     20  C   UNL     1       0.848  14.946  19.521  0.00  0.00    +0.000 A 
ATOM     21  C   UNL     1      -0.016  14.468  18.530  0.00  0.00    +0.000 A 
ATOM     22  C   UNL     1      -0.341  13.114  18.504  0.00  0.00    +0.000 A 
BRANCH  20  23
ATOM     23  C   UNL     1       1.072  16.356  19.654  0.00  0.00    +0.000 C 
ATOM     24  N   UNL     1       1.230  17.498  19.784  0.00  0.00    +0.000 NA
ENDBRANCH  20  23
BRANCH  22  25
ATOM     25  O   UNL     1      -1.201  12.631  17.556  0.00  0.00    +0.000 OA
ATOM     26  H   UNL     1      -1.116  13.153  16.741  0.00  0.00    +0.000 HD
ENDBRANCH  22  25
ENDBRANCH  16  17
ENDBRANCH   4  16
TORSDOF 7
ENDMDL
MODEL 5
REMARK VINA RESULT:      -7.2      1.747      2.148
REMARK  Name = 
REMARK  8 active torsions:
REMARK  status: ('A' for Active; 'I' for Inactive)
REMARK    1  A    between atoms: C_1  and  C_2
REMARK    2  A    between atoms: C_2  and  C_3
REMARK    3  A    between atoms: C_3  and  C_4
REMARK    4  A    between atoms: C_6  and  C_7
REMARK    5  A    between atoms: C_10  and  O_11
REMARK    6  A    between atoms: O_11  and  C_12
REMARK    7  A    between atoms: C_15  and  C_16
REMARK    8  A    between atoms: C_19  and  O_20
REMARK                            x       y       z     vdW  Elec       q    Type
REMARK                         _______ _______ _______ _____ _____    ______ ____
ROOT
ATOM      1  C   UNL     1       5.877   4.668  15.757  0.00  0.00    +0.000 A 
ATOM      2  C   UNL     1       4.538   4.340  15.986  0.00  0.00    +0.000 A 
ATOM      3  C   UNL     1       3.955   4.584  17.234  0.00  0.00    +0.000 A 
ATOM      4  C   UNL     1       4.703   5.142  18.279  0.00  0.00    +0.000 A 
ATOM      5  C   UNL     1       6.076   5.355  18.089  0.00  0.00    +0.000 A 
ATOM      6 CL   UNL     1       7.180   5.777  19.354  0.00  0.00    +0.000 Cl
ATOM      7  C   UNL     1       6.641   5.165  16.821  0.00  0.00    +0.000 A 
ENDROOT
BRANCH   1  10
ATOM      8  C   UNL     1       6.970   3.841  12.380  0.00  0.00    +0.000 A 
ATOM      9  C   UNL     1       6.136   3.549  13.430  0.00  0.00    +0.000 A 
ATOM     10  C   UNL     1       6.480   4.496  14.438  0.00  0.00    +0.000 A 
ATOM     11  N   UNL     1       7.468   5.294  14.001  0.00  0.00    +0.000 NA
ATOM     12  O   UNL     1       7.765   4.884  12.717  0.00  0.00    +0.000 OA
BRANCH   8  13
ATOM     13  C   UNL     1       7.124   3.291  11.017  0.00  0.00    +0.000 C 
BRANCH  13  15
ATOM     14  C   UNL     1       6.179   0.964  10.994  0.00  0.00    +0.000 C 
ATOM     15  C   UNL     1       7.448   1.800  11.039  0.00  0.00    +0.000 C 
ENDBRANCH  13  15
ENDBRANCH   8  13
ENDBRANCH   1  10
BRANCH   4  16
ATOM     16  O   UNL     1       3.965   5.351  19.424  0.00  0.00    +0.000 OA
BRANCH  16  17
ATOM     17  C   UNL     1       3.021   6.350  19.479  0.00  0.00    +0.000 A 
ATOM     18  C   UNL     1       2.896   7.360  18.521  0.00  0.00    +0.000 A 
ATOM     19  C   UNL     1       2.063   8.454  18.774  0.00  0.00    +0.000 A 
ATOM     20  C   UNL     1       1.292   8.493  19.941  0.00  0.00    +0.000 A 
ATOM     21  C   UNL     1       1.297   7.406  20.821  0.00  0.00    +0.000 A 
ATOM     22  C   UNL     1       2.160   6.338  20.582  0.00  0.00    +0.000 A 
BRANCH  20  23
ATOM     23  C   UNL     1       0.524   9.663  20.255  0.00  0.00    +0.000 C 
ATOM     24  N   UNL     1      -0.077  10.614  20.532  0.00  0.00    +0.000 NA
ENDBRANCH  20  23
BRANCH  22  25
ATOM     25  O   UNL     1       2.194   5.275  21.442  0.00  0.00    +0.000 OA
ATOM     26  H   UNL     1       1.288   5.007  21.666  0.00  0.00    +0.000 HD
ENDBRANCH  22  25
ENDBRANCH  16  17
ENDBRANCH   4  16
TORSDOF 7
ENDMDL
MODEL 6
REMARK VINA RESULT:      -7.2      4.230      5.646
REMARK  Name = 
REMARK  8 active torsions:
REMARK  status: ('A' for Active; 'I' for Inactive)
REMARK    1  A    between atoms: C_1  and  C_2
REMARK    2  A    between atoms: C_2  and  C_3
REMARK    3  A    between atoms: C_3  and  C_4
REMARK    4  A    between atoms: C_6  and  C_7
REMARK    5  A    between atoms: C_10  and  O_11
REMARK    6  A    between atoms: O_11  and  C_12
REMARK    7  A    between atoms: C_15  and  C_16
REMARK    8  A    between atoms: C_19  and  O_20
REMARK                            x       y       z     vdW  Elec       q    Type
REMARK                         _______ _______ _______ _____ _____    ______ ____
ROOT
ATOM      1  C   UNL     1       2.294   7.744  18.901  0.00  0.00    +0.000 A 
ATOM      2  C   UNL     1       2.040   8.569  17.802  0.00  0.00    +0.000 A 
ATOM      3  C   UNL     1       1.224   9.697  17.939  0.00  0.00    +0.000 A 
ATOM      4  C   UNL     1       0.632  10.010  19.169  0.00  0.00    +0.000 A 
ATOM      5  C   UNL     1       0.784   9.116  20.239  0.00  0.00    +0.000 A 
ATOM      6 CL   UNL     1      -0.097   9.218  21.726  0.00  0.00    +0.000 Cl
ATOM      7  C   UNL     1       1.650   8.020  20.114  0.00  0.00    +0.000 A 
ENDROOT
BRANCH   1  10
ATOM      8  C   UNL     1       4.267   4.684  19.077  0.00  0.00    +0.000 A 
ATOM      9  C   UNL     1       3.274   5.454  19.629  0.00  0.00    +0.000 A 
ATOM     10  C   UNL     1       3.207   6.609  18.797  0.00  0.00    +0.000 A 
ATOM     11  N   UNL     1       4.118   6.520  17.814  0.00  0.00    +0.000 NA
ATOM     12  O   UNL     1       4.770   5.318  17.991  0.00  0.00    +0.000 OA
BRANCH   8  13
ATOM     13  C   UNL     1       4.825   3.355  19.399  0.00  0.00    +0.000 C 
BRANCH  13  15
ATOM     14  C   UNL     1       3.347   1.723  18.192  0.00  0.00    +0.000 C 
ATOM     15  C   UNL     1       3.733   2.299  19.544  0.00  0.00    +0.000 C 
ENDBRANCH  13  15
ENDBRANCH   8  13
ENDBRANCH   1  10
BRANCH   4  16
ATOM     16  O   UNL     1      -0.107  11.172  19.136  0.00  0.00    +0.000 OA
BRANCH  16  17
ATOM     17  C   UNL     1      -1.467  11.134  18.933  0.00  0.00    +0.000 A 
ATOM     18  C   UNL     1      -2.104  10.236  18.071  0.00  0.00    +0.000 A 
ATOM     19  C   UNL     1      -3.455  10.418  17.758  0.00  0.00    +0.000 A 
ATOM     20  C   UNL     1      -4.185  11.440  18.373  0.00  0.00    +0.000 A 
ATOM     21  C   UNL     1      -3.588  12.235  19.357  0.00  0.00    +0.000 A 
ATOM     22  C   UNL     1      -2.232  12.074  19.633  0.00  0.00    +0.000 A 
BRANCH  20  23
ATOM     23  C   UNL     1      -5.537  11.696  17.971  0.00  0.00    +0.000 C 
ATOM     24  N   UNL     1      -6.623  11.934  17.642  0.00  0.00    +0.000 NA
ENDBRANCH  20  23
BRANCH  22  25
ATOM     25  O   UNL     1      -1.624  12.857  20.577  0.00  0.00    +0.000 OA
ATOM     26  H   UNL     1      -2.202  13.603  20.804  0.00  0.00    +0.000 HD
ENDBRANCH  22  25
ENDBRANCH  16  17
ENDBRANCH   4  16
TORSDOF 7
ENDMDL
MODEL 7
REMARK VINA RESULT:      -7.1      3.336      5.302
REMARK  Name = 
REMARK  8 active torsions:
REMARK  status: ('A' for Active; 'I' for Inactive)
REMARK    1  A    between atoms: C_1  and  C_2
REMARK    2  A    between atoms: C_2  and  C_3
REMARK    3  A    between atoms: C_3  and  C_4
REMARK    4  A    between atoms: C_6  and  C_7
REMARK    5  A    between atoms: C_10  and  O_11
REMARK    6  A    between atoms: O_11  and  C_12
REMARK    7  A    between atoms: C_15  and  C_16
REMARK    8  A    between atoms: C_19  and  O_20
REMARK                            x       y       z     vdW  Elec       q    Type
REMARK                         _______ _______ _______ _____ _____    ______ ____
ROOT
ATOM      1  C   UNL     1       2.255   7.750  18.827  0.00  0.00    +0.000 A 
ATOM      2  C   UNL     1       1.875   8.627  17.807  0.00  0.00    +0.000 A 
ATOM      3  C   UNL     1       1.124   9.769  18.102  0.00  0.00    +0.000 A 
ATOM      4  C   UNL     1       0.724  10.047  19.416  0.00  0.00    +0.000 A 
ATOM      5  C   UNL     1       0.997   9.105  20.419  0.00  0.00    +0.000 A 
ATOM      6 CL   UNL     1       0.340   9.168  22.019  0.00  0.00    +0.000 Cl
ATOM      7  C   UNL     1       1.800   7.993  20.129  0.00  0.00    +0.000 A 
ENDROOT
BRANCH   1  10
ATOM      8  C   UNL     1       4.590   5.188  17.701  0.00  0.00    +0.000 A 
ATOM      9  C   UNL     1       4.016   6.413  17.469  0.00  0.00    +0.000 A 
ATOM     10  C   UNL     1       3.106   6.596  18.550  0.00  0.00    +0.000 A 
ATOM     11  N   UNL     1       3.144   5.531  19.368  0.00  0.00    +0.000 NA
ATOM     12  O   UNL     1       4.073   4.660  18.836  0.00  0.00    +0.000 OA
BRANCH   8  13
ATOM     13  C   UNL     1       5.635   4.405  17.010  0.00  0.00    +0.000 C 
BRANCH  13  15
ATOM     14  C   UNL     1       5.636   4.291  14.501  0.00  0.00    +0.000 C 
ATOM     15  C   UNL     1       6.091   5.079  15.719  0.00  0.00    +0.000 C 
ENDBRANCH  13  15
ENDBRANCH   8  13
ENDBRANCH   1  10
BRANCH   4  16
ATOM     16  O   UNL     1       0.026  11.229  19.533  0.00  0.00    +0.000 OA
BRANCH  16  17
ATOM     17  C   UNL     1       0.670  12.439  19.420  0.00  0.00    +0.000 A 
ATOM     18  C   UNL     1       1.805  12.792  20.155  0.00  0.00    +0.000 A 
ATOM     19  C   UNL     1       2.255  14.116  20.140  0.00  0.00    +0.000 A 
ATOM     20  C   UNL     1       1.625  15.061  19.324  0.00  0.00    +0.000 A 
ATOM     21  C   UNL     1       0.591  14.669  18.467  0.00  0.00    +0.000 A 
ATOM     22  C   UNL     1       0.123  13.358  18.518  0.00  0.00    +0.000 A 
BRANCH  20  23
ATOM     23  C   UNL     1       2.013  16.439  19.392  0.00  0.00    +0.000 C 
ATOM     24  N   UNL     1       2.353  17.546  19.462  0.00  0.00    +0.000 NA
ENDBRANCH  20  23
BRANCH  22  25
ATOM     25  O   UNL     1      -0.901  12.961  17.701  0.00  0.00    +0.000 OA
ATOM     26  H   UNL     1      -1.357  12.200  18.096  0.00  0.00    +0.000 HD
ENDBRANCH  22  25
ENDBRANCH  16  17
ENDBRANCH   4  16
TORSDOF 7
ENDMDL
MODEL 8
REMARK VINA RESULT:      -7.1      2.700      8.685
REMARK  Name = 
REMARK  8 active torsions:
REMARK  status: ('A' for Active; 'I' for Inactive)
REMARK    1  A    between atoms: C_1  and  C_2
REMARK    2  A    between atoms: C_2  and  C_3
REMARK    3  A    between atoms: C_3  and  C_4
REMARK    4  A    between atoms: C_6  and  C_7
REMARK    5  A    between atoms: C_10  and  O_11
REMARK    6  A    between atoms: O_11  and  C_12
REMARK    7  A    between atoms: C_15  and  C_16
REMARK    8  A    between atoms: C_19  and  O_20
REMARK                            x       y       z     vdW  Elec       q    Type
REMARK                         _______ _______ _______ _____ _____    ______ ____
ROOT
ATOM      1  C   UNL     1       1.839   7.288  20.112  0.00  0.00    +0.000 A 
ATOM      2  C   UNL     1       2.867   7.300  19.164  0.00  0.00    +0.000 A 
ATOM      3  C   UNL     1       3.598   6.137  18.901  0.00  0.00    +0.000 A 
ATOM      4  C   UNL     1       3.329   4.948  19.592  0.00  0.00    +0.000 A 
ATOM      5  C   UNL     1       2.385   4.967  20.629  0.00  0.00    +0.000 A 
ATOM      6 CL   UNL     1       2.138   3.668  21.746  0.00  0.00    +0.000 Cl
ATOM      7  C   UNL     1       1.615   6.118  20.848  0.00  0.00    +0.000 A 
ENDROOT
BRANCH   1  10
ATOM      8  C   UNL     1      -0.034  10.414  20.168  0.00  0.00    +0.000 A 
ATOM      9  C   UNL     1       0.900   9.636  19.531  0.00  0.00    +0.000 A 
ATOM     10  C   UNL     1       1.012   8.470  20.342  0.00  0.00    +0.000 A 
ATOM     11  N   UNL     1       0.190   8.565  21.400  0.00  0.00    +0.000 NA
ATOM     12  O   UNL     1      -0.462   9.775  21.283  0.00  0.00    +0.000 OA
BRANCH   8  13
ATOM     13  C   UNL     1      -0.656  11.719  19.861  0.00  0.00    +0.000 C 
BRANCH  13  15
ATOM     14  C   UNL     1      -1.875  11.086  17.758  0.00  0.00    +0.000 C 
ATOM     15  C   UNL     1      -2.020  11.557  19.196  0.00  0.00    +0.000 C 
ENDBRANCH  13  15
ENDBRANCH   8  13
ENDBRANCH   1  10
BRANCH   4  16
ATOM     16  O   UNL     1       4.114   3.893  19.183  0.00  0.00    +0.000 OA
BRANCH  16  17
ATOM     17  C   UNL     1       4.980   4.031  18.123  0.00  0.00    +0.000 A 
ATOM     18  C   UNL     1       6.320   4.408  18.253  0.00  0.00    +0.000 A 
ATOM     19  C   UNL     1       7.059   4.741  17.113  0.00  0.00    +0.000 A 
ATOM     20  C   UNL     1       6.485   4.612  15.844  0.00  0.00    +0.000 A 
ATOM     21  C   UNL     1       5.198   4.081  15.707  0.00  0.00    +0.000 A 
ATOM     22  C   UNL     1       4.455   3.790  16.849  0.00  0.00    +0.000 A 
BRANCH  20  23
ATOM     23  C   UNL     1       7.201   5.058  14.684  0.00  0.00    +0.000 C 
ATOM     24  N   UNL     1       7.765   5.445  13.748  0.00  0.00    +0.000 NA
ENDBRANCH  20  23
BRANCH  22  25
ATOM     25  O   UNL     1       3.186   3.290  16.735  0.00  0.00    +0.000 OA
ATOM     26  H   UNL     1       3.214   2.320  16.768  0.00  0.00    +0.000 HD
ENDBRANCH  22  25
ENDBRANCH  16  17
ENDBRANCH   4  16
TORSDOF 7
ENDMDL
MODEL 9
REMARK VINA RESULT:      -7.1      3.098      4.878
REMARK  Name = 
REMARK  8 active torsions:
REMARK  status: ('A' for Active; 'I' for Inactive)
REMARK    1  A    between atoms: C_1  and  C_2
REMARK    2  A    between atoms: C_2  and  C_3
REMARK    3  A    between atoms: C_3  and  C_4
REMARK    4  A    between atoms: C_6  and  C_7
REMARK    5  A    between atoms: C_10  and  O_11
REMARK    6  A    between atoms: O_11  and  C_12
REMARK    7  A    between atoms: C_15  and  C_16
REMARK    8  A    between atoms: C_19  and  O_20
REMARK                            x       y       z     vdW  Elec       q    Type
REMARK                         _______ _______ _______ _____ _____    ______ ____
ROOT
ATOM      1  C   UNL     1       2.263   7.694  18.564  0.00  0.00    +0.000 A 
ATOM      2  C   UNL     1       2.103   8.810  17.737  0.00  0.00    +0.000 A 
ATOM      3  C   UNL     1       1.584  10.002  18.253  0.00  0.00    +0.000 A 
ATOM      4  C   UNL     1       1.198  10.095  19.597  0.00  0.00    +0.000 A 
ATOM      5  C   UNL     1       1.241   8.942  20.394  0.00  0.00    +0.000 A 
ATOM      6 CL   UNL     1       0.549   8.826  21.977  0.00  0.00    +0.000 Cl
ATOM      7  C   UNL     1       1.816   7.768  19.889  0.00  0.00    +0.000 A 
ENDROOT
BRANCH   1  10
ATOM      8  C   UNL     1       4.254   4.967  17.192  0.00  0.00    +0.000 A 
ATOM      9  C   UNL     1       4.136   6.317  17.413  0.00  0.00    +0.000 A 
ATOM     10  C   UNL     1       2.878   6.468  18.063  0.00  0.00    +0.000 A 
ATOM     11  N   UNL     1       2.289   5.269  18.209  0.00  0.00    +0.000 NA
ATOM     12  O   UNL     1       3.153   4.339  17.669  0.00  0.00    +0.000 OA
BRANCH   8  13
ATOM     13  C   UNL     1       5.312   4.118  16.606  0.00  0.00    +0.000 C 
BRANCH  13  15
ATOM     14  C   UNL     1       6.957   4.791  14.832  0.00  0.00    +0.000 C 
ATOM     15  C   UNL     1       5.516   4.406  15.121  0.00  0.00    +0.000 C 
ENDBRANCH  13  15
ENDBRANCH   8  13
ENDBRANCH   1  10
BRANCH   4  16
ATOM     16  O   UNL     1       0.745  11.349  19.947  0.00  0.00    +0.000 OA
BRANCH  16  17
ATOM     17  C   UNL     1      -0.602  11.612  20.027  0.00  0.00    +0.000 A 
ATOM     18  C   UNL     1      -1.498  11.438  18.967  0.00  0.00    +0.000 A 
ATOM     19  C   UNL     1      -2.798  11.941  19.071  0.00  0.00    +0.000 A 
ATOM     20  C   UNL     1      -3.226  12.536  20.262  0.00  0.00    +0.000 A 
ATOM     21  C   UNL     1      -2.381  12.564  21.376  0.00  0.00    +0.000 A 
ATOM     22  C   UNL     1      -1.074  12.097  21.252  0.00  0.00    +0.000 A 
BRANCH  20  23
ATOM     23  C   UNL     1      -4.520  13.151  20.331  0.00  0.00    +0.000 C 
ATOM     24  N   UNL     1      -5.575  13.626  20.407  0.00  0.00    +0.000 NA
ENDBRANCH  20  23
BRANCH  22  25
ATOM     25  O   UNL     1      -0.226  12.135  22.325  0.00  0.00    +0.000 OA
ATOM     26  H   UNL     1      -0.525  11.505  23.000  0.00  0.00    +0.000 HD
ENDBRANCH  22  25
ENDBRANCH  16  17
ENDBRANCH   4  16
TORSDOF 7
ENDMDL
