MODEL 1
REMARK VINA RESULT:      -8.6      0.000      0.000
REMARK  Name = 
REMARK  9 active torsions:
REMARK  status: ('A' for Active; 'I' for Inactive)
REMARK    1  A    between atoms: C_2  and  C_28
REMARK    2  A    between atoms: N_3  and  C_4
REMARK    3  A    between atoms: C_7  and  S_8
REMARK    4  A    between atoms: S_8  and  N_11
REMARK    5  A    between atoms: N_11  and  C_12
REMARK    6  A    between atoms: C_12  and  C_13
REMARK    7  A    between atoms: C_12  and  C_23
REMARK    8  A    between atoms: C_13  and  C_14
REMARK    9  A    between atoms: C_23  and  O_25
REMARK                            x       y       z     vdW  Elec       q    Type
REMARK                         _______ _______ _______ _____ _____    ______ ____
ROOT
ATOM      1  S   UNL     1       5.157   6.675  17.549  0.00  0.00    +0.000 S 
ATOM      2  O   UNL     1       5.876   7.805  17.005  0.00  0.00    +0.000 OA
ATOM      3  O   UNL     1       5.711   5.858  18.605  0.00  0.00    +0.000 OA
ENDROOT
BRANCH   1   7
ATOM      4  C   UNL     1       1.441   8.706  19.348  0.00  0.00    +0.000 A 
ATOM      5  C   UNL     1       1.964   7.540  19.920  0.00  0.00    +0.000 A 
ATOM      6  C   UNL     1       3.039   6.857  19.325  0.00  0.00    +0.000 A 
ATOM      7  C   UNL     1       3.594   7.327  18.132  0.00  0.00    +0.000 A 
ATOM      8  C   UNL     1       3.052   8.464  17.523  0.00  0.00    +0.000 A 
ATOM      9  C   UNL     1       1.974   9.138  18.125  0.00  0.00    +0.000 A 
BRANCH   4  12
ATOM     10  O   UNL     1       1.446  10.058  21.971  0.00  0.00    +0.000 OA
ATOM     11  C   UNL     1       0.492  10.096  21.202  0.00  0.00    +0.000 C 
ATOM     12  N   UNL     1       0.425   9.496  19.951  0.00  0.00    +0.000 N 
ATOM     13  H   UNL     1      -0.342   9.764  19.348  0.00  0.00    +0.000 HD
BRANCH  11  14
ATOM     14  C   UNL     1      -0.686  10.904  21.630  0.00  0.00    +0.000 A 
ATOM     15  C   UNL     1      -1.135  10.952  22.951  0.00  0.00    +0.000 A 
ATOM     16  C   UNL     1      -2.188  11.806  23.243  0.00  0.00    +0.000 A 
ATOM     17  N   UNL     1      -2.808  12.582  22.331  0.00  0.00    +0.000 NA
ATOM     18  C   UNL     1      -2.346  12.518  21.066  0.00  0.00    +0.000 A 
ATOM     19  F   UNL     1      -2.935  13.300  20.150  0.00  0.00    +0.000 F 
ATOM     20  C   UNL     1      -1.304  11.707  20.668  0.00  0.00    +0.000 A 
ENDBRANCH  11  14
ENDBRANCH   4  12
ENDBRANCH   1   7
BRANCH   1  21
ATOM     21  N   UNL     1       4.803   5.693  16.263  0.00  0.00    +0.000 NA
ATOM     22  H   UNL     1       4.216   6.088  15.522  0.00  0.00    +0.000 HD
BRANCH  21  23
ATOM     23  C   UNL     1       5.315   4.323  16.058  0.00  0.00    +0.000 C 
BRANCH  23  24
ATOM     24  C   UNL     1       6.844   4.373  16.100  0.00  0.00    +0.000 C 
ATOM     25  O   UNL     1       7.514   4.720  15.137  0.00  0.00    +0.000 OA
BRANCH  24  26
ATOM     26  O   UNL     1       7.403   3.930  17.246  0.00  0.00    +0.000 OA
ATOM     27  H   UNL     1       7.942   3.113  17.214  0.00  0.00    +0.000 HD
ENDBRANCH  24  26
ENDBRANCH  23  24
BRANCH  23  28
ATOM     28  C   UNL     1       4.765   3.244  16.992  0.00  0.00    +0.000 C 
BRANCH  28  29
ATOM     29  C   UNL     1       3.486   3.329  17.786  0.00  0.00    +0.000 A 
ATOM     30  C   UNL     1       2.274   3.275  17.111  0.00  0.00    +0.000 A 
ATOM     31  N   UNL     1       1.404   3.946  17.916  0.00  0.00    +0.000 N 
ATOM     32  C   UNL     1       1.692   3.508  19.196  0.00  0.00    +0.000 A 
ATOM     33  C   UNL     1       0.829   3.411  20.285  0.00  0.00    +0.000 A 
ATOM     34  C   UNL     1       1.380   2.866  21.441  0.00  0.00    +0.000 A 
ATOM     35  C   UNL     1       2.733   2.546  21.490  0.00  0.00    +0.000 A 
ATOM     36  C   UNL     1       3.591   2.728  20.378  0.00  0.00    +0.000 A 
ATOM     37  C   UNL     1       3.044   3.174  19.156  0.00  0.00    +0.000 A 
ATOM     38  H   UNL     1       0.989   4.840  17.716  0.00  0.00    +0.000 HD
ENDBRANCH  28  29
ENDBRANCH  23  28
ENDBRANCH  21  23
ENDBRANCH   1  21
TORSDOF 9
ENDMDL
MODEL 2
REMARK VINA RESULT:      -8.3      2.241      4.560
REMARK  Name = 
REMARK  9 active torsions:
REMARK  status: ('A' for Active; 'I' for Inactive)
REMARK    1  A    between atoms: C_2  and  C_28
REMARK    2  A    between atoms: N_3  and  C_4
REMARK    3  A    between atoms: C_7  and  S_8
REMARK    4  A    between atoms: S_8  and  N_11
REMARK    5  A    between atoms: N_11  and  C_12
REMARK    6  A    between atoms: C_12  and  C_13
REMARK    7  A    between atoms: C_12  and  C_23
REMARK    8  A    between atoms: C_13  and  C_14
REMARK    9  A    between atoms: C_23  and  O_25
REMARK                            x       y       z     vdW  Elec       q    Type
REMARK                         _______ _______ _______ _____ _____    ______ ____
ROOT
ATOM      1  S   UNL     1       3.936   6.357  18.202  0.00  0.00    +0.000 S 
ATOM      2  O   UNL     1       4.551   7.103  17.127  0.00  0.00    +0.000 OA
ATOM      3  O   UNL     1       4.692   5.923  19.355  0.00  0.00    +0.000 OA
ENDROOT
BRANCH   1   7
ATOM      4  C   UNL     1       0.856   9.325  19.899  0.00  0.00    +0.000 A 
ATOM      5  C   UNL     1       1.277   8.224  20.654  0.00  0.00    +0.000 A 
ATOM      6  C   UNL     1       2.144   7.258  20.112  0.00  0.00    +0.000 A 
ATOM      7  C   UNL     1       2.586   7.376  18.792  0.00  0.00    +0.000 A 
ATOM      8  C   UNL     1       2.137   8.445  18.010  0.00  0.00    +0.000 A 
ATOM      9  C   UNL     1       1.268   9.404  18.560  0.00  0.00    +0.000 A 
BRANCH   4  12
ATOM     10  O   UNL     1       1.722  11.890  21.071  0.00  0.00    +0.000 OA
ATOM     11  C   UNL     1       0.544  11.566  20.969  0.00  0.00    +0.000 C 
ATOM     12  N   UNL     1       0.066  10.385  20.419  0.00  0.00    +0.000 N 
ATOM     13  H   UNL     1      -0.926  10.331  20.227  0.00  0.00    +0.000 HD
BRANCH  11  14
ATOM     14  C   UNL     1      -0.469  12.556  21.435  0.00  0.00    +0.000 A 
ATOM     15  C   UNL     1      -1.074  12.490  22.692  0.00  0.00    +0.000 A 
ATOM     16  C   UNL     1      -1.938  13.516  23.045  0.00  0.00    +0.000 A 
ATOM     17  N   UNL     1      -2.235  14.563  22.249  0.00  0.00    +0.000 NA
ATOM     18  C   UNL     1      -1.630  14.601  21.046  0.00  0.00    +0.000 A 
ATOM     19  F   UNL     1      -1.896  15.647  20.249  0.00  0.00    +0.000 F 
ATOM     20  C   UNL     1      -0.752  13.637  20.596  0.00  0.00    +0.000 A 
ENDBRANCH  11  14
ENDBRANCH   4  12
ENDBRANCH   1   7
BRANCH   1  21
ATOM     21  N   UNL     1       3.245   5.026  17.500  0.00  0.00    +0.000 NA
ATOM     22  H   UNL     1       2.472   5.190  16.848  0.00  0.00    +0.000 HD
BRANCH  21  23
ATOM     23  C   UNL     1       3.688   3.629  17.680  0.00  0.00    +0.000 C 
BRANCH  23  24
ATOM     24  C   UNL     1       2.446   2.754  17.870  0.00  0.00    +0.000 C 
ATOM     25  O   UNL     1       1.313   3.181  17.699  0.00  0.00    +0.000 OA
BRANCH  24  26
ATOM     26  O   UNL     1       2.686   1.503  18.316  0.00  0.00    +0.000 OA
ATOM     27  H   UNL     1       3.454   1.019  17.949  0.00  0.00    +0.000 HD
ENDBRANCH  24  26
ENDBRANCH  23  24
BRANCH  23  28
ATOM     28  C   UNL     1       4.611   3.062  16.601  0.00  0.00    +0.000 C 
BRANCH  28  29
ATOM     29  C   UNL     1       5.634   3.840  15.813  0.00  0.00    +0.000 A 
ATOM     30  C   UNL     1       6.723   4.383  16.483  0.00  0.00    +0.000 A 
ATOM     31  N   UNL     1       7.094   5.451  15.723  0.00  0.00    +0.000 N 
ATOM     32  C   UNL     1       7.028   5.000  14.417  0.00  0.00    +0.000 A 
ATOM     33  C   UNL     1       7.779   5.425  13.323  0.00  0.00    +0.000 A 
ATOM     34  C   UNL     1       7.547   4.740  12.134  0.00  0.00    +0.000 A 
ATOM     35  C   UNL     1       6.553   3.769  12.064  0.00  0.00    +0.000 A 
ATOM     36  C   UNL     1       5.763   3.419  13.187  0.00  0.00    +0.000 A 
ATOM     37  C   UNL     1       6.045   4.014  14.436  0.00  0.00    +0.000 A 
ATOM     38  H   UNL     1       6.995   6.418  15.981  0.00  0.00    +0.000 HD
ENDBRANCH  28  29
ENDBRANCH  23  28
ENDBRANCH  21  23
ENDBRANCH   1  21
TORSDOF 9
ENDMDL
MODEL 3
REMARK VINA RESULT:      -8.3      3.110      5.198
REMARK  Name = 
REMARK  9 active torsions:
REMARK  status: ('A' for Active; 'I' for Inactive)
REMARK    1  A    between atoms: C_2  and  C_28
REMARK    2  A    between atoms: N_3  and  C_4
REMARK    3  A    between atoms: C_7  and  S_8
REMARK    4  A    between atoms: S_8  and  N_11
REMARK    5  A    between atoms: N_11  and  C_12
REMARK    6  A    between atoms: C_12  and  C_13
REMARK    7  A    between atoms: C_12  and  C_23
REMARK    8  A    between atoms: C_13  and  C_14
REMARK    9  A    between atoms: C_23  and  O_25
REMARK                            x       y       z     vdW  Elec       q    Type
REMARK                         _______ _______ _______ _____ _____    ______ ____
ROOT
ATOM      1  S   UNL     1       2.504   5.014  19.688  0.00  0.00    +0.000 S 
ATOM      2  O   UNL     1       2.374   4.737  21.101  0.00  0.00    +0.000 OA
ATOM      3  O   UNL     1       1.822   4.219  18.692  0.00  0.00    +0.000 OA
ENDROOT
BRANCH   1   7
ATOM      4  C   UNL     1       1.674   9.524  19.311  0.00  0.00    +0.000 A 
ATOM      5  C   UNL     1       1.309   8.825  20.468  0.00  0.00    +0.000 A 
ATOM      6  C   UNL     1       1.469   7.431  20.558  0.00  0.00    +0.000 A 
ATOM      7  C   UNL     1       1.984   6.714  19.474  0.00  0.00    +0.000 A 
ATOM      8  C   UNL     1       2.309   7.391  18.295  0.00  0.00    +0.000 A 
ATOM      9  C   UNL     1       2.142   8.786  18.214  0.00  0.00    +0.000 A 
BRANCH   4  12
ATOM     10  O   UNL     1      -0.655  11.290  18.906  0.00  0.00    +0.000 OA
ATOM     11  C   UNL     1       0.494  11.708  18.992  0.00  0.00    +0.000 C 
ATOM     12  N   UNL     1       1.632  10.939  19.195  0.00  0.00    +0.000 N 
ATOM     13  H   UNL     1       2.486  11.427  19.434  0.00  0.00    +0.000 HD
BRANCH  11  14
ATOM     14  C   UNL     1       0.679  13.187  18.923  0.00  0.00    +0.000 A 
ATOM     15  C   UNL     1       1.893  13.785  18.581  0.00  0.00    +0.000 A 
ATOM     16  C   UNL     1       1.921  15.167  18.467  0.00  0.00    +0.000 A 
ATOM     17  N   UNL     1       0.853  15.965  18.675  0.00  0.00    +0.000 NA
ATOM     18  C   UNL     1      -0.305  15.356  18.997  0.00  0.00    +0.000 A 
ATOM     19  F   UNL     1      -1.383  16.131  19.184  0.00  0.00    +0.000 F 
ATOM     20  C   UNL     1      -0.444  13.991  19.132  0.00  0.00    +0.000 A 
ENDBRANCH  11  14
ENDBRANCH   4  12
ENDBRANCH   1   7
BRANCH   1  21
ATOM     21  N   UNL     1       4.127   4.977  19.361  0.00  0.00    +0.000 NA
ATOM     22  H   UNL     1       4.711   5.687  19.814  0.00  0.00    +0.000 HD
BRANCH  21  23
ATOM     23  C   UNL     1       4.816   3.972  18.526  0.00  0.00    +0.000 C 
BRANCH  23  24
ATOM     24  C   UNL     1       4.448   2.582  19.051  0.00  0.00    +0.000 C 
ATOM     25  O   UNL     1       4.793   2.187  20.156  0.00  0.00    +0.000 OA
BRANCH  24  26
ATOM     26  O   UNL     1       3.785   1.795  18.178  0.00  0.00    +0.000 OA
ATOM     27  H   UNL     1       2.953   2.133  17.787  0.00  0.00    +0.000 HD
ENDBRANCH  24  26
ENDBRANCH  23  24
BRANCH  23  28
ATOM     28  C   UNL     1       4.597   4.075  17.016  0.00  0.00    +0.000 C 
BRANCH  28  29
ATOM     29  C   UNL     1       5.652   4.403  15.990  0.00  0.00    +0.000 A 
ATOM     30  C   UNL     1       6.936   4.705  16.423  0.00  0.00    +0.000 A 
ATOM     31  N   UNL     1       7.450   5.498  15.442  0.00  0.00    +0.000 N 
ATOM     32  C   UNL     1       7.064   4.897  14.258  0.00  0.00    +0.000 A 
ATOM     33  C   UNL     1       7.718   4.924  13.028  0.00  0.00    +0.000 A 
ATOM     34  C   UNL     1       7.130   4.165  12.019  0.00  0.00    +0.000 A 
ATOM     35  C   UNL     1       5.918   3.520  12.241  0.00  0.00    +0.000 A 
ATOM     36  C   UNL     1       5.251   3.580  13.489  0.00  0.00    +0.000 A 
ATOM     37  C   UNL     1       5.871   4.247  14.568  0.00  0.00    +0.000 A 
ATOM     38  H   UNL     1       7.650   6.481  15.525  0.00  0.00    +0.000 HD
ENDBRANCH  28  29
ENDBRANCH  23  28
ENDBRANCH  21  23
ENDBRANCH   1  21
TORSDOF 9
ENDMDL
MODEL 4
REMARK VINA RESULT:      -8.1      3.417      5.422
REMARK  Name = 
REMARK  9 active torsions:
REMARK  status: ('A' for Active; 'I' for Inactive)
REMARK    1  A    between atoms: C_2  and  C_28
REMARK    2  A    between atoms: N_3  and  C_4
REMARK    3  A    between atoms: C_7  and  S_8
REMARK    4  A    between atoms: S_8  and  N_11
REMARK    5  A    between atoms: N_11  and  C_12
REMARK    6  A    between atoms: C_12  and  C_13
REMARK    7  A    between atoms: C_12  and  C_23
REMARK    8  A    between atoms: C_13  and  C_14
REMARK    9  A    between atoms: C_23  and  O_25
REMARK                            x       y       z     vdW  Elec       q    Type
REMARK                         _______ _______ _______ _____ _____    ______ ____
ROOT
ATOM      1  S   UNL     1       2.502   5.165  19.507  0.00  0.00    +0.000 S 
ATOM      2  O   UNL     1       2.395   4.967  20.936  0.00  0.00    +0.000 OA
ATOM      3  O   UNL     1       1.767   4.346  18.570  0.00  0.00    +0.000 OA
ENDROOT
BRANCH   1   7
ATOM      4  C   UNL     1       1.833   9.678  18.910  0.00  0.00    +0.000 A 
ATOM      5  C   UNL     1       1.469   9.055  20.110  0.00  0.00    +0.000 A 
ATOM      6  C   UNL     1       1.579   7.663  20.270  0.00  0.00    +0.000 A 
ATOM      7  C   UNL     1       2.040   6.871  19.215  0.00  0.00    +0.000 A 
ATOM      8  C   UNL     1       2.363   7.472  17.995  0.00  0.00    +0.000 A 
ATOM      9  C   UNL     1       2.247   8.866  17.844  0.00  0.00    +0.000 A 
BRANCH   4  12
ATOM     10  O   UNL     1      -0.208  11.670  19.666  0.00  0.00    +0.000 OA
ATOM     11  C   UNL     1       0.834  11.966  19.093  0.00  0.00    +0.000 C 
ATOM     12  N   UNL     1       1.841  11.086  18.720  0.00  0.00    +0.000 N 
ATOM     13  H   UNL     1       2.723  11.487  18.428  0.00  0.00    +0.000 HD
BRANCH  11  14
ATOM     14  C   UNL     1       1.063  13.414  18.817  0.00  0.00    +0.000 A 
ATOM     15  C   UNL     1       0.159  14.410  19.191  0.00  0.00    +0.000 A 
ATOM     16  C   UNL     1       0.521  15.729  18.957  0.00  0.00    +0.000 A 
ATOM     17  N   UNL     1       1.683  16.104  18.385  0.00  0.00    +0.000 NA
ATOM     18  C   UNL     1       2.536  15.119  18.042  0.00  0.00    +0.000 A 
ATOM     19  F   UNL     1       3.707  15.474  17.492  0.00  0.00    +0.000 F 
ATOM     20  C   UNL     1       2.278  13.778  18.233  0.00  0.00    +0.000 A 
ENDBRANCH  11  14
ENDBRANCH   4  12
ENDBRANCH   1   7
BRANCH   1  21
ATOM     21  N   UNL     1       4.114   5.049  19.147  0.00  0.00    +0.000 NA
ATOM     22  H   UNL     1       4.722   5.803  19.479  0.00  0.00    +0.000 HD
BRANCH  21  23
ATOM     23  C   UNL     1       4.762   3.921  18.447  0.00  0.00    +0.000 C 
BRANCH  23  24
ATOM     24  C   UNL     1       4.252   2.618  19.066  0.00  0.00    +0.000 C 
ATOM     25  O   UNL     1       4.405   2.353  20.251  0.00  0.00    +0.000 OA
BRANCH  24  26
ATOM     26  O   UNL     1       3.695   1.747  18.199  0.00  0.00    +0.000 OA
ATOM     27  H   UNL     1       3.629   0.806  18.463  0.00  0.00    +0.000 HD
ENDBRANCH  24  26
ENDBRANCH  23  24
BRANCH  23  28
ATOM     28  C   UNL     1       4.634   3.902  16.922  0.00  0.00    +0.000 C 
BRANCH  28  29
ATOM     29  C   UNL     1       5.686   4.351  15.941  0.00  0.00    +0.000 A 
ATOM     30  C   UNL     1       6.919   4.768  16.425  0.00  0.00    +0.000 A 
ATOM     31  N   UNL     1       7.387   5.625  15.476  0.00  0.00    +0.000 N 
ATOM     32  C   UNL     1       7.102   5.013  14.269  0.00  0.00    +0.000 A 
ATOM     33  C   UNL     1       7.793   5.126  13.064  0.00  0.00    +0.000 A 
ATOM     34  C   UNL     1       7.318   4.334  12.023  0.00  0.00    +0.000 A 
ATOM     35  C   UNL     1       6.167   3.570  12.191  0.00  0.00    +0.000 A 
ATOM     36  C   UNL     1       5.455   3.541  13.414  0.00  0.00    +0.000 A 
ATOM     37  C   UNL     1       5.969   4.244  14.525  0.00  0.00    +0.000 A 
ATOM     38  H   UNL     1       7.487   6.621  15.582  0.00  0.00    +0.000 HD
ENDBRANCH  28  29
ENDBRANCH  23  28
ENDBRANCH  21  23
ENDBRANCH   1  21
TORSDOF 9
ENDMDL
MODEL 5
REMARK VINA RESULT:      -8.1      0.792      1.254
REMARK  Name = 
REMARK  9 active torsions:
REMARK  status: ('A' for Active; 'I' for Inactive)
REMARK    1  A    between atoms: C_2  and  C_28
REMARK    2  A    between atoms: N_3  and  C_4
REMARK    3  A    between atoms: C_7  and  S_8
REMARK    4  A    between atoms: S_8  and  N_11
REMARK    5  A    between atoms: N_11  and  C_12
REMARK    6  A    between atoms: C_12  and  C_13
REMARK    7  A    between atoms: C_12  and  C_23
REMARK    8  A    between atoms: C_13  and  C_14
REMARK    9  A    between atoms: C_23  and  O_25
REMARK                            x       y       z     vdW  Elec       q    Type
REMARK                         _______ _______ _______ _____ _____    ______ ____
ROOT
ATOM      1  S   UNL     1       5.085   6.713  17.738  0.00  0.00    +0.000 S 
ATOM      2  O   UNL     1       5.926   7.834  17.383  0.00  0.00    +0.000 OA
ATOM      3  O   UNL     1       5.463   5.776  18.771  0.00  0.00    +0.000 OA
ENDROOT
BRANCH   1   7
ATOM      4  C   UNL     1       1.310   8.892  19.212  0.00  0.00    +0.000 A 
ATOM      5  C   UNL     1       1.785   7.757  19.880  0.00  0.00    +0.000 A 
ATOM      6  C   UNL     1       2.880   7.027  19.385  0.00  0.00    +0.000 A 
ATOM      7  C   UNL     1       3.503   7.418  18.197  0.00  0.00    +0.000 A 
ATOM      8  C   UNL     1       3.011   8.521  17.493  0.00  0.00    +0.000 A 
ATOM      9  C   UNL     1       1.912   9.244  17.995  0.00  0.00    +0.000 A 
BRANCH   4  12
ATOM     10  O   UNL     1       1.323  10.654  21.580  0.00  0.00    +0.000 OA
ATOM     11  C   UNL     1       0.349  10.527  20.846  0.00  0.00    +0.000 C 
ATOM     12  N   UNL     1       0.276   9.730  19.712  0.00  0.00    +0.000 N 
ATOM     13  H   UNL     1      -0.517   9.865  19.099  0.00  0.00    +0.000 HD
BRANCH  11  14
ATOM     14  C   UNL     1      -0.853  11.347  21.176  0.00  0.00    +0.000 A 
ATOM     15  C   UNL     1      -1.573  12.059  20.215  0.00  0.00    +0.000 A 
ATOM     16  C   UNL     1      -2.723  12.716  20.627  0.00  0.00    +0.000 A 
ATOM     17  N   UNL     1      -3.180  12.716  21.896  0.00  0.00    +0.000 NA
ATOM     18  C   UNL     1      -2.466  12.015  22.798  0.00  0.00    +0.000 A 
ATOM     19  F   UNL     1      -2.918  11.984  24.060  0.00  0.00    +0.000 F 
ATOM     20  C   UNL     1      -1.312  11.323  22.495  0.00  0.00    +0.000 A 
ENDBRANCH  11  14
ENDBRANCH   4  12
ENDBRANCH   1   7
BRANCH   1  21
ATOM     21  N   UNL     1       4.831   5.868  16.336  0.00  0.00    +0.000 NA
ATOM     22  H   UNL     1       4.327   6.350  15.586  0.00  0.00    +0.000 HD
BRANCH  21  23
ATOM     23  C   UNL     1       5.325   4.506  16.050  0.00  0.00    +0.000 C 
BRANCH  23  24
ATOM     24  C   UNL     1       6.855   4.537  16.075  0.00  0.00    +0.000 C 
ATOM     25  O   UNL     1       7.502   4.093  17.012  0.00  0.00    +0.000 OA
BRANCH  24  26
ATOM     26  O   UNL     1       7.435   5.161  15.028  0.00  0.00    +0.000 OA
ATOM     27  H   UNL     1       8.396   5.345  15.072  0.00  0.00    +0.000 HD
ENDBRANCH  24  26
ENDBRANCH  23  24
BRANCH  23  28
ATOM     28  C   UNL     1       4.774   3.383  16.930  0.00  0.00    +0.000 C 
BRANCH  28  29
ATOM     29  C   UNL     1       3.495   3.429  17.726  0.00  0.00    +0.000 A 
ATOM     30  C   UNL     1       2.283   3.356  17.052  0.00  0.00    +0.000 A 
ATOM     31  N   UNL     1       1.400   3.997  17.866  0.00  0.00    +0.000 N 
ATOM     32  C   UNL     1       1.700   3.551  19.140  0.00  0.00    +0.000 A 
ATOM     33  C   UNL     1       0.840   3.422  20.230  0.00  0.00    +0.000 A 
ATOM     34  C   UNL     1       1.406   2.876  21.378  0.00  0.00    +0.000 A 
ATOM     35  C   UNL     1       2.766   2.585  21.422  0.00  0.00    +0.000 A 
ATOM     36  C   UNL     1       3.617   2.801  20.311  0.00  0.00    +0.000 A 
ATOM     37  C   UNL     1       3.058   3.248  19.094  0.00  0.00    +0.000 A 
ATOM     38  H   UNL     1       0.964   4.884  17.678  0.00  0.00    +0.000 HD
ENDBRANCH  28  29
ENDBRANCH  23  28
ENDBRANCH  21  23
ENDBRANCH   1  21
TORSDOF 9
ENDMDL
MODEL 6
REMARK VINA RESULT:      -8.1      2.130      2.406
REMARK  Name = 
REMARK  9 active torsions:
REMARK  status: ('A' for Active; 'I' for Inactive)
REMARK    1  A    between atoms: C_2  and  C_28
REMARK    2  A    between atoms: N_3  and  C_4
REMARK    3  A    between atoms: C_7  and  S_8
REMARK    4  A    between atoms: S_8  and  N_11
REMARK    5  A    between atoms: N_11  and  C_12
REMARK    6  A    between atoms: C_12  and  C_13
REMARK    7  A    between atoms: C_12  and  C_23
REMARK    8  A    between atoms: C_13  and  C_14
REMARK    9  A    between atoms: C_23  and  O_25
REMARK                            x       y       z     vdW  Elec       q    Type
REMARK                         _______ _______ _______ _____ _____    ______ ____
ROOT
ATOM      1  S   UNL     1       6.561   5.817  18.515  0.00  0.00    +0.000 S 
ATOM      2  O   UNL     1       7.371   7.003  18.355  0.00  0.00    +0.000 OA
ATOM      3  O   UNL     1       6.673   4.971  19.683  0.00  0.00    +0.000 OA
ENDROOT
BRANCH   1   7
ATOM      4  C   UNL     1       2.371   7.717  18.450  0.00  0.00    +0.000 A 
ATOM      5  C   UNL     1       2.776   6.919  19.527  0.00  0.00    +0.000 A 
ATOM      6  C   UNL     1       4.015   6.255  19.515  0.00  0.00    +0.000 A 
ATOM      7  C   UNL     1       4.860   6.369  18.408  0.00  0.00    +0.000 A 
ATOM      8  C   UNL     1       4.450   7.124  17.305  0.00  0.00    +0.000 A 
ATOM      9  C   UNL     1       3.206   7.782  17.325  0.00  0.00    +0.000 A 
BRANCH   4  12
ATOM     10  O   UNL     1       2.054  10.639  18.195  0.00  0.00    +0.000 OA
ATOM     11  C   UNL     1       1.106   9.874  18.331  0.00  0.00    +0.000 C 
ATOM     12  N   UNL     1       1.180   8.492  18.443  0.00  0.00    +0.000 N 
ATOM     13  H   UNL     1       0.316   7.973  18.360  0.00  0.00    +0.000 HD
BRANCH  11  14
ATOM     14  C   UNL     1      -0.256  10.481  18.324  0.00  0.00    +0.000 A 
ATOM     15  C   UNL     1      -0.589  11.609  19.077  0.00  0.00    +0.000 A 
ATOM     16  C   UNL     1      -1.864  12.133  18.923  0.00  0.00    +0.000 A 
ATOM     17  N   UNL     1      -2.799  11.617  18.100  0.00  0.00    +0.000 NA
ATOM     18  C   UNL     1      -2.445  10.534  17.382  0.00  0.00    +0.000 A 
ATOM     19  F   UNL     1      -3.354  10.021  16.541  0.00  0.00    +0.000 F 
ATOM     20  C   UNL     1      -1.204   9.935  17.456  0.00  0.00    +0.000 A 
ENDBRANCH  11  14
ENDBRANCH   4  12
ENDBRANCH   1   7
BRANCH   1  21
ATOM     21  N   UNL     1       6.836   4.888  17.171  0.00  0.00    +0.000 NA
ATOM     22  H   UNL     1       7.785   4.526  17.041  0.00  0.00    +0.000 HD
BRANCH  21  23
ATOM     23  C   UNL     1       5.819   4.484  16.180  0.00  0.00    +0.000 C 
BRANCH  23  24
ATOM     24  C   UNL     1       6.520   4.265  14.838  0.00  0.00    +0.000 C 
ATOM     25  O   UNL     1       6.211   3.357  14.079  0.00  0.00    +0.000 OA
BRANCH  24  26
ATOM     26  O   UNL     1       7.555   5.094  14.587  0.00  0.00    +0.000 OA
ATOM     27  H   UNL     1       8.419   4.898  15.007  0.00  0.00    +0.000 HD
ENDBRANCH  24  26
ENDBRANCH  23  24
BRANCH  23  28
ATOM     28  C   UNL     1       4.942   3.288  16.554  0.00  0.00    +0.000 C 
BRANCH  28  29
ATOM     29  C   UNL     1       3.698   3.334  17.405  0.00  0.00    +0.000 A 
ATOM     30  C   UNL     1       2.458   3.324  16.779  0.00  0.00    +0.000 A 
ATOM     31  N   UNL     1       1.628   3.953  17.656  0.00  0.00    +0.000 N 
ATOM     32  C   UNL     1       1.966   3.443  18.897  0.00  0.00    +0.000 A 
ATOM     33  C   UNL     1       1.148   3.290  20.014  0.00  0.00    +0.000 A 
ATOM     34  C   UNL     1       1.744   2.678  21.114  0.00  0.00    +0.000 A 
ATOM     35  C   UNL     1       3.095   2.349  21.088  0.00  0.00    +0.000 A 
ATOM     36  C   UNL     1       3.907   2.589  19.953  0.00  0.00    +0.000 A 
ATOM     37  C   UNL     1       3.312   3.105  18.781  0.00  0.00    +0.000 A 
ATOM     38  H   UNL     1       1.211   4.859  17.525  0.00  0.00    +0.000 HD
ENDBRANCH  28  29
ENDBRANCH  23  28
ENDBRANCH  21  23
ENDBRANCH   1  21
TORSDOF 9
ENDMDL
MODEL 7
REMARK VINA RESULT:      -8.1      2.615      4.984
REMARK  Name = 
REMARK  9 active torsions:
REMARK  status: ('A' for Active; 'I' for Inactive)
REMARK    1  A    between atoms: C_2  and  C_28
REMARK    2  A    between atoms: N_3  and  C_4
REMARK    3  A    between atoms: C_7  and  S_8
REMARK    4  A    between atoms: S_8  and  N_11
REMARK    5  A    between atoms: N_11  and  C_12
REMARK    6  A    between atoms: C_12  and  C_13
REMARK    7  A    between atoms: C_12  and  C_23
REMARK    8  A    between atoms: C_13  and  C_14
REMARK    9  A    between atoms: C_23  and  O_25
REMARK                            x       y       z     vdW  Elec       q    Type
REMARK                         _______ _______ _______ _____ _____    ______ ____
ROOT
ATOM      1  S   UNL     1       4.789   3.315  19.738  0.00  0.00    +0.000 S 
ATOM      2  O   UNL     1       6.023   4.014  19.459  0.00  0.00    +0.000 OA
ATOM      3  O   UNL     1       4.639   2.475  20.905  0.00  0.00    +0.000 OA
ENDROOT
BRANCH   1   7
ATOM      4  C   UNL     1       1.793   6.748  20.375  0.00  0.00    +0.000 A 
ATOM      5  C   UNL     1       1.534   5.471  20.888  0.00  0.00    +0.000 A 
ATOM      6  C   UNL     1       2.394   4.391  20.619  0.00  0.00    +0.000 A 
ATOM      7  C   UNL     1       3.520   4.576  19.812  0.00  0.00    +0.000 A 
ATOM      8  C   UNL     1       3.766   5.835  19.254  0.00  0.00    +0.000 A 
ATOM      9  C   UNL     1       2.898   6.908  19.526  0.00  0.00    +0.000 A 
BRANCH   4  12
ATOM     10  O   UNL     1       1.545   9.288  18.894  0.00  0.00    +0.000 OA
ATOM     11  C   UNL     1       0.962   9.071  19.950  0.00  0.00    +0.000 C 
ATOM     12  N   UNL     1       1.022   7.899  20.692  0.00  0.00    +0.000 N 
ATOM     13  H   UNL     1       0.348   7.786  21.438  0.00  0.00    +0.000 HD
BRANCH  11  14
ATOM     14  C   UNL     1       0.065  10.149  20.458  0.00  0.00    +0.000 A 
ATOM     15  C   UNL     1      -0.627  11.021  19.615  0.00  0.00    +0.000 A 
ATOM     16  C   UNL     1      -1.498  11.928  20.201  0.00  0.00    +0.000 A 
ATOM     17  N   UNL     1      -1.708  12.024  21.530  0.00  0.00    +0.000 NA
ATOM     18  C   UNL     1      -1.030  11.164  22.315  0.00  0.00    +0.000 A 
ATOM     19  F   UNL     1      -1.244  11.230  23.637  0.00  0.00    +0.000 F 
ATOM     20  C   UNL     1      -0.144  10.222  21.837  0.00  0.00    +0.000 A 
ENDBRANCH  11  14
ENDBRANCH   4  12
ENDBRANCH   1   7
BRANCH   1  21
ATOM     21  N   UNL     1       4.465   2.403  18.394  0.00  0.00    +0.000 NA
ATOM     22  H   UNL     1       4.738   1.416  18.423  0.00  0.00    +0.000 HD
BRANCH  21  23
ATOM     23  C   UNL     1       3.758   2.871  17.185  0.00  0.00    +0.000 C 
BRANCH  23  24
ATOM     24  C   UNL     1       2.254   2.833  17.466  0.00  0.00    +0.000 C 
ATOM     25  O   UNL     1       1.506   3.749  17.152  0.00  0.00    +0.000 OA
BRANCH  24  26
ATOM     26  O   UNL     1       1.824   1.755  18.156  0.00  0.00    +0.000 OA
ATOM     27  H   UNL     1       2.489   1.100  18.453  0.00  0.00    +0.000 HD
ENDBRANCH  24  26
ENDBRANCH  23  24
BRANCH  23  28
ATOM     28  C   UNL     1       4.187   4.229  16.628  0.00  0.00    +0.000 C 
BRANCH  28  29
ATOM     29  C   UNL     1       5.347   4.477  15.697  0.00  0.00    +0.000 A 
ATOM     30  C   UNL     1       6.594   4.754  16.241  0.00  0.00    +0.000 A 
ATOM     31  N   UNL     1       7.229   5.486  15.284  0.00  0.00    +0.000 N 
ATOM     32  C   UNL     1       6.936   4.848  14.093  0.00  0.00    +0.000 A 
ATOM     33  C   UNL     1       7.706   4.800  12.932  0.00  0.00    +0.000 A 
ATOM     34  C   UNL     1       7.189   4.020  11.902  0.00  0.00    +0.000 A 
ATOM     35  C   UNL     1       5.937   3.426  12.030  0.00  0.00    +0.000 A 
ATOM     36  C   UNL     1       5.156   3.562  13.203  0.00  0.00    +0.000 A 
ATOM     37  C   UNL     1       5.696   4.253  14.310  0.00  0.00    +0.000 A 
ATOM     38  H   UNL     1       7.458   6.464  15.348  0.00  0.00    +0.000 HD
ENDBRANCH  28  29
ENDBRANCH  23  28
ENDBRANCH  21  23
ENDBRANCH   1  21
TORSDOF 9
ENDMDL
MODEL 8
REMARK VINA RESULT:      -8.1      1.468      1.901
REMARK  Name = 
REMARK  9 active torsions:
REMARK  status: ('A' for Active; 'I' for Inactive)
REMARK    1  A    between atoms: C_2  and  C_28
REMARK    2  A    between atoms: N_3  and  C_4
REMARK    3  A    between atoms: C_7  and  S_8
REMARK    4  A    between atoms: S_8  and  N_11
REMARK    5  A    between atoms: N_11  and  C_12
REMARK    6  A    between atoms: C_12  and  C_13
REMARK    7  A    between atoms: C_12  and  C_23
REMARK    8  A    between atoms: C_13  and  C_14
REMARK    9  A    between atoms: C_23  and  O_25
REMARK                            x       y       z     vdW  Elec       q    Type
REMARK                         _______ _______ _______ _____ _____    ______ ____
ROOT
ATOM      1  S   UNL     1       6.364   5.739  18.582  0.00  0.00    +0.000 S 
ATOM      2  O   UNL     1       7.269   6.789  18.172  0.00  0.00    +0.000 OA
ATOM      3  O   UNL     1       6.454   5.124  19.887  0.00  0.00    +0.000 OA
ENDROOT
BRANCH   1   7
ATOM      4  C   UNL     1       2.328   7.942  18.429  0.00  0.00    +0.000 A 
ATOM      5  C   UNL     1       2.598   7.019  19.446  0.00  0.00    +0.000 A 
ATOM      6  C   UNL     1       3.788   6.269  19.450  0.00  0.00    +0.000 A 
ATOM      7  C   UNL     1       4.717   6.423  18.418  0.00  0.00    +0.000 A 
ATOM      8  C   UNL     1       4.440   7.307  17.370  0.00  0.00    +0.000 A 
ATOM      9  C   UNL     1       3.245   8.051  17.373  0.00  0.00    +0.000 A 
BRANCH   4  12
ATOM     10  O   UNL     1       1.253   9.624  20.602  0.00  0.00    +0.000 OA
ATOM     11  C   UNL     1       0.738   9.559  19.491  0.00  0.00    +0.000 C 
ATOM     12  N   UNL     1       1.196   8.801  18.421  0.00  0.00    +0.000 N 
ATOM     13  H   UNL     1       0.789   8.986  17.513  0.00  0.00    +0.000 HD
BRANCH  11  14
ATOM     14  C   UNL     1      -0.462  10.412  19.253  0.00  0.00    +0.000 A 
ATOM     15  C   UNL     1      -1.293  10.259  18.142  0.00  0.00    +0.000 A 
ATOM     16  C   UNL     1      -2.428  11.055  18.072  0.00  0.00    +0.000 A 
ATOM     17  N   UNL     1      -2.769  11.968  19.004  0.00  0.00    +0.000 NA
ATOM     18  C   UNL     1      -1.949  12.086  20.066  0.00  0.00    +0.000 A 
ATOM     19  F   UNL     1      -2.285  12.973  21.014  0.00  0.00    +0.000 F 
ATOM     20  C   UNL     1      -0.800  11.344  20.237  0.00  0.00    +0.000 A 
ENDBRANCH  11  14
ENDBRANCH   4  12
ENDBRANCH   1   7
BRANCH   1  21
ATOM     21  N   UNL     1       6.492   4.550  17.436  0.00  0.00    +0.000 NA
ATOM     22  H   UNL     1       7.274   3.895  17.528  0.00  0.00    +0.000 HD
BRANCH  21  23
ATOM     23  C   UNL     1       5.542   4.312  16.331  0.00  0.00    +0.000 C 
BRANCH  23  24
ATOM     24  C   UNL     1       6.346   4.085  15.049  0.00  0.00    +0.000 C 
ATOM     25  O   UNL     1       5.951   3.357  14.149  0.00  0.00    +0.000 OA
BRANCH  24  26
ATOM     26  O   UNL     1       7.556   4.682  15.015  0.00  0.00    +0.000 OA
ATOM     27  H   UNL     1       8.237   4.387  15.655  0.00  0.00    +0.000 HD
ENDBRANCH  24  26
ENDBRANCH  23  24
BRANCH  23  28
ATOM     28  C   UNL     1       4.510   3.204  16.546  0.00  0.00    +0.000 C 
BRANCH  28  29
ATOM     29  C   UNL     1       3.349   3.249  17.507  0.00  0.00    +0.000 A 
ATOM     30  C   UNL     1       2.058   3.182  17.001  0.00  0.00    +0.000 A 
ATOM     31  N   UNL     1       1.293   3.822  17.928  0.00  0.00    +0.000 N 
ATOM     32  C   UNL     1       1.760   3.370  19.149  0.00  0.00    +0.000 A 
ATOM     33  C   UNL     1       1.053   3.238  20.343  0.00  0.00    +0.000 A 
ATOM     34  C   UNL     1       1.766   2.686  21.404  0.00  0.00    +0.000 A 
ATOM     35  C   UNL     1       3.119   2.393  21.264  0.00  0.00    +0.000 A 
ATOM     36  C   UNL     1       3.815   2.610  20.050  0.00  0.00    +0.000 A 
ATOM     37  C   UNL     1       3.099   3.064  18.921  0.00  0.00    +0.000 A 
ATOM     38  H   UNL     1       0.838   4.711  17.803  0.00  0.00    +0.000 HD
ENDBRANCH  28  29
ENDBRANCH  23  28
ENDBRANCH  21  23
ENDBRANCH   1  21
TORSDOF 9
ENDMDL
MODEL 9
REMARK VINA RESULT:      -8.1      2.239      4.630
REMARK  Name = 
REMARK  9 active torsions:
REMARK  status: ('A' for Active; 'I' for Inactive)
REMARK    1  A    between atoms: C_2  and  C_28
REMARK    2  A    between atoms: N_3  and  C_4
REMARK    3  A    between atoms: C_7  and  S_8
REMARK    4  A    between atoms: S_8  and  N_11
REMARK    5  A    between atoms: N_11  and  C_12
REMARK    6  A    between atoms: C_12  and  C_13
REMARK    7  A    between atoms: C_12  and  C_23
REMARK    8  A    between atoms: C_13  and  C_14
REMARK    9  A    between atoms: C_23  and  O_25
REMARK                            x       y       z     vdW  Elec       q    Type
REMARK                         _______ _______ _______ _____ _____    ______ ____
ROOT
ATOM      1  S   UNL     1       3.927   6.419  18.162  0.00  0.00    +0.000 S 
ATOM      2  O   UNL     1       3.913   6.698  16.743  0.00  0.00    +0.000 OA
ATOM      3  O   UNL     1       5.086   6.695  18.980  0.00  0.00    +0.000 OA
ENDROOT
BRANCH   1   7
ATOM      4  C   UNL     1       0.759   9.109  20.135  0.00  0.00    +0.000 A 
ATOM      5  C   UNL     1       1.238   7.970  20.794  0.00  0.00    +0.000 A 
ATOM      6  C   UNL     1       2.134   7.088  20.164  0.00  0.00    +0.000 A 
ATOM      7  C   UNL     1       2.547   7.329  18.851  0.00  0.00    +0.000 A 
ATOM      8  C   UNL     1       2.040   8.436  18.163  0.00  0.00    +0.000 A 
ATOM      9  C   UNL     1       1.142   9.312  18.802  0.00  0.00    +0.000 A 
BRANCH   4  12
ATOM     10  O   UNL     1       1.535  11.644  21.432  0.00  0.00    +0.000 OA
ATOM     11  C   UNL     1       0.373  11.261  21.355  0.00  0.00    +0.000 C 
ATOM     12  N   UNL     1      -0.065  10.090  20.750  0.00  0.00    +0.000 N 
ATOM     13  H   UNL     1      -1.060   9.992  20.593  0.00  0.00    +0.000 HD
BRANCH  11  14
ATOM     14  C   UNL     1      -0.672  12.164  21.919  0.00  0.00    +0.000 A 
ATOM     15  C   UNL     1      -0.813  13.498  21.533  0.00  0.00    +0.000 A 
ATOM     16  C   UNL     1      -1.875  14.214  22.064  0.00  0.00    +0.000 A 
ATOM     17  N   UNL     1      -2.771  13.704  22.934  0.00  0.00    +0.000 NA
ATOM     18  C   UNL     1      -2.612  12.412  23.281  0.00  0.00    +0.000 A 
ATOM     19  F   UNL     1      -3.507  11.882  24.127  0.00  0.00    +0.000 F 
ATOM     20  C   UNL     1      -1.594  11.609  22.810  0.00  0.00    +0.000 A 
ENDBRANCH  11  14
ENDBRANCH   4  12
ENDBRANCH   1   7
BRANCH   1  21
ATOM     21  N   UNL     1       3.551   4.813  18.317  0.00  0.00    +0.000 NA
ATOM     22  H   UNL     1       2.587   4.581  18.571  0.00  0.00    +0.000 HD
BRANCH  21  23
ATOM     23  C   UNL     1       4.468   3.685  18.056  0.00  0.00    +0.000 C 
BRANCH  23  24
ATOM     24  C   UNL     1       3.966   2.470  18.841  0.00  0.00    +0.000 C 
ATOM     25  O   UNL     1       2.827   2.041  18.724  0.00  0.00    +0.000 OA
BRANCH  24  26
ATOM     26  O   UNL     1       4.843   1.957  19.729  0.00  0.00    +0.000 OA
ATOM     27  H   UNL     1       4.582   1.157  20.230  0.00  0.00    +0.000 HD
ENDBRANCH  24  26
ENDBRANCH  23  24
BRANCH  23  28
ATOM     28  C   UNL     1       4.719   3.336  16.588  0.00  0.00    +0.000 C 
BRANCH  28  29
ATOM     29  C   UNL     1       5.740   3.983  15.687  0.00  0.00    +0.000 A 
ATOM     30  C   UNL     1       6.903   4.493  16.251  0.00  0.00    +0.000 A 
ATOM     31  N   UNL     1       7.295   5.476  15.394  0.00  0.00    +0.000 N 
ATOM     32  C   UNL     1       7.118   4.941  14.131  0.00  0.00    +0.000 A 
ATOM     33  C   UNL     1       7.826   5.235  12.967  0.00  0.00    +0.000 A 
ATOM     34  C   UNL     1       7.475   4.486  11.847  0.00  0.00    +0.000 A 
ATOM     35  C   UNL     1       6.416   3.586  11.907  0.00  0.00    +0.000 A 
ATOM     36  C   UNL     1       5.677   3.372  13.096  0.00  0.00    +0.000 A 
ATOM     37  C   UNL     1       6.074   4.031  14.280  0.00  0.00    +0.000 A 
ATOM     38  H   UNL     1       7.277   6.464  15.586  0.00  0.00    +0.000 HD
ENDBRANCH  28  29
ENDBRANCH  23  28
ENDBRANCH  21  23
ENDBRANCH   1  21
TORSDOF 9
ENDMDL
