MODEL 1
REMARK VINA RESULT:      -8.6      0.000      0.000
REMARK  Name = 
REMARK  6 active torsions:
REMARK  status: ('A' for Active; 'I' for Inactive)
REMARK    1  A    between atoms: C_1  and  C_2
REMARK    2  A    between atoms: C_3  and  C_4
REMARK    3  A    between atoms: N_6  and  C_7
REMARK    4  A    between atoms: C_13  and  C_14
REMARK    5  A    between atoms: C_16  and  N_17
REMARK    6  A    between atoms: N_17  and  C_18
REMARK                            x       y       z     vdW  Elec       q    Type
REMARK                         _______ _______ _______ _____ _____    ______ ____
ROOT
ATOM      1  C   UNL     1       6.404   6.675  17.131  0.00  0.00    +0.000 A 
ATOM      2  C   UNL     1       6.663   5.661  16.226  0.00  0.00    +0.000 A 
ATOM      3  N   UNL     1       5.960   4.510  16.158  0.00  0.00    +0.000 NA
ATOM      4  C   UNL     1       4.937   4.325  16.979  0.00  0.00    +0.000 A 
ATOM      5  N   UNL     1       4.256   3.199  16.811  0.00  0.00    +0.000 NA
ATOM      6  C   UNL     1       3.155   2.978  17.551  0.00  0.00    +0.000 A 
ATOM      7  C   UNL     1       2.691   3.841  18.523  0.00  0.00    +0.000 A 
ATOM      8  C   UNL     1       3.454   4.988  18.799  0.00  0.00    +0.000 A 
ATOM      9  C   UNL     1       4.579   5.274  17.961  0.00  0.00    +0.000 A 
ATOM     10  C   UNL     1       5.368   6.453  18.038  0.00  0.00    +0.000 A 
ENDROOT
BRANCH   1  13
ATOM     11  C   UNL     1       8.100   8.198  18.105  0.00  0.00    +0.000 C 
ATOM     12  O   UNL     1       8.575   7.464  18.959  0.00  0.00    +0.000 OA
ATOM     13  N   UNL     1       7.124   7.885  17.182  0.00  0.00    +0.000 N 
ATOM     14  H   UNL     1       6.957   8.570  16.456  0.00  0.00    +0.000 HD
BRANCH  11  17
ATOM     15  C   UNL     1       9.449  12.074  17.927  0.00  0.00    +0.000 C 
ATOM     16  C   UNL     1       8.991  10.686  17.954  0.00  0.00    +0.000 C 
ATOM     17  C   UNL     1       8.599   9.551  18.003  0.00  0.00    +0.000 C 
ENDBRANCH  11  17
ENDBRANCH   1  13
BRANCH   7  18
ATOM     18  C   UNL     1       1.442   3.527  19.145  0.00  0.00    +0.000 C 
ATOM     19  N   UNL     1       0.451   3.255  19.682  0.00  0.00    +0.000 NA
ENDBRANCH   7  18
BRANCH   8  20
ATOM     20  N   UNL     1       3.099   5.922  19.818  0.00  0.00    +0.000 N 
ATOM     21  H   UNL     1       3.785   5.935  20.573  0.00  0.00    +0.000 HD
BRANCH  20  22
ATOM     22  C   UNL     1       2.396   7.144  19.681  0.00  0.00    +0.000 A 
ATOM     23  C   UNL     1       2.291   7.809  18.448  0.00  0.00    +0.000 A 
ATOM     24  C   UNL     1       1.547   8.985  18.318  0.00  0.00    +0.000 A 
ATOM     25  C   UNL     1       0.853   9.481  19.412  0.00  0.00    +0.000 A 
ATOM     26  F   UNL     1       0.114  10.590  19.259  0.00  0.00    +0.000 F 
ATOM     27  C   UNL     1       0.908   8.820  20.635  0.00  0.00    +0.000 A 
ATOM     28 CL   UNL     1       0.019   9.410  21.987  0.00  0.00    +0.000 Cl
ATOM     29  C   UNL     1       1.674   7.656  20.770  0.00  0.00    +0.000 A 
ENDBRANCH  20  22
ENDBRANCH   8  20
TORSDOF 5
ENDMDL
MODEL 2
REMARK VINA RESULT:      -8.3      0.970      1.335
REMARK  Name = 
REMARK  6 active torsions:
REMARK  status: ('A' for Active; 'I' for Inactive)
REMARK    1  A    between atoms: C_1  and  C_2
REMARK    2  A    between atoms: C_3  and  C_4
REMARK    3  A    between atoms: N_6  and  C_7
REMARK    4  A    between atoms: C_13  and  C_14
REMARK    5  A    between atoms: C_16  and  N_17
REMARK    6  A    between atoms: N_17  and  C_18
REMARK                            x       y       z     vdW  Elec       q    Type
REMARK                         _______ _______ _______ _____ _____    ______ ____
ROOT
ATOM      1  C   UNL     1       6.269   6.627  17.105  0.00  0.00    +0.000 A 
ATOM      2  C   UNL     1       6.444   5.679  16.112  0.00  0.00    +0.000 A 
ATOM      3  N   UNL     1       5.711   4.550  16.006  0.00  0.00    +0.000 NA
ATOM      4  C   UNL     1       4.739   4.323  16.878  0.00  0.00    +0.000 A 
ATOM      5  N   UNL     1       4.022   3.227  16.673  0.00  0.00    +0.000 NA
ATOM      6  C   UNL     1       2.966   2.972  17.467  0.00  0.00    +0.000 A 
ATOM      7  C   UNL     1       2.587   3.768  18.528  0.00  0.00    +0.000 A 
ATOM      8  C   UNL     1       3.394   4.876  18.837  0.00  0.00    +0.000 A 
ATOM      9  C   UNL     1       4.469   5.203  17.949  0.00  0.00    +0.000 A 
ATOM     10  C   UNL     1       5.289   6.357  18.060  0.00  0.00    +0.000 A 
ENDROOT
BRANCH   1  13
ATOM     11  C   UNL     1       8.033   8.055  18.101  0.00  0.00    +0.000 C 
ATOM     12  O   UNL     1       8.518   7.264  18.897  0.00  0.00    +0.000 OA
ATOM     13  N   UNL     1       7.019   7.816  17.197  0.00  0.00    +0.000 N 
ATOM     14  H   UNL     1       6.846   8.543  16.516  0.00  0.00    +0.000 HD
BRANCH  11  17
ATOM     15  C   UNL     1       9.624  11.842  18.068  0.00  0.00    +0.000 C 
ATOM     16  C   UNL     1       9.029  10.507  18.050  0.00  0.00    +0.000 C 
ATOM     17  C   UNL     1       8.562   9.400  18.057  0.00  0.00    +0.000 C 
ENDBRANCH  11  17
ENDBRANCH   1  13
BRANCH   7  18
ATOM     18  C   UNL     1       1.374   3.432  19.207  0.00  0.00    +0.000 C 
ATOM     19  N   UNL     1       0.413   3.134  19.784  0.00  0.00    +0.000 NA
ENDBRANCH   7  18
BRANCH   8  20
ATOM     20  N   UNL     1       3.129   5.737  19.944  0.00  0.00    +0.000 N 
ATOM     21  H   UNL     1       3.934   5.811  20.565  0.00  0.00    +0.000 HD
BRANCH  20  22
ATOM     22  C   UNL     1       2.283   6.872  19.988  0.00  0.00    +0.000 A 
ATOM     23  C   UNL     1       1.489   7.167  21.109  0.00  0.00    +0.000 A 
ATOM     24  C   UNL     1       0.703   8.322  21.159  0.00  0.00    +0.000 A 
ATOM     25  C   UNL     1       0.742   9.224  20.106  0.00  0.00    +0.000 A 
ATOM     26  F   UNL     1       0.010  10.344  20.188  0.00  0.00    +0.000 F 
ATOM     27  C   UNL     1       1.550   8.975  19.001  0.00  0.00    +0.000 A 
ATOM     28 CL   UNL     1       1.633  10.109  17.707  0.00  0.00    +0.000 Cl
ATOM     29  C   UNL     1       2.319   7.806  18.941  0.00  0.00    +0.000 A 
ENDBRANCH  20  22
ENDBRANCH   8  20
TORSDOF 5
ENDMDL
MODEL 3
REMARK VINA RESULT:      -7.6      1.522      1.862
REMARK  Name = 
REMARK  6 active torsions:
REMARK  status: ('A' for Active; 'I' for Inactive)
REMARK    1  A    between atoms: C_1  and  C_2
REMARK    2  A    between atoms: C_3  and  C_4
REMARK    3  A    between atoms: N_6  and  C_7
REMARK    4  A    between atoms: C_13  and  C_14
REMARK    5  A    between atoms: C_16  and  N_17
REMARK    6  A    between atoms: N_17  and  C_18
REMARK                            x       y       z     vdW  Elec       q    Type
REMARK                         _______ _______ _______ _____ _____    ______ ____
ROOT
ATOM      1  C   UNL     1       7.576   7.581  18.081  0.00  0.00    +0.000 A 
ATOM      2  C   UNL     1       8.208   6.460  18.590  0.00  0.00    +0.000 A 
ATOM      3  N   UNL     1       7.579   5.299  18.869  0.00  0.00    +0.000 NA
ATOM      4  C   UNL     1       6.281   5.188  18.624  0.00  0.00    +0.000 A 
ATOM      5  N   UNL     1       5.746   3.998  18.864  0.00  0.00    +0.000 NA
ATOM      6  C   UNL     1       4.453   3.784  18.562  0.00  0.00    +0.000 A 
ATOM      7  C   UNL     1       3.611   4.747  18.043  0.00  0.00    +0.000 A 
ATOM      8  C   UNL     1       4.121   6.046  17.883  0.00  0.00    +0.000 A 
ATOM      9  C   UNL     1       5.516   6.263  18.121  0.00  0.00    +0.000 A 
ATOM     10  C   UNL     1       6.198   7.486  17.883  0.00  0.00    +0.000 A 
ENDROOT
BRANCH   1  13
ATOM     11  C   UNL     1       8.832   9.632  18.680  0.00  0.00    +0.000 C 
ATOM     12  O   UNL     1       8.971   9.450  19.880  0.00  0.00    +0.000 OA
ATOM     13  N   UNL     1       8.241   8.784  17.767  0.00  0.00    +0.000 N 
ATOM     14  H   UNL     1       8.345   9.030  16.792  0.00  0.00    +0.000 HD
BRANCH  11  17
ATOM     15  C   UNL     1      10.248  13.174  17.153  0.00  0.00    +0.000 C 
ATOM     16  C   UNL     1       9.758  11.893  17.661  0.00  0.00    +0.000 C 
ATOM     17  C   UNL     1       9.345  10.855  18.104  0.00  0.00    +0.000 C 
ENDBRANCH  11  17
ENDBRANCH   1  13
BRANCH   7  18
ATOM     18  C   UNL     1       2.294   4.339  17.663  0.00  0.00    +0.000 C 
ATOM     19  N   UNL     1       1.214   4.010  17.396  0.00  0.00    +0.000 NA
ENDBRANCH   7  18
BRANCH   8  20
ATOM     20  N   UNL     1       3.327   7.132  17.406  0.00  0.00    +0.000 N 
ATOM     21  H   UNL     1       2.948   6.942  16.478  0.00  0.00    +0.000 HD
BRANCH  20  22
ATOM     22  C   UNL     1       2.538   8.037  18.156  0.00  0.00    +0.000 A 
ATOM     23  C   UNL     1       1.962   9.181  17.578  0.00  0.00    +0.000 A 
ATOM     24  C   UNL     1       1.140  10.034  18.320  0.00  0.00    +0.000 A 
ATOM     25  C   UNL     1       0.841   9.723  19.638  0.00  0.00    +0.000 A 
ATOM     26  F   UNL     1       0.021  10.533  20.323  0.00  0.00    +0.000 F 
ATOM     27  C   UNL     1       1.367   8.576  20.223  0.00  0.00    +0.000 A 
ATOM     28 CL   UNL     1       0.970   8.163  21.848  0.00  0.00    +0.000 Cl
ATOM     29  C   UNL     1       2.210   7.734  19.487  0.00  0.00    +0.000 A 
ENDBRANCH  20  22
ENDBRANCH   8  20
TORSDOF 5
ENDMDL
MODEL 4
REMARK VINA RESULT:      -7.6      1.199      1.210
REMARK  Name = 
REMARK  6 active torsions:
REMARK  status: ('A' for Active; 'I' for Inactive)
REMARK    1  A    between atoms: C_1  and  C_2
REMARK    2  A    between atoms: C_3  and  C_4
REMARK    3  A    between atoms: N_6  and  C_7
REMARK    4  A    between atoms: C_13  and  C_14
REMARK    5  A    between atoms: C_16  and  N_17
REMARK    6  A    between atoms: N_17  and  C_18
REMARK                            x       y       z     vdW  Elec       q    Type
REMARK                         _______ _______ _______ _____ _____    ______ ____
ROOT
ATOM      1  C   UNL     1       7.432   6.554  18.124  0.00  0.00    +0.000 A 
ATOM      2  C   UNL     1       7.889   5.681  17.153  0.00  0.00    +0.000 A 
ATOM      3  N   UNL     1       7.164   4.656  16.656  0.00  0.00    +0.000 NA
ATOM      4  C   UNL     1       5.926   4.467  17.087  0.00  0.00    +0.000 A 
ATOM      5  N   UNL     1       5.255   3.480  16.508  0.00  0.00    +0.000 NA
ATOM      6  C   UNL     1       3.966   3.280  16.834  0.00  0.00    +0.000 A 
ATOM      7  C   UNL     1       3.283   4.021  17.778  0.00  0.00    +0.000 A 
ATOM      8  C   UNL     1       3.999   4.999  18.486  0.00  0.00    +0.000 A 
ATOM      9  C   UNL     1       5.346   5.277  18.089  0.00  0.00    +0.000 A 
ATOM     10  C   UNL     1       6.152   6.317  18.625  0.00  0.00    +0.000 A 
ENDROOT
BRANCH   1  13
ATOM     11  C   UNL     1       8.156   8.924  18.122  0.00  0.00    +0.000 C 
ATOM     12  O   UNL     1       7.425   9.367  17.249  0.00  0.00    +0.000 OA
ATOM     13  N   UNL     1       8.182   7.639  18.621  0.00  0.00    +0.000 N 
ATOM     14  H   UNL     1       8.750   7.488  19.444  0.00  0.00    +0.000 HD
BRANCH  11  17
ATOM     15  C   UNL     1      10.774  11.567  19.867  0.00  0.00    +0.000 C 
ATOM     16  C   UNL     1       9.871  10.595  19.253  0.00  0.00    +0.000 C 
ATOM     17  C   UNL     1       9.108   9.819  18.743  0.00  0.00    +0.000 C 
ENDBRANCH  11  17
ENDBRANCH   1  13
BRANCH   7  18
ATOM     18  C   UNL     1       1.883   3.768  17.931  0.00  0.00    +0.000 C 
ATOM     19  N   UNL     1       0.750   3.536  18.021  0.00  0.00    +0.000 NA
ENDBRANCH   7  18
BRANCH   8  20
ATOM     20  N   UNL     1       3.410   5.788  19.520  0.00  0.00    +0.000 N 
ATOM     21  H   UNL     1       3.935   5.719  20.391  0.00  0.00    +0.000 HD
BRANCH  20  22
ATOM     22  C   UNL     1       2.691   7.001  19.395  0.00  0.00    +0.000 A 
ATOM     23  C   UNL     1       2.606   7.695  18.176  0.00  0.00    +0.000 A 
ATOM     24  C   UNL     1       1.846   8.862  18.056  0.00  0.00    +0.000 A 
ATOM     25  C   UNL     1       1.117   9.320  19.144  0.00  0.00    +0.000 A 
ATOM     26  F   UNL     1       0.364  10.420  18.999  0.00  0.00    +0.000 F 
ATOM     27  C   UNL     1       1.153   8.630  20.351  0.00  0.00    +0.000 A 
ATOM     28 CL   UNL     1       0.221   9.173  21.695  0.00  0.00    +0.000 Cl
ATOM     29  C   UNL     1       1.934   7.475  20.478  0.00  0.00    +0.000 A 
ENDBRANCH  20  22
ENDBRANCH   8  20
TORSDOF 5
ENDMDL
MODEL 5
REMARK VINA RESULT:      -7.6      1.597      2.023
REMARK  Name = 
REMARK  6 active torsions:
REMARK  status: ('A' for Active; 'I' for Inactive)
REMARK    1  A    between atoms: C_1  and  C_2
REMARK    2  A    between atoms: C_3  and  C_4
REMARK    3  A    between atoms: N_6  and  C_7
REMARK    4  A    between atoms: C_13  and  C_14
REMARK    5  A    between atoms: C_16  and  N_17
REMARK    6  A    between atoms: N_17  and  C_18
REMARK                            x       y       z     vdW  Elec       q    Type
REMARK                         _______ _______ _______ _____ _____    ______ ____
ROOT
ATOM      1  C   UNL     1       7.422   7.594  17.921  0.00  0.00    +0.000 A 
ATOM      2  C   UNL     1       8.126   6.447  18.246  0.00  0.00    +0.000 A 
ATOM      3  N   UNL     1       7.554   5.244  18.462  0.00  0.00    +0.000 NA
ATOM      4  C   UNL     1       6.241   5.117  18.336  0.00  0.00    +0.000 A 
ATOM      5  N   UNL     1       5.759   3.893  18.501  0.00  0.00    +0.000 NA
ATOM      6  C   UNL     1       4.446   3.670  18.309  0.00  0.00    +0.000 A 
ATOM      7  C   UNL     1       3.536   4.653  17.979  0.00  0.00    +0.000 A 
ATOM      8  C   UNL     1       3.998   5.977  17.906  0.00  0.00    +0.000 A 
ATOM      9  C   UNL     1       5.406   6.213  18.027  0.00  0.00    +0.000 A 
ATOM     10  C   UNL     1       6.034   7.475  17.852  0.00  0.00    +0.000 A 
ENDROOT
BRANCH   1  13
ATOM     11  C   UNL     1       8.733   9.587  18.591  0.00  0.00    +0.000 C 
ATOM     12  O   UNL     1       9.043   9.262  19.728  0.00  0.00    +0.000 OA
ATOM     13  N   UNL     1       8.025   8.842  17.671  0.00  0.00    +0.000 N 
ATOM     14  H   UNL     1       7.988   9.210  16.730  0.00  0.00    +0.000 HD
BRANCH  11  17
ATOM     15  C   UNL     1      10.002  13.282  17.320  0.00  0.00    +0.000 C 
ATOM     16  C   UNL     1       9.523  11.966  17.739  0.00  0.00    +0.000 C 
ATOM     17  C   UNL     1       9.150  10.885  18.108  0.00  0.00    +0.000 C 
ENDBRANCH  11  17
ENDBRANCH   1  13
BRANCH   7  18
ATOM     18  C   UNL     1       2.195   4.244  17.690  0.00  0.00    +0.000 C 
ATOM     19  N   UNL     1       1.104   3.904  17.498  0.00  0.00    +0.000 NA
ENDBRANCH   7  18
BRANCH   8  20
ATOM     20  N   UNL     1       3.137   7.080  17.626  0.00  0.00    +0.000 N 
ATOM     21  H   UNL     1       2.753   7.029  16.682  0.00  0.00    +0.000 HD
BRANCH  20  22
ATOM     22  C   UNL     1       2.312   7.799  18.525  0.00  0.00    +0.000 A 
ATOM     23  C   UNL     1       2.162   7.414  19.868  0.00  0.00    +0.000 A 
ATOM     24  C   UNL     1       1.389   8.166  20.757  0.00  0.00    +0.000 A 
ATOM     25  C   UNL     1       0.798   9.344  20.324  0.00  0.00    +0.000 A 
ATOM     26  F   UNL     1       0.090  10.071  21.201  0.00  0.00    +0.000 F 
ATOM     27  C   UNL     1       0.962   9.768  19.010  0.00  0.00    +0.000 A 
ATOM     28 CL   UNL     1       0.262  11.248  18.475  0.00  0.00    +0.000 Cl
ATOM     29  C   UNL     1       1.717   9.001  18.113  0.00  0.00    +0.000 A 
ENDBRANCH  20  22
ENDBRANCH   8  20
TORSDOF 5
ENDMDL
MODEL 6
REMARK VINA RESULT:      -6.9      5.029      8.094
REMARK  Name = 
REMARK  6 active torsions:
REMARK  status: ('A' for Active; 'I' for Inactive)
REMARK    1  A    between atoms: C_1  and  C_2
REMARK    2  A    between atoms: C_3  and  C_4
REMARK    3  A    between atoms: N_6  and  C_7
REMARK    4  A    between atoms: C_13  and  C_14
REMARK    5  A    between atoms: C_16  and  N_17
REMARK    6  A    between atoms: N_17  and  C_18
REMARK                            x       y       z     vdW  Elec       q    Type
REMARK                         _______ _______ _______ _____ _____    ______ ____
ROOT
ATOM      1  C   UNL     1       1.170   9.096  20.491  0.00  0.00    +0.000 A 
ATOM      2  C   UNL     1       1.183   8.710  21.819  0.00  0.00    +0.000 A 
ATOM      3  N   UNL     1       0.442   9.295  22.784  0.00  0.00    +0.000 NA
ATOM      4  C   UNL     1      -0.378  10.285  22.463  0.00  0.00    +0.000 A 
ATOM      5  N   UNL     1      -1.119  10.767  23.452  0.00  0.00    +0.000 NA
ATOM      6  C   UNL     1      -2.033  11.718  23.186  0.00  0.00    +0.000 A 
ATOM      7  C   UNL     1      -2.236  12.268  21.937  0.00  0.00    +0.000 A 
ATOM      8  C   UNL     1      -1.390  11.856  20.894  0.00  0.00    +0.000 A 
ATOM      9  C   UNL     1      -0.472  10.787  21.146  0.00  0.00    +0.000 A 
ATOM     10  C   UNL     1       0.356  10.181  20.164  0.00  0.00    +0.000 A 
ENDROOT
BRANCH   1  13
ATOM     11  C   UNL     1       2.300   7.139  19.474  0.00  0.00    +0.000 C 
ATOM     12  O   UNL     1       1.969   6.270  20.267  0.00  0.00    +0.000 OA
ATOM     13  N   UNL     1       1.926   8.466  19.482  0.00  0.00    +0.000 N 
ATOM     14  H   UNL     1       2.177   9.008  18.665  0.00  0.00    +0.000 HD
BRANCH  11  17
ATOM     15  C   UNL     1       4.812   6.000  16.429  0.00  0.00    +0.000 C 
ATOM     16  C   UNL     1       3.906   6.439  17.489  0.00  0.00    +0.000 C 
ATOM     17  C   UNL     1       3.170   6.776  18.377  0.00  0.00    +0.000 C 
ENDBRANCH  11  17
ENDBRANCH   1  13
BRANCH   7  18
ATOM     18  C   UNL     1      -3.325  13.184  21.786  0.00  0.00    +0.000 C 
ATOM     19  N   UNL     1      -4.203  13.923  21.621  0.00  0.00    +0.000 NA
ENDBRANCH   7  18
BRANCH   8  20
ATOM     20  N   UNL     1      -1.474  12.396  19.576  0.00  0.00    +0.000 N 
ATOM     21  H   UNL     1      -0.593  12.821  19.286  0.00  0.00    +0.000 HD
BRANCH  20  22
ATOM     22  C   UNL     1      -2.256  11.936  18.488  0.00  0.00    +0.000 A 
ATOM     23  C   UNL     1      -1.676  11.474  17.295  0.00  0.00    +0.000 A 
ATOM     24  C   UNL     1      -2.460  10.972  16.253  0.00  0.00    +0.000 A 
ATOM     25  C   UNL     1      -3.835  10.877  16.414  0.00  0.00    +0.000 A 
ATOM     26  F   UNL     1      -4.568  10.358  15.418  0.00  0.00    +0.000 F 
ATOM     27  C   UNL     1      -4.431  11.291  17.601  0.00  0.00    +0.000 A 
ATOM     28 CL   UNL     1      -6.133  11.142  17.822  0.00  0.00    +0.000 Cl
ATOM     29  C   UNL     1      -3.647  11.817  18.635  0.00  0.00    +0.000 A 
ENDBRANCH  20  22
ENDBRANCH   8  20
TORSDOF 5
ENDMDL
MODEL 7
REMARK VINA RESULT:      -6.9      6.856     10.597
REMARK  Name = 
REMARK  6 active torsions:
REMARK  status: ('A' for Active; 'I' for Inactive)
REMARK    1  A    between atoms: C_1  and  C_2
REMARK    2  A    between atoms: C_3  and  C_4
REMARK    3  A    between atoms: N_6  and  C_7
REMARK    4  A    between atoms: C_13  and  C_14
REMARK    5  A    between atoms: C_16  and  N_17
REMARK    6  A    between atoms: N_17  and  C_18
REMARK                            x       y       z     vdW  Elec       q    Type
REMARK                         _______ _______ _______ _____ _____    ______ ____
ROOT
ATOM      1  C   UNL     1      -4.723  11.623  17.805  0.00  0.00    +0.000 A 
ATOM      2  C   UNL     1      -5.904  11.881  18.477  0.00  0.00    +0.000 A 
ATOM      3  N   UNL     1      -5.968  12.339  19.746  0.00  0.00    +0.000 NA
ATOM      4  C   UNL     1      -4.845  12.590  20.403  0.00  0.00    +0.000 A 
ATOM      5  N   UNL     1      -4.987  13.096  21.621  0.00  0.00    +0.000 NA
ATOM      6  C   UNL     1      -3.894  13.454  22.317  0.00  0.00    +0.000 A 
ATOM      7  C   UNL     1      -2.601  13.295  21.861  0.00  0.00    +0.000 A 
ATOM      8  C   UNL     1      -2.416  12.660  20.622  0.00  0.00    +0.000 A 
ATOM      9  C   UNL     1      -3.573  12.352  19.837  0.00  0.00    +0.000 A 
ATOM     10  C   UNL     1      -3.541  11.826  18.518  0.00  0.00    +0.000 A 
ENDROOT
BRANCH   1  13
ATOM     11  C   UNL     1      -3.596  10.501  15.904  0.00  0.00    +0.000 C 
ATOM     12  O   UNL     1      -2.587  10.101  16.465  0.00  0.00    +0.000 OA
ATOM     13  N   UNL     1      -4.660  11.170  16.472  0.00  0.00    +0.000 N 
ATOM     14  H   UNL     1      -5.476  11.294  15.887  0.00  0.00    +0.000 HD
BRANCH  11  17
ATOM     15  C   UNL     1      -4.111   9.704  11.907  0.00  0.00    +0.000 C 
ATOM     16  C   UNL     1      -3.896  10.015  13.319  0.00  0.00    +0.000 C 
ATOM     17  C   UNL     1      -3.743  10.251  14.487  0.00  0.00    +0.000 C 
ENDBRANCH  11  17
ENDBRANCH   1  13
BRANCH   7  18
ATOM     18  C   UNL     1      -1.545  13.831  22.665  0.00  0.00    +0.000 C 
ATOM     19  N   UNL     1      -0.661  14.251  23.287  0.00  0.00    +0.000 NA
ENDBRANCH   7  18
BRANCH   8  20
ATOM     20  N   UNL     1      -1.124  12.395  20.078  0.00  0.00    +0.000 N 
ATOM     21  H   UNL     1      -0.565  13.244  20.001  0.00  0.00    +0.000 HD
BRANCH  20  22
ATOM     22  C   UNL     1      -0.341  11.222  20.210  0.00  0.00    +0.000 A 
ATOM     23  C   UNL     1      -0.281  10.498  21.412  0.00  0.00    +0.000 A 
ATOM     24  C   UNL     1       0.453   9.311  21.510  0.00  0.00    +0.000 A 
ATOM     25  C   UNL     1       1.093   8.808  20.387  0.00  0.00    +0.000 A 
ATOM     26  F   UNL     1       1.761   7.649  20.490  0.00  0.00    +0.000 F 
ATOM     27  C   UNL     1       1.017   9.485  19.174  0.00  0.00    +0.000 A 
ATOM     28 CL   UNL     1       1.778   8.846  17.767  0.00  0.00    +0.000 Cl
ATOM     29  C   UNL     1       0.303  10.686  19.084  0.00  0.00    +0.000 A 
ENDBRANCH  20  22
ENDBRANCH   8  20
TORSDOF 5
ENDMDL
MODEL 8
REMARK VINA RESULT:      -6.8      6.165      9.960
REMARK  Name = 
REMARK  6 active torsions:
REMARK  status: ('A' for Active; 'I' for Inactive)
REMARK    1  A    between atoms: C_1  and  C_2
REMARK    2  A    between atoms: C_3  and  C_4
REMARK    3  A    between atoms: N_6  and  C_7
REMARK    4  A    between atoms: C_13  and  C_14
REMARK    5  A    between atoms: C_16  and  N_17
REMARK    6  A    between atoms: N_17  and  C_18
REMARK                            x       y       z     vdW  Elec       q    Type
REMARK                         _______ _______ _______ _____ _____    ______ ____
ROOT
ATOM      1  C   UNL     1      -4.005  11.190  17.064  0.00  0.00    +0.000 A 
ATOM      2  C   UNL     1      -4.865  11.847  17.926  0.00  0.00    +0.000 A 
ATOM      3  N   UNL     1      -4.492  12.366  19.115  0.00  0.00    +0.000 NA
ATOM      4  C   UNL     1      -3.226  12.280  19.494  0.00  0.00    +0.000 A 
ATOM      5  N   UNL     1      -2.924  12.868  20.644  0.00  0.00    +0.000 NA
ATOM      6  C   UNL     1      -1.643  12.893  21.054  0.00  0.00    +0.000 A 
ATOM      7  C   UNL     1      -0.599  12.306  20.367  0.00  0.00    +0.000 A 
ATOM      8  C   UNL     1      -0.906  11.582  19.203  0.00  0.00    +0.000 A 
ATOM      9  C   UNL     1      -2.251  11.619  18.714  0.00  0.00    +0.000 A 
ATOM     10  C   UNL     1      -2.685  11.043  17.491  0.00  0.00    +0.000 A 
ENDROOT
BRANCH   1  13
ATOM     11  C   UNL     1      -3.532  10.332  14.787  0.00  0.00    +0.000 C 
ATOM     12  O   UNL     1      -2.311  10.322  14.816  0.00  0.00    +0.000 OA
ATOM     13  N   UNL     1      -4.391  10.673  15.811  0.00  0.00    +0.000 N 
ATOM     14  H   UNL     1      -5.372  10.482  15.656  0.00  0.00    +0.000 HD
BRANCH  11  17
ATOM     15  C   UNL     1      -5.523   9.275  11.352  0.00  0.00    +0.000 C 
ATOM     16  C   UNL     1      -4.782   9.625  12.562  0.00  0.00    +0.000 C 
ATOM     17  C   UNL     1      -4.197   9.932  13.566  0.00  0.00    +0.000 C 
ENDBRANCH  11  17
ENDBRANCH   1  13
BRANCH   7  18
ATOM     18  C   UNL     1       0.724  12.519  20.866  0.00  0.00    +0.000 C 
ATOM     19  N   UNL     1       1.780  12.697  21.311  0.00  0.00    +0.000 NA
ENDBRANCH   7  18
BRANCH   8  20
ATOM     20  N   UNL     1       0.084  10.890  18.443  0.00  0.00    +0.000 N 
ATOM     21  H   UNL     1       0.562  11.512  17.792  0.00  0.00    +0.000 HD
BRANCH  20  22
ATOM     22  C   UNL     1       0.872   9.780  18.834  0.00  0.00    +0.000 A 
ATOM     23  C   UNL     1       0.709   9.152  20.080  0.00  0.00    +0.000 A 
ATOM     24  C   UNL     1       1.455   8.023  20.428  0.00  0.00    +0.000 A 
ATOM     25  C   UNL     1       2.338   7.475  19.509  0.00  0.00    +0.000 A 
ATOM     26  F   UNL     1       3.018   6.370  19.846  0.00  0.00    +0.000 F 
ATOM     27  C   UNL     1       2.490   8.054  18.253  0.00  0.00    +0.000 A 
ATOM     28 CL   UNL     1       3.556   7.357  17.093  0.00  0.00    +0.000 Cl
ATOM     29  C   UNL     1       1.760   9.200  17.914  0.00  0.00    +0.000 A 
ENDBRANCH  20  22
ENDBRANCH   8  20
TORSDOF 5
ENDMDL
MODEL 9
REMARK VINA RESULT:      -6.8      6.136      9.953
REMARK  Name = 
REMARK  6 active torsions:
REMARK  status: ('A' for Active; 'I' for Inactive)
REMARK    1  A    between atoms: C_1  and  C_2
REMARK    2  A    between atoms: C_3  and  C_4
REMARK    3  A    between atoms: N_6  and  C_7
REMARK    4  A    between atoms: C_13  and  C_14
REMARK    5  A    between atoms: C_16  and  N_17
REMARK    6  A    between atoms: N_17  and  C_18
REMARK                            x       y       z     vdW  Elec       q    Type
REMARK                         _______ _______ _______ _____ _____    ______ ____
ROOT
ATOM      1  C   UNL     1      -4.032  11.319  17.163  0.00  0.00    +0.000 A 
ATOM      2  C   UNL     1      -4.952  11.816  18.070  0.00  0.00    +0.000 A 
ATOM      3  N   UNL     1      -4.625  12.314  19.282  0.00  0.00    +0.000 NA
ATOM      4  C   UNL     1      -3.351  12.368  19.640  0.00  0.00    +0.000 A 
ATOM      5  N   UNL     1      -3.104  12.928  20.817  0.00  0.00    +0.000 NA
ATOM      6  C   UNL     1      -1.829  13.093  21.212  0.00  0.00    +0.000 A 
ATOM      7  C   UNL     1      -0.733  12.679  20.482  0.00  0.00    +0.000 A 
ATOM      8  C   UNL     1      -0.968  11.984  19.285  0.00  0.00    +0.000 A 
ATOM      9  C   UNL     1      -2.316  11.877  18.814  0.00  0.00    +0.000 A 
ATOM     10  C   UNL     1      -2.697  11.316  17.566  0.00  0.00    +0.000 A 
ENDROOT
BRANCH   1  13
ATOM     11  C   UNL     1      -3.479  10.399  14.929  0.00  0.00    +0.000 C 
ATOM     12  O   UNL     1      -2.268  10.284  15.044  0.00  0.00    +0.000 OA
ATOM     13  N   UNL     1      -4.374  10.823  15.889  0.00  0.00    +0.000 N 
ATOM     14  H   UNL     1      -5.355  10.715  15.667  0.00  0.00    +0.000 HD
BRANCH  11  17
ATOM     15  C   UNL     1      -5.329   9.435  11.390  0.00  0.00    +0.000 C 
ATOM     16  C   UNL     1      -4.633   9.764  12.633  0.00  0.00    +0.000 C 
ATOM     17  C   UNL     1      -4.089  10.045  13.667  0.00  0.00    +0.000 C 
ENDBRANCH  11  17
ENDBRANCH   1  13
BRANCH   7  18
ATOM     18  C   UNL     1       0.563  13.029  20.977  0.00  0.00    +0.000 C 
ATOM     19  N   UNL     1       1.602  13.355  21.374  0.00  0.00    +0.000 NA
ENDBRANCH   7  18
BRANCH   8  20
ATOM     20  N   UNL     1       0.087  11.463  18.477  0.00  0.00    +0.000 N 
ATOM     21  H   UNL     1       0.664  12.207  18.086  0.00  0.00    +0.000 HD
BRANCH  20  22
ATOM     22  C   UNL     1       0.780  10.237  18.624  0.00  0.00    +0.000 A 
ATOM     23  C   UNL     1       1.706   9.785  17.668  0.00  0.00    +0.000 A 
ATOM     24  C   UNL     1       2.423   8.599  17.855  0.00  0.00    +0.000 A 
ATOM     25  C   UNL     1       2.260   7.878  19.029  0.00  0.00    +0.000 A 
ATOM     26  F   UNL     1       2.983   6.763  19.207  0.00  0.00    +0.000 F 
ATOM     27  C   UNL     1       1.378   8.324  20.008  0.00  0.00    +0.000 A 
ATOM     28 CL   UNL     1       1.199   7.454  21.484  0.00  0.00    +0.000 Cl
ATOM     29  C   UNL     1       0.642   9.498  19.809  0.00  0.00    +0.000 A 
ENDBRANCH  20  22
ENDBRANCH   8  20
TORSDOF 5
ENDMDL
