MODEL 1
REMARK VINA RESULT:      -7.6      0.000      0.000
REMARK  Name = 
REMARK  13 active torsions:
REMARK  status: ('A' for Active; 'I' for Inactive)
REMARK    1  A    between atoms: C_1  and  C_2
REMARK    2  A    between atoms: C_2  and  C_3
REMARK    3  A    between atoms: C_3  and  C_4
REMARK    4  A    between atoms: C_4  and  N_5
REMARK    5  A    between atoms: C_6  and  C_8
REMARK    6  A    between atoms: C_11  and  C_12
REMARK    7  A    between atoms: C_12  and  S_13
REMARK    8  A    between atoms: S_13  and  C_14
REMARK    9  A    between atoms: C_18  and  O_19
REMARK   10  A    between atoms: O_19  and  C_20
REMARK   11  A    between atoms: C_20  and  C_21
REMARK   12  A    between atoms: C_23  and  C_24
REMARK   13  A    between atoms: C_24  and  O_26
REMARK                            x       y       z     vdW  Elec       q    Type
REMARK                         _______ _______ _______ _____ _____    ______ ____
ROOT
ATOM      1  C   UNL     1       5.931   4.600  16.088  0.00  0.00    +0.000 A 
ATOM      2  O   UNL     1       4.901   3.730  16.252  0.00  0.00    +0.000 OA
ATOM      3  N   UNL     1       4.368   3.858  17.502  0.00  0.00    +0.000 NA
ATOM      4  C   UNL     1       5.072   4.822  18.112  0.00  0.00    +0.000 A 
ATOM      5  C   UNL     1       6.110   5.328  17.253  0.00  0.00    +0.000 A 
ENDROOT
BRANCH   1   7
ATOM      6  N   UNL     1       6.046   3.735  13.882  0.00  0.00    +0.000 N 
ATOM      7  C   UNL     1       6.611   4.568  14.820  0.00  0.00    +0.000 C 
ATOM      8  O   UNL     1       7.612   5.245  14.597  0.00  0.00    +0.000 OA
ATOM      9  H   UNL     1       5.217   3.211  14.145  0.00  0.00    +0.000 HD
BRANCH   6  10
ATOM     10  C   UNL     1       6.636   3.485  12.585  0.00  0.00    +0.000 C 
BRANCH  10  11
ATOM     11  C   UNL     1       5.652   2.842  11.608  0.00  0.00    +0.000 C 
BRANCH  11  13
ATOM     12  C   UNL     1       3.437   3.125  10.433  0.00  0.00    +0.000 C 
ATOM     13  C   UNL     1       4.263   3.486  11.658  0.00  0.00    +0.000 C 
ENDBRANCH  11  13
ENDBRANCH  10  11
ENDBRANCH   6  10
ENDBRANCH   1   7
BRANCH   5  14
ATOM     14  C   UNL     1       7.100   6.344  17.566  0.00  0.00    +0.000 C 
ATOM     15  O   UNL     1       7.824   6.260  18.552  0.00  0.00    +0.000 OA
BRANCH  14  16
ATOM     16  O   UNL     1       7.220   7.409  16.738  0.00  0.00    +0.000 OA
ATOM     17  H   UNL     1       7.884   8.100  16.964  0.00  0.00    +0.000 HD
ENDBRANCH  14  16
ENDBRANCH   5  14
BRANCH   4  18
ATOM     18  C   UNL     1       4.735   5.106  19.535  0.00  0.00    +0.000 C 
BRANCH  18  19
ATOM     19  S   UNL     1       2.999   5.380  19.953  0.00  0.00    +0.000 S 
BRANCH  19  20
ATOM     20  C   UNL     1       2.563   7.000  19.346  0.00  0.00    +0.000 A 
ATOM     21  C   UNL     1       2.760   7.504  18.065  0.00  0.00    +0.000 A 
ATOM     22  C   UNL     1       2.175   8.727  17.704  0.00  0.00    +0.000 A 
ATOM     23  C   UNL     1       1.391   9.447  18.621  0.00  0.00    +0.000 A 
ATOM     24  C   UNL     1       1.209   8.961  19.914  0.00  0.00    +0.000 A 
ATOM     25  C   UNL     1       1.805   7.747  20.257  0.00  0.00    +0.000 A 
BRANCH  24  26
ATOM     26  O   UNL     1       0.425   9.708  20.756  0.00  0.00    +0.000 OA
BRANCH  26  27
ATOM     27  C   UNL     1      -0.617  10.452  20.111  0.00  0.00    +0.000 C 
ATOM     28  C   UNL     1      -0.846  11.763  20.836  0.00  0.00    +0.000 C 
ENDBRANCH  26  27
ENDBRANCH  24  26
ENDBRANCH  19  20
ENDBRANCH  18  19
ENDBRANCH   4  18
TORSDOF 11
ENDMDL
MODEL 2
REMARK VINA RESULT:      -7.4      1.028      1.198
REMARK  Name = 
REMARK  13 active torsions:
REMARK  status: ('A' for Active; 'I' for Inactive)
REMARK    1  A    between atoms: C_1  and  C_2
REMARK    2  A    between atoms: C_2  and  C_3
REMARK    3  A    between atoms: C_3  and  C_4
REMARK    4  A    between atoms: C_4  and  N_5
REMARK    5  A    between atoms: C_6  and  C_8
REMARK    6  A    between atoms: C_11  and  C_12
REMARK    7  A    between atoms: C_12  and  S_13
REMARK    8  A    between atoms: S_13  and  C_14
REMARK    9  A    between atoms: C_18  and  O_19
REMARK   10  A    between atoms: O_19  and  C_20
REMARK   11  A    between atoms: C_20  and  C_21
REMARK   12  A    between atoms: C_23  and  C_24
REMARK   13  A    between atoms: C_24  and  O_26
REMARK                            x       y       z     vdW  Elec       q    Type
REMARK                         _______ _______ _______ _____ _____    ______ ____
ROOT
ATOM      1  C   UNL     1       5.591   4.503  15.772  0.00  0.00    +0.000 A 
ATOM      2  O   UNL     1       4.284   4.138  15.831  0.00  0.00    +0.000 OA
ATOM      3  N   UNL     1       3.826   4.233  17.114  0.00  0.00    +0.000 NA
ATOM      4  C   UNL     1       4.858   4.669  17.849  0.00  0.00    +0.000 A 
ATOM      5  C   UNL     1       6.034   4.845  17.039  0.00  0.00    +0.000 A 
ENDROOT
BRANCH   1   7
ATOM      6  N   UNL     1       5.639   3.559  13.595  0.00  0.00    +0.000 N 
ATOM      7  C   UNL     1       6.225   4.434  14.480  0.00  0.00    +0.000 C 
ATOM      8  O   UNL     1       7.205   5.118  14.196  0.00  0.00    +0.000 OA
ATOM      9  H   UNL     1       4.829   3.033  13.908  0.00  0.00    +0.000 HD
BRANCH   6  10
ATOM     10  C   UNL     1       6.185   3.271  12.288  0.00  0.00    +0.000 C 
BRANCH  10  11
ATOM     11  C   UNL     1       5.182   2.559  11.378  0.00  0.00    +0.000 C 
BRANCH  11  13
ATOM     12  C   UNL     1       3.489   3.824  10.001  0.00  0.00    +0.000 C 
ATOM     13  C   UNL     1       3.809   3.237  11.368  0.00  0.00    +0.000 C 
ENDBRANCH  11  13
ENDBRANCH  10  11
ENDBRANCH   6  10
ENDBRANCH   1   7
BRANCH   5  14
ATOM     14  C   UNL     1       7.355   5.263  17.476  0.00  0.00    +0.000 C 
ATOM     15  O   UNL     1       7.795   6.381  17.226  0.00  0.00    +0.000 OA
BRANCH  14  16
ATOM     16  O   UNL     1       8.114   4.388  18.177  0.00  0.00    +0.000 OA
ATOM     17  H   UNL     1       9.058   4.283  17.920  0.00  0.00    +0.000 HD
ENDBRANCH  14  16
ENDBRANCH   5  14
BRANCH   4  18
ATOM     18  C   UNL     1       4.639   4.784  19.319  0.00  0.00    +0.000 C 
BRANCH  18  19
ATOM     19  S   UNL     1       2.956   5.092  19.898  0.00  0.00    +0.000 S 
BRANCH  19  20
ATOM     20  C   UNL     1       2.551   6.774  19.465  0.00  0.00    +0.000 A 
ATOM     21  C   UNL     1       2.892   7.453  18.300  0.00  0.00    +0.000 A 
ATOM     22  C   UNL     1       2.321   8.706  18.034  0.00  0.00    +0.000 A 
ATOM     23  C   UNL     1       1.407   9.284  18.932  0.00  0.00    +0.000 A 
ATOM     24  C   UNL     1       1.079   8.622  20.112  0.00  0.00    +0.000 A 
ATOM     25  C   UNL     1       1.662   7.380  20.363  0.00  0.00    +0.000 A 
BRANCH  24  26
ATOM     26  O   UNL     1       0.172   9.236  20.939  0.00  0.00    +0.000 OA
BRANCH  26  27
ATOM     27  C   UNL     1       0.475   9.150  22.338  0.00  0.00    +0.000 C 
ATOM     28  C   UNL     1      -0.508   9.984  23.135  0.00  0.00    +0.000 C 
ENDBRANCH  26  27
ENDBRANCH  24  26
ENDBRANCH  19  20
ENDBRANCH  18  19
ENDBRANCH   4  18
TORSDOF 11
ENDMDL
MODEL 3
REMARK VINA RESULT:      -7.1      1.249      1.392
REMARK  Name = 
REMARK  13 active torsions:
REMARK  status: ('A' for Active; 'I' for Inactive)
REMARK    1  A    between atoms: C_1  and  C_2
REMARK    2  A    between atoms: C_2  and  C_3
REMARK    3  A    between atoms: C_3  and  C_4
REMARK    4  A    between atoms: C_4  and  N_5
REMARK    5  A    between atoms: C_6  and  C_8
REMARK    6  A    between atoms: C_11  and  C_12
REMARK    7  A    between atoms: C_12  and  S_13
REMARK    8  A    between atoms: S_13  and  C_14
REMARK    9  A    between atoms: C_18  and  O_19
REMARK   10  A    between atoms: O_19  and  C_20
REMARK   11  A    between atoms: C_20  and  C_21
REMARK   12  A    between atoms: C_23  and  C_24
REMARK   13  A    between atoms: C_24  and  O_26
REMARK                            x       y       z     vdW  Elec       q    Type
REMARK                         _______ _______ _______ _____ _____    ______ ____
ROOT
ATOM      1  C   UNL     1       5.823   4.957  16.548  0.00  0.00    +0.000 A 
ATOM      2  O   UNL     1       4.640   4.389  16.197  0.00  0.00    +0.000 OA
ATOM      3  N   UNL     1       3.856   4.213  17.301  0.00  0.00    +0.000 NA
ATOM      4  C   UNL     1       4.560   4.685  18.340  0.00  0.00    +0.000 A 
ATOM      5  C   UNL     1       5.849   5.163  17.917  0.00  0.00    +0.000 A 
ENDROOT
BRANCH   1   7
ATOM      6  N   UNL     1       6.580   4.414  14.365  0.00  0.00    +0.000 N 
ATOM      7  C   UNL     1       6.770   5.187  15.488  0.00  0.00    +0.000 C 
ATOM      8  O   UNL     1       7.668   6.020  15.582  0.00  0.00    +0.000 OA
ATOM      9  H   UNL     1       5.813   3.750  14.366  0.00  0.00    +0.000 HD
BRANCH   6  10
ATOM     10  C   UNL     1       7.483   4.422  13.236  0.00  0.00    +0.000 C 
BRANCH  10  11
ATOM     11  C   UNL     1       6.787   4.046  11.927  0.00  0.00    +0.000 C 
BRANCH  11  13
ATOM     12  C   UNL     1       5.767   1.803  11.383  0.00  0.00    +0.000 C 
ATOM     13  C   UNL     1       5.593   3.111  12.140  0.00  0.00    +0.000 C 
ENDBRANCH  11  13
ENDBRANCH  10  11
ENDBRANCH   6  10
ENDBRANCH   1   7
BRANCH   5  14
ATOM     14  C   UNL     1       6.908   5.708  18.750  0.00  0.00    +0.000 C 
ATOM     15  O   UNL     1       7.175   5.233  19.849  0.00  0.00    +0.000 OA
BRANCH  14  16
ATOM     16  O   UNL     1       7.612   6.770  18.291  0.00  0.00    +0.000 OA
ATOM     17  H   UNL     1       8.460   6.991  18.739  0.00  0.00    +0.000 HD
ENDBRANCH  14  16
ENDBRANCH   5  14
BRANCH   4  18
ATOM     18  C   UNL     1       3.950   4.537  19.691  0.00  0.00    +0.000 C 
BRANCH  18  19
ATOM     19  S   UNL     1       2.239   5.074  19.907  0.00  0.00    +0.000 S 
BRANCH  19  20
ATOM     20  C   UNL     1       2.155   6.778  19.387  0.00  0.00    +0.000 A 
ATOM     21  C   UNL     1       2.376   7.284  18.110  0.00  0.00    +0.000 A 
ATOM     22  C   UNL     1       2.071   8.625  17.833  0.00  0.00    +0.000 A 
ATOM     23  C   UNL     1       1.543   9.463  18.830  0.00  0.00    +0.000 A 
ATOM     24  C   UNL     1       1.341   8.971  20.118  0.00  0.00    +0.000 A 
ATOM     25  C   UNL     1       1.657   7.636  20.376  0.00  0.00    +0.000 A 
BRANCH  24  26
ATOM     26  O   UNL     1       0.813   9.837  21.041  0.00  0.00    +0.000 OA
BRANCH  26  27
ATOM     27  C   UNL     1       0.982   9.441  22.408  0.00  0.00    +0.000 C 
ATOM     28  C   UNL     1      -0.326   9.588  23.159  0.00  0.00    +0.000 C 
ENDBRANCH  26  27
ENDBRANCH  24  26
ENDBRANCH  19  20
ENDBRANCH  18  19
ENDBRANCH   4  18
TORSDOF 11
ENDMDL
MODEL 4
REMARK VINA RESULT:      -6.7      2.806      5.283
REMARK  Name = 
REMARK  13 active torsions:
REMARK  status: ('A' for Active; 'I' for Inactive)
REMARK    1  A    between atoms: C_1  and  C_2
REMARK    2  A    between atoms: C_2  and  C_3
REMARK    3  A    between atoms: C_3  and  C_4
REMARK    4  A    between atoms: C_4  and  N_5
REMARK    5  A    between atoms: C_6  and  C_8
REMARK    6  A    between atoms: C_11  and  C_12
REMARK    7  A    between atoms: C_12  and  S_13
REMARK    8  A    between atoms: S_13  and  C_14
REMARK    9  A    between atoms: C_18  and  O_19
REMARK   10  A    between atoms: O_19  and  C_20
REMARK   11  A    between atoms: C_20  and  C_21
REMARK   12  A    between atoms: C_23  and  C_24
REMARK   13  A    between atoms: C_24  and  O_26
REMARK                            x       y       z     vdW  Elec       q    Type
REMARK                         _______ _______ _______ _____ _____    ______ ____
ROOT
ATOM      1  C   UNL     1       6.762   6.073  17.948  0.00  0.00    +0.000 A 
ATOM      2  O   UNL     1       6.814   5.808  19.279  0.00  0.00    +0.000 OA
ATOM      3  N   UNL     1       5.984   4.768  19.585  0.00  0.00    +0.000 NA
ATOM      4  C   UNL     1       5.423   4.384  18.431  0.00  0.00    +0.000 A 
ATOM      5  C   UNL     1       5.874   5.204  17.337  0.00  0.00    +0.000 A 
ENDROOT
BRANCH   1   7
ATOM      6  N   UNL     1       7.783   8.170  18.389  0.00  0.00    +0.000 N 
ATOM      7  C   UNL     1       7.572   7.165  17.473  0.00  0.00    +0.000 C 
ATOM      8  O   UNL     1       8.045   7.183  16.339  0.00  0.00    +0.000 OA
ATOM      9  H   UNL     1       7.358   8.077  19.306  0.00  0.00    +0.000 HD
BRANCH   6  10
ATOM     10  C   UNL     1       8.480   9.396  18.074  0.00  0.00    +0.000 C 
BRANCH  10  11
ATOM     11  C   UNL     1       9.232   9.969  19.276  0.00  0.00    +0.000 C 
BRANCH  11  13
ATOM     12  C   UNL     1       8.940  12.027  17.846  0.00  0.00    +0.000 C 
ATOM     13  C   UNL     1       9.449  11.481  19.172  0.00  0.00    +0.000 C 
ENDBRANCH  11  13
ENDBRANCH  10  11
ENDBRANCH   6  10
ENDBRANCH   1   7
BRANCH   5  14
ATOM     14  C   UNL     1       5.465   5.126  15.945  0.00  0.00    +0.000 C 
ATOM     15  O   UNL     1       5.290   4.050  15.382  0.00  0.00    +0.000 OA
BRANCH  14  16
ATOM     16  O   UNL     1       5.273   6.278  15.260  0.00  0.00    +0.000 OA
ATOM     17  H   UNL     1       6.062   6.827  15.047  0.00  0.00    +0.000 HD
ENDBRANCH  14  16
ENDBRANCH   5  14
BRANCH   4  18
ATOM     18  C   UNL     1       4.403   3.300  18.503  0.00  0.00    +0.000 C 
BRANCH  18  19
ATOM     19  S   UNL     1       2.713   3.698  18.006  0.00  0.00    +0.000 S 
BRANCH  19  20
ATOM     20  C   UNL     1       2.245   5.181  18.881  0.00  0.00    +0.000 A 
ATOM     21  C   UNL     1       1.896   5.297  20.222  0.00  0.00    +0.000 A 
ATOM     22  C   UNL     1       1.750   6.570  20.793  0.00  0.00    +0.000 A 
ATOM     23  C   UNL     1       1.954   7.729  20.026  0.00  0.00    +0.000 A 
ATOM     24  C   UNL     1       2.280   7.622  18.676  0.00  0.00    +0.000 A 
ATOM     25  C   UNL     1       2.413   6.347  18.124  0.00  0.00    +0.000 A 
BRANCH  24  26
ATOM     26  O   UNL     1       2.476   8.792  17.987  0.00  0.00    +0.000 OA
BRANCH  26  27
ATOM     27  C   UNL     1       1.651   9.886  18.406  0.00  0.00    +0.000 C 
ATOM     28  C   UNL     1       0.239   9.703  17.888  0.00  0.00    +0.000 C 
ENDBRANCH  26  27
ENDBRANCH  24  26
ENDBRANCH  19  20
ENDBRANCH  18  19
ENDBRANCH   4  18
TORSDOF 11
ENDMDL
MODEL 5
REMARK VINA RESULT:      -6.7      1.771      2.687
REMARK  Name = 
REMARK  13 active torsions:
REMARK  status: ('A' for Active; 'I' for Inactive)
REMARK    1  A    between atoms: C_1  and  C_2
REMARK    2  A    between atoms: C_2  and  C_3
REMARK    3  A    between atoms: C_3  and  C_4
REMARK    4  A    between atoms: C_4  and  N_5
REMARK    5  A    between atoms: C_6  and  C_8
REMARK    6  A    between atoms: C_11  and  C_12
REMARK    7  A    between atoms: C_12  and  S_13
REMARK    8  A    between atoms: S_13  and  C_14
REMARK    9  A    between atoms: C_18  and  O_19
REMARK   10  A    between atoms: O_19  and  C_20
REMARK   11  A    between atoms: C_20  and  C_21
REMARK   12  A    between atoms: C_23  and  C_24
REMARK   13  A    between atoms: C_24  and  O_26
REMARK                            x       y       z     vdW  Elec       q    Type
REMARK                         _______ _______ _______ _____ _____    ______ ____
ROOT
ATOM      1  C   UNL     1       5.494   5.563  15.853  0.00  0.00    +0.000 A 
ATOM      2  O   UNL     1       5.306   6.864  15.510  0.00  0.00    +0.000 OA
ATOM      3  N   UNL     1       4.472   7.472  16.403  0.00  0.00    +0.000 NA
ATOM      4  C   UNL     1       4.150   6.540  17.310  0.00  0.00    +0.000 A 
ATOM      5  C   UNL     1       4.767   5.278  16.997  0.00  0.00    +0.000 A 
ENDROOT
BRANCH   1   7
ATOM      6  N   UNL     1       5.694   4.205  13.918  0.00  0.00    +0.000 N 
ATOM      7  C   UNL     1       6.338   4.780  14.989  0.00  0.00    +0.000 C 
ATOM      8  O   UNL     1       7.543   4.652  15.193  0.00  0.00    +0.000 OA
ATOM      9  H   UNL     1       4.696   4.363  13.819  0.00  0.00    +0.000 HD
BRANCH   6  10
ATOM     10  C   UNL     1       6.343   3.301  12.994  0.00  0.00    +0.000 C 
BRANCH  10  11
ATOM     11  C   UNL     1       5.690   3.308  11.612  0.00  0.00    +0.000 C 
BRANCH  11  13
ATOM     12  C   UNL     1       3.524   3.698  10.379  0.00  0.00    +0.000 C 
ATOM     13  C   UNL     1       4.162   3.232  11.679  0.00  0.00    +0.000 C 
ENDBRANCH  11  13
ENDBRANCH  10  11
ENDBRANCH   6  10
ENDBRANCH   1   7
BRANCH   5  14
ATOM     14  C   UNL     1       4.628   4.022  17.716  0.00  0.00    +0.000 C 
ATOM     15  O   UNL     1       3.692   3.258  17.507  0.00  0.00    +0.000 OA
BRANCH  14  16
ATOM     16  O   UNL     1       5.564   3.697  18.639  0.00  0.00    +0.000 OA
ATOM     17  H   UNL     1       5.901   2.773  18.651  0.00  0.00    +0.000 HD
ENDBRANCH  14  16
ENDBRANCH   5  14
BRANCH   4  18
ATOM     18  C   UNL     1       3.175   6.933  18.366  0.00  0.00    +0.000 C 
BRANCH  18  19
ATOM     19  S   UNL     1       2.095   8.342  18.033  0.00  0.00    +0.000 S 
BRANCH  19  20
ATOM     20  C   UNL     1       1.353   8.813  19.586  0.00  0.00    +0.000 A 
ATOM     21  C   UNL     1       1.467   8.161  20.809  0.00  0.00    +0.000 A 
ATOM     22  C   UNL     1       0.983   8.779  21.971  0.00  0.00    +0.000 A 
ATOM     23  C   UNL     1       0.386  10.049  21.914  0.00  0.00    +0.000 A 
ATOM     24  C   UNL     1       0.245  10.698  20.690  0.00  0.00    +0.000 A 
ATOM     25  C   UNL     1       0.727  10.065  19.544  0.00  0.00    +0.000 A 
BRANCH  24  26
ATOM     26  O   UNL     1      -0.337  11.940  20.706  0.00  0.00    +0.000 OA
BRANCH  26  27
ATOM     27  C   UNL     1      -1.180  12.227  19.583  0.00  0.00    +0.000 C 
ATOM     28  C   UNL     1      -0.590  13.357  18.763  0.00  0.00    +0.000 C 
ENDBRANCH  26  27
ENDBRANCH  24  26
ENDBRANCH  19  20
ENDBRANCH  18  19
ENDBRANCH   4  18
TORSDOF 11
ENDMDL
MODEL 6
REMARK VINA RESULT:      -6.6      2.804      5.352
REMARK  Name = 
REMARK  13 active torsions:
REMARK  status: ('A' for Active; 'I' for Inactive)
REMARK    1  A    between atoms: C_1  and  C_2
REMARK    2  A    between atoms: C_2  and  C_3
REMARK    3  A    between atoms: C_3  and  C_4
REMARK    4  A    between atoms: C_4  and  N_5
REMARK    5  A    between atoms: C_6  and  C_8
REMARK    6  A    between atoms: C_11  and  C_12
REMARK    7  A    between atoms: C_12  and  S_13
REMARK    8  A    between atoms: S_13  and  C_14
REMARK    9  A    between atoms: C_18  and  O_19
REMARK   10  A    between atoms: O_19  and  C_20
REMARK   11  A    between atoms: C_20  and  C_21
REMARK   12  A    between atoms: C_23  and  C_24
REMARK   13  A    between atoms: C_24  and  O_26
REMARK                            x       y       z     vdW  Elec       q    Type
REMARK                         _______ _______ _______ _____ _____    ______ ____
ROOT
ATOM      1  C   UNL     1       6.735   6.186  18.063  0.00  0.00    +0.000 A 
ATOM      2  O   UNL     1       6.807   5.955  19.400  0.00  0.00    +0.000 OA
ATOM      3  N   UNL     1       5.948   4.954  19.753  0.00  0.00    +0.000 NA
ATOM      4  C   UNL     1       5.347   4.560  18.622  0.00  0.00    +0.000 A 
ATOM      5  C   UNL     1       5.802   5.333  17.497  0.00  0.00    +0.000 A 
ENDROOT
BRANCH   1   7
ATOM      6  N   UNL     1       7.909   8.211  18.449  0.00  0.00    +0.000 N 
ATOM      7  C   UNL     1       7.572   7.234  17.541  0.00  0.00    +0.000 C 
ATOM      8  O   UNL     1       7.961   7.241  16.375  0.00  0.00    +0.000 OA
ATOM      9  H   UNL     1       7.548   8.131  19.394  0.00  0.00    +0.000 HD
BRANCH   6  10
ATOM     10  C   UNL     1       8.655   9.399  18.095  0.00  0.00    +0.000 C 
BRANCH  10  11
ATOM     11  C   UNL     1       9.249  10.103  19.316  0.00  0.00    +0.000 C 
BRANCH  11  13
ATOM     12  C   UNL     1      10.479  12.183  20.040  0.00  0.00    +0.000 C 
ATOM     13  C   UNL     1      10.304  11.148  18.940  0.00  0.00    +0.000 C 
ENDBRANCH  11  13
ENDBRANCH  10  11
ENDBRANCH   6  10
ENDBRANCH   1   7
BRANCH   5  14
ATOM     14  C   UNL     1       5.359   5.232  16.116  0.00  0.00    +0.000 C 
ATOM     15  O   UNL     1       5.002   4.165  15.629  0.00  0.00    +0.000 OA
BRANCH  14  16
ATOM     16  O   UNL     1       5.343   6.353  15.357  0.00  0.00    +0.000 OA
ATOM     17  H   UNL     1       4.629   6.448  14.687  0.00  0.00    +0.000 HD
ENDBRANCH  14  16
ENDBRANCH   5  14
BRANCH   4  18
ATOM     18  C   UNL     1       4.292   3.515  18.747  0.00  0.00    +0.000 C 
BRANCH  18  19
ATOM     19  S   UNL     1       2.580   4.007  18.444  0.00  0.00    +0.000 S 
BRANCH  19  20
ATOM     20  C   UNL     1       2.483   5.767  18.720  0.00  0.00    +0.000 A 
ATOM     21  C   UNL     1       2.537   6.777  17.765  0.00  0.00    +0.000 A 
ATOM     22  C   UNL     1       2.244   8.097  18.135  0.00  0.00    +0.000 A 
ATOM     23  C   UNL     1       1.896   8.412  19.460  0.00  0.00    +0.000 A 
ATOM     24  C   UNL     1       1.863   7.411  20.427  0.00  0.00    +0.000 A 
ATOM     25  C   UNL     1       2.165   6.104  20.042  0.00  0.00    +0.000 A 
BRANCH  24  26
ATOM     26  O   UNL     1       1.505   7.784  21.698  0.00  0.00    +0.000 OA
BRANCH  26  27
ATOM     27  C   UNL     1       1.168   9.168  21.850  0.00  0.00    +0.000 C 
ATOM     28  C   UNL     1      -0.123   9.307  22.632  0.00  0.00    +0.000 C 
ENDBRANCH  26  27
ENDBRANCH  24  26
ENDBRANCH  19  20
ENDBRANCH  18  19
ENDBRANCH   4  18
TORSDOF 11
ENDMDL
MODEL 7
REMARK VINA RESULT:      -6.5      4.979      7.183
REMARK  Name = 
REMARK  13 active torsions:
REMARK  status: ('A' for Active; 'I' for Inactive)
REMARK    1  A    between atoms: C_1  and  C_2
REMARK    2  A    between atoms: C_2  and  C_3
REMARK    3  A    between atoms: C_3  and  C_4
REMARK    4  A    between atoms: C_4  and  N_5
REMARK    5  A    between atoms: C_6  and  C_8
REMARK    6  A    between atoms: C_11  and  C_12
REMARK    7  A    between atoms: C_12  and  S_13
REMARK    8  A    between atoms: S_13  and  C_14
REMARK    9  A    between atoms: C_18  and  O_19
REMARK   10  A    between atoms: O_19  and  C_20
REMARK   11  A    between atoms: C_20  and  C_21
REMARK   12  A    between atoms: C_23  and  C_24
REMARK   13  A    between atoms: C_24  and  O_26
REMARK                            x       y       z     vdW  Elec       q    Type
REMARK                         _______ _______ _______ _____ _____    ______ ____
ROOT
ATOM      1  C   UNL     1       6.573   5.208  16.879  0.00  0.00    +0.000 A 
ATOM      2  O   UNL     1       7.094   5.915  15.843  0.00  0.00    +0.000 OA
ATOM      3  N   UNL     1       7.779   7.000  16.308  0.00  0.00    +0.000 NA
ATOM      4  C   UNL     1       7.686   6.956  17.645  0.00  0.00    +0.000 A 
ATOM      5  C   UNL     1       6.902   5.828  18.073  0.00  0.00    +0.000 A 
ENDROOT
BRANCH   1   7
ATOM      6  N   UNL     1       4.826   3.710  17.456  0.00  0.00    +0.000 N 
ATOM      7  C   UNL     1       5.801   4.040  16.543  0.00  0.00    +0.000 C 
ATOM      8  O   UNL     1       5.997   3.401  15.512  0.00  0.00    +0.000 OA
ATOM      9  H   UNL     1       4.728   4.292  18.282  0.00  0.00    +0.000 HD
BRANCH   6  10
ATOM     10  C   UNL     1       4.015   2.517  17.353  0.00  0.00    +0.000 C 
BRANCH  10  11
ATOM     11  C   UNL     1       2.528   2.799  17.568  0.00  0.00    +0.000 C 
BRANCH  11  13
ATOM     12  C   UNL     1       1.538   4.236  19.391  0.00  0.00    +0.000 C 
ATOM     13  C   UNL     1       2.151   2.886  19.050  0.00  0.00    +0.000 C 
ENDBRANCH  11  13
ENDBRANCH  10  11
ENDBRANCH   6  10
ENDBRANCH   1   7
BRANCH   5  14
ATOM     14  C   UNL     1       6.544   5.465  19.434  0.00  0.00    +0.000 C 
ATOM     15  O   UNL     1       7.392   5.324  20.309  0.00  0.00    +0.000 OA
BRANCH  14  16
ATOM     16  O   UNL     1       5.237   5.279  19.733  0.00  0.00    +0.000 OA
ATOM     17  H   UNL     1       4.586   5.932  19.389  0.00  0.00    +0.000 HD
ENDBRANCH  14  16
ENDBRANCH   5  14
BRANCH   4  18
ATOM     18  C   UNL     1       8.293   8.088  18.401  0.00  0.00    +0.000 C 
BRANCH  18  19
ATOM     19  S   UNL     1       8.309   9.714  17.616  0.00  0.00    +0.000 S 
BRANCH  19  20
ATOM     20  C   UNL     1       9.201  10.813  18.702  0.00  0.00    +0.000 A 
ATOM     21  C   UNL     1       9.443  10.645  20.062  0.00  0.00    +0.000 A 
ATOM     22  C   UNL     1      10.333  11.506  20.719  0.00  0.00    +0.000 A 
ATOM     23  C   UNL     1      10.985  12.536  20.020  0.00  0.00    +0.000 A 
ATOM     24  C   UNL     1      10.730  12.727  18.664  0.00  0.00    +0.000 A 
ATOM     25  C   UNL     1       9.835  11.865  18.029  0.00  0.00    +0.000 A 
BRANCH  24  26
ATOM     26  O   UNL     1      11.406  13.743  18.039  0.00  0.00    +0.000 OA
BRANCH  26  27
ATOM     27  C   UNL     1      10.592  14.848  17.627  0.00  0.00    +0.000 C 
ATOM     28  C   UNL     1      10.665  15.960  18.654  0.00  0.00    +0.000 C 
ENDBRANCH  26  27
ENDBRANCH  24  26
ENDBRANCH  19  20
ENDBRANCH  18  19
ENDBRANCH   4  18
TORSDOF 11
ENDMDL
MODEL 8
REMARK VINA RESULT:      -6.5      4.339      8.330
REMARK  Name = 
REMARK  13 active torsions:
REMARK  status: ('A' for Active; 'I' for Inactive)
REMARK    1  A    between atoms: C_1  and  C_2
REMARK    2  A    between atoms: C_2  and  C_3
REMARK    3  A    between atoms: C_3  and  C_4
REMARK    4  A    between atoms: C_4  and  N_5
REMARK    5  A    between atoms: C_6  and  C_8
REMARK    6  A    between atoms: C_11  and  C_12
REMARK    7  A    between atoms: C_12  and  S_13
REMARK    8  A    between atoms: S_13  and  C_14
REMARK    9  A    between atoms: C_18  and  O_19
REMARK   10  A    between atoms: O_19  and  C_20
REMARK   11  A    between atoms: C_20  and  C_21
REMARK   12  A    between atoms: C_23  and  C_24
REMARK   13  A    between atoms: C_24  and  O_26
REMARK                            x       y       z     vdW  Elec       q    Type
REMARK                         _______ _______ _______ _____ _____    ______ ____
ROOT
ATOM      1  C   UNL     1       0.372   9.814  18.956  0.00  0.00    +0.000 A 
ATOM      2  O   UNL     1       0.941   9.738  17.724  0.00  0.00    +0.000 OA
ATOM      3  N   UNL     1       1.909   8.776  17.710  0.00  0.00    +0.000 NA
ATOM      4  C   UNL     1       1.931   8.248  18.942  0.00  0.00    +0.000 A 
ATOM      5  C   UNL     1       0.970   8.892  19.799  0.00  0.00    +0.000 A 
ENDROOT
BRANCH   1   7
ATOM      6  N   UNL     1      -1.838  10.535  18.477  0.00  0.00    +0.000 N 
ATOM      7  C   UNL     1      -0.659  10.804  19.133  0.00  0.00    +0.000 C 
ATOM      8  O   UNL     1      -0.492  11.802  19.830  0.00  0.00    +0.000 OA
ATOM      9  H   UNL     1      -1.894   9.687  17.924  0.00  0.00    +0.000 HD
BRANCH   6  10
ATOM     10  C   UNL     1      -2.954  11.454  18.447  0.00  0.00    +0.000 C 
BRANCH  10  11
ATOM     11  C   UNL     1      -3.666  11.465  17.093  0.00  0.00    +0.000 C 
BRANCH  11  13
ATOM     12  C   UNL     1      -3.590  10.265  14.875  0.00  0.00    +0.000 C 
ATOM     13  C   UNL     1      -2.775  10.965  15.953  0.00  0.00    +0.000 C 
ENDBRANCH  11  13
ENDBRANCH  10  11
ENDBRANCH   6  10
ENDBRANCH   1   7
BRANCH   5  14
ATOM     14  C   UNL     1       0.723   8.629  21.206  0.00  0.00    +0.000 C 
ATOM     15  O   UNL     1      -0.397   8.359  21.627  0.00  0.00    +0.000 OA
BRANCH  14  16
ATOM     16  O   UNL     1       1.766   8.685  22.069  0.00  0.00    +0.000 OA
ATOM     17  H   UNL     1       1.642   8.309  22.969  0.00  0.00    +0.000 HD
ENDBRANCH  14  16
ENDBRANCH   5  14
BRANCH   4  18
ATOM     18  C   UNL     1       2.968   7.214  19.216  0.00  0.00    +0.000 C 
BRANCH  18  19
ATOM     19  S   UNL     1       3.888   6.551  17.809  0.00  0.00    +0.000 S 
BRANCH  19  20
ATOM     20  C   UNL     1       3.475   4.821  17.681  0.00  0.00    +0.000 A 
ATOM     21  C   UNL     1       4.224   3.815  17.081  0.00  0.00    +0.000 A 
ATOM     22  C   UNL     1       3.844   2.474  17.247  0.00  0.00    +0.000 A 
ATOM     23  C   UNL     1       2.717   2.137  18.014  0.00  0.00    +0.000 A 
ATOM     24  C   UNL     1       1.947   3.139  18.599  0.00  0.00    +0.000 A 
ATOM     25  C   UNL     1       2.336   4.467  18.417  0.00  0.00    +0.000 A 
BRANCH  24  26
ATOM     26  O   UNL     1       0.866   2.741  19.344  0.00  0.00    +0.000 OA
BRANCH  26  27
ATOM     27  C   UNL     1       0.807   3.292  20.666  0.00  0.00    +0.000 C 
ATOM     28  C   UNL     1       1.761   2.551  21.582  0.00  0.00    +0.000 C 
ENDBRANCH  26  27
ENDBRANCH  24  26
ENDBRANCH  19  20
ENDBRANCH  18  19
ENDBRANCH   4  18
TORSDOF 11
ENDMDL
MODEL 9
REMARK VINA RESULT:      -6.5      3.661      6.396
REMARK  Name = 
REMARK  13 active torsions:
REMARK  status: ('A' for Active; 'I' for Inactive)
REMARK    1  A    between atoms: C_1  and  C_2
REMARK    2  A    between atoms: C_2  and  C_3
REMARK    3  A    between atoms: C_3  and  C_4
REMARK    4  A    between atoms: C_4  and  N_5
REMARK    5  A    between atoms: C_6  and  C_8
REMARK    6  A    between atoms: C_11  and  C_12
REMARK    7  A    between atoms: C_12  and  S_13
REMARK    8  A    between atoms: S_13  and  C_14
REMARK    9  A    between atoms: C_18  and  O_19
REMARK   10  A    between atoms: O_19  and  C_20
REMARK   11  A    between atoms: C_20  and  C_21
REMARK   12  A    between atoms: C_23  and  C_24
REMARK   13  A    between atoms: C_24  and  O_26
REMARK                            x       y       z     vdW  Elec       q    Type
REMARK                         _______ _______ _______ _____ _____    ______ ____
ROOT
ATOM      1  C   UNL     1       7.302   7.358  17.459  0.00  0.00    +0.000 A 
ATOM      2  O   UNL     1       6.490   7.939  16.538  0.00  0.00    +0.000 OA
ATOM      3  N   UNL     1       5.731   6.991  15.913  0.00  0.00    +0.000 NA
ATOM      4  C   UNL     1       6.074   5.816  16.460  0.00  0.00    +0.000 A 
ATOM      5  C   UNL     1       7.101   5.988  17.454  0.00  0.00    +0.000 A 
ENDROOT
BRANCH   1   7
ATOM      6  N   UNL     1       8.253   9.518  17.706  0.00  0.00    +0.000 N 
ATOM      7  C   UNL     1       8.183   8.232  18.189  0.00  0.00    +0.000 C 
ATOM      8  O   UNL     1       8.810   7.853  19.175  0.00  0.00    +0.000 OA
ATOM      9  H   UNL     1       7.700   9.751  16.887  0.00  0.00    +0.000 HD
BRANCH   6  10
ATOM     10  C   UNL     1       9.155  10.516  18.235  0.00  0.00    +0.000 C 
BRANCH  10  11
ATOM     11  C   UNL     1       8.742  11.939  17.857  0.00  0.00    +0.000 C 
BRANCH  11  13
ATOM     12  C   UNL     1      10.344  13.321  19.232  0.00  0.00    +0.000 C 
ATOM     13  C   UNL     1       9.926  12.910  17.828  0.00  0.00    +0.000 C 
ENDBRANCH  11  13
ENDBRANCH  10  11
ENDBRANCH   6  10
ENDBRANCH   1   7
BRANCH   5  14
ATOM     14  C   UNL     1       7.758   4.953  18.234  0.00  0.00    +0.000 C 
ATOM     15  O   UNL     1       8.351   4.020  17.702  0.00  0.00    +0.000 OA
BRANCH  14  16
ATOM     16  O   UNL     1       7.709   5.030  19.585  0.00  0.00    +0.000 OA
ATOM     17  H   UNL     1       7.161   5.741  19.989  0.00  0.00    +0.000 HD
ENDBRANCH  14  16
ENDBRANCH   5  14
BRANCH   4  18
ATOM     18  C   UNL     1       5.437   4.596  15.891  0.00  0.00    +0.000 C 
BRANCH  18  19
ATOM     19  S   UNL     1       4.242   3.712  16.917  0.00  0.00    +0.000 S 
BRANCH  19  20
ATOM     20  C   UNL     1       3.548   4.899  18.054  0.00  0.00    +0.000 A 
ATOM     21  C   UNL     1       3.096   6.182  17.765  0.00  0.00    +0.000 A 
ATOM     22  C   UNL     1       2.395   6.906  18.740  0.00  0.00    +0.000 A 
ATOM     23  C   UNL     1       2.143   6.350  20.006  0.00  0.00    +0.000 A 
ATOM     24  C   UNL     1       2.614   5.076  20.312  0.00  0.00    +0.000 A 
ATOM     25  C   UNL     1       3.315   4.373  19.331  0.00  0.00    +0.000 A 
BRANCH  24  26
ATOM     26  O   UNL     1       2.324   4.587  21.561  0.00  0.00    +0.000 OA
BRANCH  26  27
ATOM     27  C   UNL     1       2.518   3.176  21.718  0.00  0.00    +0.000 C 
ATOM     28  C   UNL     1       1.196   2.449  21.580  0.00  0.00    +0.000 C 
ENDBRANCH  26  27
ENDBRANCH  24  26
ENDBRANCH  19  20
ENDBRANCH  18  19
ENDBRANCH   4  18
TORSDOF 11
ENDMDL
