MODEL 1
REMARK VINA RESULT:      -8.6      0.000      0.000
REMARK  Name = 
REMARK  8 active torsions:
REMARK  status: ('A' for Active; 'I' for Inactive)
REMARK    1  A    between atoms: C_1  and  C_2
REMARK    2  A    between atoms: C_5  and  N_6
REMARK    3  A    between atoms: N_6  and  C_7
REMARK    4  A    between atoms: N_6  and  S_8
REMARK    5  A    between atoms: S_8  and  C_11
REMARK    6  A    between atoms: C_13  and  C_14
REMARK    7  A    between atoms: C_16  and  C_17
REMARK    8  A    between atoms: C_27  and  C_28
REMARK                            x       y       z     vdW  Elec       q    Type
REMARK                         _______ _______ _______ _____ _____    ______ ____
ROOT
ATOM      1  C   UNL     1       3.466   4.639  19.175  0.00  0.00    +0.000 A 
ATOM      2  C   UNL     1       3.132   5.983  18.847  0.00  0.00    +0.000 A 
ATOM      3  C   UNL     1       2.217   6.538  19.720  0.00  0.00    +0.000 A 
ATOM      4  S   UNL     1       1.696   5.399  20.877  0.00  0.00    +0.000 S 
ATOM      5  C   UNL     1       2.714   4.171  20.242  0.00  0.00    +0.000 A 
ATOM      6  C   UNL     1       2.700   2.809  20.852  0.00  0.00    +0.000 C 
ENDROOT
BRANCH   3   7
ATOM      7  C   UNL     1       1.752   7.895  19.696  0.00  0.00    +0.000 A 
ATOM      8  N   UNL     1       1.066   8.420  20.690  0.00  0.00    +0.000 NA
ATOM      9  C   UNL     1       0.779   9.689  20.245  0.00  0.00    +0.000 A 
ATOM     10  N   UNL     1       1.272   9.962  19.028  0.00  0.00    +0.000 NA
ATOM     11  O   UNL     1       1.920   8.778  18.662  0.00  0.00    +0.000 OA
BRANCH   9  12
ATOM     12  C   UNL     1      -0.016  10.608  21.053  0.00  0.00    +0.000 A 
ATOM     13  C   UNL     1      -0.361  11.868  20.533  0.00  0.00    +0.000 A 
ATOM     14  C   UNL     1      -1.098  12.779  21.293  0.00  0.00    +0.000 A 
ATOM     15  C   UNL     1      -1.500  12.436  22.581  0.00  0.00    +0.000 A 
ATOM     16 CL   UNL     1      -2.398  13.562  23.521  0.00  0.00    +0.000 Cl
ATOM     17  C   UNL     1      -1.175  11.188  23.110  0.00  0.00    +0.000 A 
ATOM     18  C   UNL     1      -0.436  10.274  22.348  0.00  0.00    +0.000 A 
ENDBRANCH   9  12
ENDBRANCH   3   7
BRANCH   1  19
ATOM     19  S   UNL     1       4.662   3.690  18.325  0.00  0.00    +0.000 S 
ATOM     20  O   UNL     1       3.851   2.675  17.683  0.00  0.00    +0.000 OA
ATOM     21  O   UNL     1       5.610   3.362  19.366  0.00  0.00    +0.000 OA
BRANCH  19  22
ATOM     22  N   UNL     1       5.399   4.628  17.132  0.00  0.00    +0.000 N 
ATOM     23  C   UNL     1       5.369   4.164  15.745  0.00  0.00    +0.000 C 
BRANCH  22  28
ATOM     24  C   UNL     1       8.731   9.112  18.445  0.00  0.00    +0.000 C 
ATOM     25  C   UNL     1       7.875   7.926  18.110  0.00  0.00    +0.000 A 
ATOM     26  C   UNL     1       8.109   6.671  18.686  0.00  0.00    +0.000 A 
ATOM     27  C   UNL     1       7.285   5.582  18.376  0.00  0.00    +0.000 A 
ATOM     28  C   UNL     1       6.218   5.741  17.490  0.00  0.00    +0.000 A 
ATOM     29  C   UNL     1       6.003   6.980  16.889  0.00  0.00    +0.000 A 
ATOM     30  C   UNL     1       6.817   8.070  17.207  0.00  0.00    +0.000 A 
ENDBRANCH  22  28
ENDBRANCH  19  22
ENDBRANCH   1  19
TORSDOF 5
ENDMDL
MODEL 2
REMARK VINA RESULT:      -8.5      0.203      1.253
REMARK  Name = 
REMARK  8 active torsions:
REMARK  status: ('A' for Active; 'I' for Inactive)
REMARK    1  A    between atoms: C_1  and  C_2
REMARK    2  A    between atoms: C_5  and  N_6
REMARK    3  A    between atoms: N_6  and  C_7
REMARK    4  A    between atoms: N_6  and  S_8
REMARK    5  A    between atoms: S_8  and  C_11
REMARK    6  A    between atoms: C_13  and  C_14
REMARK    7  A    between atoms: C_16  and  C_17
REMARK    8  A    between atoms: C_27  and  C_28
REMARK                            x       y       z     vdW  Elec       q    Type
REMARK                         _______ _______ _______ _____ _____    ______ ____
ROOT
ATOM      1  C   UNL     1       3.482   4.688  19.184  0.00  0.00    +0.000 A 
ATOM      2  C   UNL     1       3.148   6.029  18.845  0.00  0.00    +0.000 A 
ATOM      3  C   UNL     1       2.223   6.587  19.706  0.00  0.00    +0.000 A 
ATOM      4  S   UNL     1       1.693   5.454  20.864  0.00  0.00    +0.000 S 
ATOM      5  C   UNL     1       2.720   4.225  20.246  0.00  0.00    +0.000 A 
ATOM      6  C   UNL     1       2.704   2.866  20.864  0.00  0.00    +0.000 C 
ENDROOT
BRANCH   3   7
ATOM      7  C   UNL     1       1.755   7.942  19.670  0.00  0.00    +0.000 A 
ATOM      8  N   UNL     1       0.990   8.448  20.615  0.00  0.00    +0.000 NA
ATOM      9  C   UNL     1       0.732   9.723  20.171  0.00  0.00    +0.000 A 
ATOM     10  N   UNL     1       1.320  10.020  19.003  0.00  0.00    +0.000 NA
ATOM     11  O   UNL     1       2.000   8.845  18.668  0.00  0.00    +0.000 OA
BRANCH   9  12
ATOM     12  C   UNL     1      -0.128  10.625  20.930  0.00  0.00    +0.000 A 
ATOM     13  C   UNL     1      -0.344  10.391  22.299  0.00  0.00    +0.000 A 
ATOM     14  C   UNL     1      -1.184  11.221  23.044  0.00  0.00    +0.000 A 
ATOM     15  C   UNL     1      -1.815  12.297  22.426  0.00  0.00    +0.000 A 
ATOM     16 CL   UNL     1      -2.859  13.312  23.341  0.00  0.00    +0.000 Cl
ATOM     17  C   UNL     1      -1.608  12.549  21.071  0.00  0.00    +0.000 A 
ATOM     18  C   UNL     1      -0.765  11.718  20.323  0.00  0.00    +0.000 A 
ENDBRANCH   9  12
ENDBRANCH   3   7
BRANCH   1  19
ATOM     19  S   UNL     1       4.688   3.737  18.352  0.00  0.00    +0.000 S 
ATOM     20  O   UNL     1       3.891   2.692  17.742  0.00  0.00    +0.000 OA
ATOM     21  O   UNL     1       5.648   3.453  19.395  0.00  0.00    +0.000 OA
BRANCH  19  22
ATOM     22  N   UNL     1       5.403   4.655  17.131  0.00  0.00    +0.000 N 
ATOM     23  C   UNL     1       5.309   4.191  15.747  0.00  0.00    +0.000 C 
BRANCH  22  28
ATOM     24  C   UNL     1       8.817   9.042  18.560  0.00  0.00    +0.000 C 
ATOM     25  C   UNL     1       7.910   7.909  18.178  0.00  0.00    +0.000 A 
ATOM     26  C   UNL     1       6.859   8.089  17.270  0.00  0.00    +0.000 A 
ATOM     27  C   UNL     1       6.036   7.014  16.911  0.00  0.00    +0.000 A 
ATOM     28  C   UNL     1       6.262   5.749  17.455  0.00  0.00    +0.000 A 
ATOM     29  C   UNL     1       7.286   5.573  18.384  0.00  0.00    +0.000 A 
ATOM     30  C   UNL     1       8.114   6.642  18.734  0.00  0.00    +0.000 A 
ENDBRANCH  22  28
ENDBRANCH  19  22
ENDBRANCH   1  19
TORSDOF 5
ENDMDL
MODEL 3
REMARK VINA RESULT:      -8.5      0.958      1.183
REMARK  Name = 
REMARK  8 active torsions:
REMARK  status: ('A' for Active; 'I' for Inactive)
REMARK    1  A    between atoms: C_1  and  C_2
REMARK    2  A    between atoms: C_5  and  N_6
REMARK    3  A    between atoms: N_6  and  C_7
REMARK    4  A    between atoms: N_6  and  S_8
REMARK    5  A    between atoms: S_8  and  C_11
REMARK    6  A    between atoms: C_13  and  C_14
REMARK    7  A    between atoms: C_16  and  C_17
REMARK    8  A    between atoms: C_27  and  C_28
REMARK                            x       y       z     vdW  Elec       q    Type
REMARK                         _______ _______ _______ _____ _____    ______ ____
ROOT
ATOM      1  C   UNL     1       3.464   4.785  19.070  0.00  0.00    +0.000 A 
ATOM      2  C   UNL     1       3.226   6.081  18.533  0.00  0.00    +0.000 A 
ATOM      3  C   UNL     1       2.350   6.827  19.297  0.00  0.00    +0.000 A 
ATOM      4  S   UNL     1       1.748   5.920  20.610  0.00  0.00    +0.000 S 
ATOM      5  C   UNL     1       2.680   4.542  20.187  0.00  0.00    +0.000 A 
ATOM      6  C   UNL     1       2.570   3.296  21.001  0.00  0.00    +0.000 C 
ENDROOT
BRANCH   3   7
ATOM      7  C   UNL     1       1.981   8.191  19.057  0.00  0.00    +0.000 A 
ATOM      8  N   UNL     1       1.166   8.850  19.854  0.00  0.00    +0.000 NA
ATOM      9  C   UNL     1       1.039  10.075  19.242  0.00  0.00    +0.000 A 
ATOM     10  N   UNL     1       1.753  10.193  18.113  0.00  0.00    +0.000 NA
ATOM     11  O   UNL     1       2.381   8.950  17.988  0.00  0.00    +0.000 OA
BRANCH   9  12
ATOM     12  C   UNL     1       0.173  11.109  19.799  0.00  0.00    +0.000 A 
ATOM     13  C   UNL     1       0.566  11.790  20.964  0.00  0.00    +0.000 A 
ATOM     14  C   UNL     1      -0.254  12.766  21.534  0.00  0.00    +0.000 A 
ATOM     15  C   UNL     1      -1.476  13.071  20.942  0.00  0.00    +0.000 A 
ATOM     16 CL   UNL     1      -2.492  14.264  21.652  0.00  0.00    +0.000 Cl
ATOM     17  C   UNL     1      -1.880  12.411  19.783  0.00  0.00    +0.000 A 
ATOM     18  C   UNL     1      -1.058  11.433  19.210  0.00  0.00    +0.000 A 
ENDBRANCH   9  12
ENDBRANCH   3   7
BRANCH   1  19
ATOM     19  S   UNL     1       4.593   3.635  18.394  0.00  0.00    +0.000 S 
ATOM     20  O   UNL     1       3.714   2.692  17.731  0.00  0.00    +0.000 OA
ATOM     21  O   UNL     1       5.392   3.258  19.538  0.00  0.00    +0.000 OA
BRANCH  19  22
ATOM     22  N   UNL     1       5.554   4.388  17.229  0.00  0.00    +0.000 N 
ATOM     23  C   UNL     1       5.753   3.729  15.939  0.00  0.00    +0.000 C 
BRANCH  22  28
ATOM     24  C   UNL     1       8.721   9.015  18.457  0.00  0.00    +0.000 C 
ATOM     25  C   UNL     1       7.907   7.792  18.146  0.00  0.00    +0.000 A 
ATOM     26  C   UNL     1       8.113   6.586  18.827  0.00  0.00    +0.000 A 
ATOM     27  C   UNL     1       7.329   5.463  18.536  0.00  0.00    +0.000 A 
ATOM     28  C   UNL     1       6.330   5.539  17.565  0.00  0.00    +0.000 A 
ATOM     29  C   UNL     1       6.144   6.728  16.862  0.00  0.00    +0.000 A 
ATOM     30  C   UNL     1       6.918   7.853  17.160  0.00  0.00    +0.000 A 
ENDBRANCH  22  28
ENDBRANCH  19  22
ENDBRANCH   1  19
TORSDOF 5
ENDMDL
MODEL 4
REMARK VINA RESULT:      -8.5      1.330      1.681
REMARK  Name = 
REMARK  8 active torsions:
REMARK  status: ('A' for Active; 'I' for Inactive)
REMARK    1  A    between atoms: C_1  and  C_2
REMARK    2  A    between atoms: C_5  and  N_6
REMARK    3  A    between atoms: N_6  and  C_7
REMARK    4  A    between atoms: N_6  and  S_8
REMARK    5  A    between atoms: S_8  and  C_11
REMARK    6  A    between atoms: C_13  and  C_14
REMARK    7  A    between atoms: C_16  and  C_17
REMARK    8  A    between atoms: C_27  and  C_28
REMARK                            x       y       z     vdW  Elec       q    Type
REMARK                         _______ _______ _______ _____ _____    ______ ____
ROOT
ATOM      1  C   UNL     1       3.446   4.882  18.958  0.00  0.00    +0.000 A 
ATOM      2  C   UNL     1       3.230   6.134  18.317  0.00  0.00    +0.000 A 
ATOM      3  C   UNL     1       2.378   6.960  19.025  0.00  0.00    +0.000 A 
ATOM      4  S   UNL     1       1.771   6.180  20.414  0.00  0.00    +0.000 S 
ATOM      5  C   UNL     1       2.669   4.750  20.099  0.00  0.00    +0.000 A 
ATOM      6  C   UNL     1       2.541   3.579  21.014  0.00  0.00    +0.000 C 
ENDROOT
BRANCH   3   7
ATOM      7  C   UNL     1       2.036   8.308  18.675  0.00  0.00    +0.000 A 
ATOM      8  N   UNL     1       1.242   9.048  19.421  0.00  0.00    +0.000 NA
ATOM      9  C   UNL     1       1.135  10.220  18.710  0.00  0.00    +0.000 A 
ATOM     10  N   UNL     1       1.842  10.230  17.571  0.00  0.00    +0.000 NA
ATOM     11  O   UNL     1       2.442   8.968  17.544  0.00  0.00    +0.000 OA
BRANCH   9  12
ATOM     12  C   UNL     1       0.296  11.315  19.186  0.00  0.00    +0.000 A 
ATOM     13  C   UNL     1       0.794  12.630  19.165  0.00  0.00    +0.000 A 
ATOM     14  C   UNL     1       0.024  13.695  19.638  0.00  0.00    +0.000 A 
ATOM     15  C   UNL     1      -1.254  13.454  20.135  0.00  0.00    +0.000 A 
ATOM     16 CL   UNL     1      -2.198  14.763  20.730  0.00  0.00    +0.000 Cl
ATOM     17  C   UNL     1      -1.767  12.158  20.158  0.00  0.00    +0.000 A 
ATOM     18  C   UNL     1      -0.996  11.090  19.682  0.00  0.00    +0.000 A 
ENDBRANCH   9  12
ENDBRANCH   3   7
BRANCH   1  19
ATOM     19  S   UNL     1       4.543   3.655  18.370  0.00  0.00    +0.000 S 
ATOM     20  O   UNL     1       3.643   2.719  17.727  0.00  0.00    +0.000 OA
ATOM     21  O   UNL     1       5.293   3.301  19.554  0.00  0.00    +0.000 OA
BRANCH  19  22
ATOM     22  N   UNL     1       5.566   4.312  17.201  0.00  0.00    +0.000 N 
ATOM     23  C   UNL     1       5.782   3.578  15.954  0.00  0.00    +0.000 C 
BRANCH  22  28
ATOM     24  C   UNL     1       8.756   8.894  18.530  0.00  0.00    +0.000 C 
ATOM     25  C   UNL     1       7.908   7.709  18.171  0.00  0.00    +0.000 A 
ATOM     26  C   UNL     1       6.954   7.776  17.148  0.00  0.00    +0.000 A 
ATOM     27  C   UNL     1       6.188   6.652  16.816  0.00  0.00    +0.000 A 
ATOM     28  C   UNL     1       6.373   5.451  17.501  0.00  0.00    +0.000 A 
ATOM     29  C   UNL     1       7.298   5.389  18.542  0.00  0.00    +0.000 A 
ATOM     30  C   UNL     1       8.071   6.507  18.866  0.00  0.00    +0.000 A 
ENDBRANCH  22  28
ENDBRANCH  19  22
ENDBRANCH   1  19
TORSDOF 5
ENDMDL
MODEL 5
REMARK VINA RESULT:      -8.4      4.530      9.424
REMARK  Name = 
REMARK  8 active torsions:
REMARK  status: ('A' for Active; 'I' for Inactive)
REMARK    1  A    between atoms: C_1  and  C_2
REMARK    2  A    between atoms: C_5  and  N_6
REMARK    3  A    between atoms: N_6  and  C_7
REMARK    4  A    between atoms: N_6  and  S_8
REMARK    5  A    between atoms: S_8  and  C_11
REMARK    6  A    between atoms: C_13  and  C_14
REMARK    7  A    between atoms: C_16  and  C_17
REMARK    8  A    between atoms: C_27  and  C_28
REMARK                            x       y       z     vdW  Elec       q    Type
REMARK                         _______ _______ _______ _____ _____    ______ ____
ROOT
ATOM      1  C   UNL     1      -0.235  10.936  20.605  0.00  0.00    +0.000 A 
ATOM      2  C   UNL     1       0.582   9.983  19.935  0.00  0.00    +0.000 A 
ATOM      3  C   UNL     1       0.863   8.876  20.711  0.00  0.00    +0.000 A 
ATOM      4  S   UNL     1       0.214   9.038  22.279  0.00  0.00    +0.000 S 
ATOM      5  C   UNL     1      -0.475  10.569  21.920  0.00  0.00    +0.000 A 
ATOM      6  C   UNL     1      -1.218  11.313  22.979  0.00  0.00    +0.000 C 
ENDROOT
BRANCH   3   7
ATOM      7  C   UNL     1       1.591   7.716  20.284  0.00  0.00    +0.000 A 
ATOM      8  N   UNL     1       2.333   7.713  19.196  0.00  0.00    +0.000 NA
ATOM      9  C   UNL     1       2.796   6.420  19.127  0.00  0.00    +0.000 A 
ATOM     10  N   UNL     1       2.377   5.641  20.135  0.00  0.00    +0.000 NA
ATOM     11  O   UNL     1       1.582   6.494  20.905  0.00  0.00    +0.000 OA
BRANCH   9  12
ATOM     12  C   UNL     1       3.644   5.981  18.024  0.00  0.00    +0.000 A 
ATOM     13  C   UNL     1       4.317   6.938  17.243  0.00  0.00    +0.000 A 
ATOM     14  C   UNL     1       5.113   6.549  16.164  0.00  0.00    +0.000 A 
ATOM     15  C   UNL     1       5.247   5.197  15.858  0.00  0.00    +0.000 A 
ATOM     16 CL   UNL     1       6.218   4.719  14.521  0.00  0.00    +0.000 Cl
ATOM     17  C   UNL     1       4.593   4.234  16.624  0.00  0.00    +0.000 A 
ATOM     18  C   UNL     1       3.795   4.624  17.707  0.00  0.00    +0.000 A 
ENDBRANCH   9  12
ENDBRANCH   3   7
BRANCH   1  19
ATOM     19  S   UNL     1      -0.846  12.398  19.866  0.00  0.00    +0.000 S 
ATOM     20  O   UNL     1      -0.034  12.501  18.670  0.00  0.00    +0.000 OA
ATOM     21  O   UNL     1      -0.750  13.363  20.938  0.00  0.00    +0.000 OA
BRANCH  19  22
ATOM     22  N   UNL     1      -2.455  12.183  19.411  0.00  0.00    +0.000 N 
ATOM     23  C   UNL     1      -3.508  12.397  20.403  0.00  0.00    +0.000 C 
BRANCH  22  28
ATOM     24  C   UNL     1      -3.861   9.783  14.390  0.00  0.00    +0.000 C 
ATOM     25  C   UNL     1      -3.478  10.396  15.706  0.00  0.00    +0.000 A 
ATOM     26  C   UNL     1      -2.258  10.094  16.324  0.00  0.00    +0.000 A 
ATOM     27  C   UNL     1      -1.910  10.693  17.542  0.00  0.00    +0.000 A 
ATOM     28  C   UNL     1      -2.779  11.601  18.148  0.00  0.00    +0.000 A 
ATOM     29  C   UNL     1      -4.009  11.878  17.553  0.00  0.00    +0.000 A 
ATOM     30  C   UNL     1      -4.351  11.291  16.332  0.00  0.00    +0.000 A 
ENDBRANCH  22  28
ENDBRANCH  19  22
ENDBRANCH   1  19
TORSDOF 5
ENDMDL
MODEL 6
REMARK VINA RESULT:      -8.3      4.447      9.452
REMARK  Name = 
REMARK  8 active torsions:
REMARK  status: ('A' for Active; 'I' for Inactive)
REMARK    1  A    between atoms: C_1  and  C_2
REMARK    2  A    between atoms: C_5  and  N_6
REMARK    3  A    between atoms: N_6  and  C_7
REMARK    4  A    between atoms: N_6  and  S_8
REMARK    5  A    between atoms: S_8  and  C_11
REMARK    6  A    between atoms: C_13  and  C_14
REMARK    7  A    between atoms: C_16  and  C_17
REMARK    8  A    between atoms: C_27  and  C_28
REMARK                            x       y       z     vdW  Elec       q    Type
REMARK                         _______ _______ _______ _____ _____    ______ ____
ROOT
ATOM      1  C   UNL     1      -0.090  10.798  20.735  0.00  0.00    +0.000 A 
ATOM      2  C   UNL     1       0.753   9.884  20.043  0.00  0.00    +0.000 A 
ATOM      3  C   UNL     1       0.960   8.709  20.740  0.00  0.00    +0.000 A 
ATOM      4  S   UNL     1       0.209   8.758  22.270  0.00  0.00    +0.000 S 
ATOM      5  C   UNL     1      -0.426  10.329  21.996  0.00  0.00    +0.000 A 
ATOM      6  C   UNL     1      -1.225  11.002  23.062  0.00  0.00    +0.000 C 
ENDROOT
BRANCH   3   7
ATOM      7  C   UNL     1       1.694   7.572  20.267  0.00  0.00    +0.000 A 
ATOM      8  N   UNL     1       2.401   7.604  19.157  0.00  0.00    +0.000 NA
ATOM      9  C   UNL     1       2.883   6.321  19.047  0.00  0.00    +0.000 A 
ATOM     10  N   UNL     1       2.510   5.514  20.051  0.00  0.00    +0.000 NA
ATOM     11  O   UNL     1       1.725   6.338  20.862  0.00  0.00    +0.000 OA
BRANCH   9  12
ATOM     12  C   UNL     1       3.703   5.919  17.909  0.00  0.00    +0.000 A 
ATOM     13  C   UNL     1       3.856   4.553  17.611  0.00  0.00    +0.000 A 
ATOM     14  C   UNL     1       4.656   4.138  16.544  0.00  0.00    +0.000 A 
ATOM     15  C   UNL     1       5.308   5.087  15.762  0.00  0.00    +0.000 A 
ATOM     16 CL   UNL     1       6.303   4.575  14.456  0.00  0.00    +0.000 Cl
ATOM     17  C   UNL     1       5.163   6.446  16.037  0.00  0.00    +0.000 A 
ATOM     18  C   UNL     1       4.361   6.863  17.106  0.00  0.00    +0.000 A 
ENDBRANCH   9  12
ENDBRANCH   3   7
BRANCH   1  19
ATOM     19  S   UNL     1      -0.621  12.329  20.082  0.00  0.00    +0.000 S 
ATOM     20  O   UNL     1       0.170  12.441  18.874  0.00  0.00    +0.000 OA
ATOM     21  O   UNL     1      -0.442  13.232  21.197  0.00  0.00    +0.000 OA
BRANCH  19  22
ATOM     22  N   UNL     1      -2.251  12.239  19.656  0.00  0.00    +0.000 N 
ATOM     23  C   UNL     1      -3.265  12.594  20.648  0.00  0.00    +0.000 C 
BRANCH  22  28
ATOM     24  C   UNL     1      -3.736   9.843  14.656  0.00  0.00    +0.000 C 
ATOM     25  C   UNL     1      -3.364  10.484  15.962  0.00  0.00    +0.000 A 
ATOM     26  C   UNL     1      -4.246  11.341  16.632  0.00  0.00    +0.000 A 
ATOM     27  C   UNL     1      -3.887  11.912  17.859  0.00  0.00    +0.000 A 
ATOM     28  C   UNL     1      -2.645  11.627  18.427  0.00  0.00    +0.000 A 
ATOM     29  C   UNL     1      -1.751  10.802  17.747  0.00  0.00    +0.000 A 
ATOM     30  C   UNL     1      -2.113  10.222  16.529  0.00  0.00    +0.000 A 
ENDBRANCH  22  28
ENDBRANCH  19  22
ENDBRANCH   1  19
TORSDOF 5
ENDMDL
MODEL 7
REMARK VINA RESULT:      -8.2      1.410      3.000
REMARK  Name = 
REMARK  8 active torsions:
REMARK  status: ('A' for Active; 'I' for Inactive)
REMARK    1  A    between atoms: C_1  and  C_2
REMARK    2  A    between atoms: C_5  and  N_6
REMARK    3  A    between atoms: N_6  and  C_7
REMARK    4  A    between atoms: N_6  and  S_8
REMARK    5  A    between atoms: S_8  and  C_11
REMARK    6  A    between atoms: C_13  and  C_14
REMARK    7  A    between atoms: C_16  and  C_17
REMARK    8  A    between atoms: C_27  and  C_28
REMARK                            x       y       z     vdW  Elec       q    Type
REMARK                         _______ _______ _______ _____ _____    ______ ____
ROOT
ATOM      1  C   UNL     1       4.430   5.391  19.155  0.00  0.00    +0.000 A 
ATOM      2  C   UNL     1       3.898   6.693  18.938  0.00  0.00    +0.000 A 
ATOM      3  C   UNL     1       2.607   6.832  19.410  0.00  0.00    +0.000 A 
ATOM      4  S   UNL     1       2.013   5.358  20.028  0.00  0.00    +0.000 S 
ATOM      5  C   UNL     1       3.486   4.537  19.703  0.00  0.00    +0.000 A 
ATOM      6  C   UNL     1       3.609   3.084  20.018  0.00  0.00    +0.000 C 
ENDROOT
BRANCH   3   7
ATOM      7  C   UNL     1       1.840   8.043  19.409  0.00  0.00    +0.000 A 
ATOM      8  N   UNL     1       1.221   8.484  20.484  0.00  0.00    +0.000 NA
ATOM      9  C   UNL     1       0.575   9.615  20.041  0.00  0.00    +0.000 A 
ATOM     10  N   UNL     1       0.787   9.887  18.745  0.00  0.00    +0.000 NA
ATOM     11  O   UNL     1       1.625   8.851  18.323  0.00  0.00    +0.000 OA
BRANCH   9  12
ATOM     12  C   UNL     1      -0.271  10.398  20.935  0.00  0.00    +0.000 A 
ATOM     13  C   UNL     1      -0.320  10.076  22.303  0.00  0.00    +0.000 A 
ATOM     14  C   UNL     1      -1.141  10.791  23.178  0.00  0.00    +0.000 A 
ATOM     15  C   UNL     1      -1.919  11.838  22.692  0.00  0.00    +0.000 A 
ATOM     16 CL   UNL     1      -2.939  12.710  23.767  0.00  0.00    +0.000 Cl
ATOM     17  C   UNL     1      -1.878  12.176  21.341  0.00  0.00    +0.000 A 
ATOM     18  C   UNL     1      -1.055  11.461  20.463  0.00  0.00    +0.000 A 
ENDBRANCH   9  12
ENDBRANCH   3   7
BRANCH   1  19
ATOM     19  S   UNL     1       6.067   4.922  18.761  0.00  0.00    +0.000 S 
ATOM     20  O   UNL     1       5.923   3.508  18.478  0.00  0.00    +0.000 OA
ATOM     21  O   UNL     1       6.820   5.400  19.899  0.00  0.00    +0.000 OA
BRANCH  19  22
ATOM     22  N   UNL     1       6.567   5.707  17.354  0.00  0.00    +0.000 N 
ATOM     23  C   UNL     1       7.014   7.098  17.437  0.00  0.00    +0.000 C 
BRANCH  22  28
ATOM     24  C   UNL     1       5.788   3.392  12.160  0.00  0.00    +0.000 C 
ATOM     25  C   UNL     1       5.970   4.002  13.520  0.00  0.00    +0.000 A 
ATOM     26  C   UNL     1       4.879   4.245  14.363  0.00  0.00    +0.000 A 
ATOM     27  C   UNL     1       5.074   4.796  15.636  0.00  0.00    +0.000 A 
ATOM     28  C   UNL     1       6.361   5.104  16.076  0.00  0.00    +0.000 A 
ATOM     29  C   UNL     1       7.446   4.895  15.227  0.00  0.00    +0.000 A 
ATOM     30  C   UNL     1       7.255   4.334  13.961  0.00  0.00    +0.000 A 
ENDBRANCH  22  28
ENDBRANCH  19  22
ENDBRANCH   1  19
TORSDOF 5
ENDMDL
MODEL 8
REMARK VINA RESULT:      -8.2      4.185      9.437
REMARK  Name = 
REMARK  8 active torsions:
REMARK  status: ('A' for Active; 'I' for Inactive)
REMARK    1  A    between atoms: C_1  and  C_2
REMARK    2  A    between atoms: C_5  and  N_6
REMARK    3  A    between atoms: N_6  and  C_7
REMARK    4  A    between atoms: N_6  and  S_8
REMARK    5  A    between atoms: S_8  and  C_11
REMARK    6  A    between atoms: C_13  and  C_14
REMARK    7  A    between atoms: C_16  and  C_17
REMARK    8  A    between atoms: C_27  and  C_28
REMARK                            x       y       z     vdW  Elec       q    Type
REMARK                         _______ _______ _______ _____ _____    ______ ____
ROOT
ATOM      1  C   UNL     1       0.319  11.026  21.119  0.00  0.00    +0.000 A 
ATOM      2  C   UNL     1       1.159  10.078  20.469  0.00  0.00    +0.000 A 
ATOM      3  C   UNL     1       0.952   8.785  20.908  0.00  0.00    +0.000 A 
ATOM      4  S   UNL     1      -0.192   8.737  22.172  0.00  0.00    +0.000 S 
ATOM      5  C   UNL     1      -0.443  10.434  22.114  0.00  0.00    +0.000 A 
ATOM      6  C   UNL     1      -1.392  11.076  23.072  0.00  0.00    +0.000 C 
ENDROOT
BRANCH   3   7
ATOM      7  C   UNL     1       1.587   7.611  20.386  0.00  0.00    +0.000 A 
ATOM      8  N   UNL     1       2.383   7.649  19.337  0.00  0.00    +0.000 NA
ATOM      9  C   UNL     1       2.723   6.331  19.144  0.00  0.00    +0.000 A 
ATOM     10  N   UNL     1       2.177   5.494  20.039  0.00  0.00    +0.000 NA
ATOM     11  O   UNL     1       1.427   6.336  20.864  0.00  0.00    +0.000 OA
BRANCH   9  12
ATOM     12  C   UNL     1       3.583   5.929  18.036  0.00  0.00    +0.000 A 
ATOM     13  C   UNL     1       4.283   6.909  17.310  0.00  0.00    +0.000 A 
ATOM     14  C   UNL     1       5.092   6.557  16.228  0.00  0.00    +0.000 A 
ATOM     15  C   UNL     1       5.211   5.220  15.863  0.00  0.00    +0.000 A 
ATOM     16 CL   UNL     1       6.198   4.787  14.522  0.00  0.00    +0.000 Cl
ATOM     17  C   UNL     1       4.531   4.233  16.574  0.00  0.00    +0.000 A 
ATOM     18  C   UNL     1       3.720   4.585  17.660  0.00  0.00    +0.000 A 
ENDBRANCH   9  12
ENDBRANCH   3   7
BRANCH   1  19
ATOM     19  S   UNL     1       0.269  12.727  20.723  0.00  0.00    +0.000 S 
ATOM     20  O   UNL     1       1.079  12.788  19.522  0.00  0.00    +0.000 OA
ATOM     21  O   UNL     1       0.686  13.356  21.956  0.00  0.00    +0.000 OA
BRANCH  19  22
ATOM     22  N   UNL     1      -1.309  13.181  20.335  0.00  0.00    +0.000 N 
ATOM     23  C   UNL     1      -2.004  14.136  21.197  0.00  0.00    +0.000 C 
BRANCH  22  28
ATOM     24  C   UNL     1      -4.179  10.513  16.142  0.00  0.00    +0.000 C 
ATOM     25  C   UNL     1      -3.447  11.217  17.247  0.00  0.00    +0.000 A 
ATOM     26  C   UNL     1      -4.108  11.638  18.408  0.00  0.00    +0.000 A 
ATOM     27  C   UNL     1      -3.402  12.275  19.437  0.00  0.00    +0.000 A 
ATOM     28  C   UNL     1      -2.030  12.493  19.313  0.00  0.00    +0.000 A 
ATOM     29  C   UNL     1      -1.375  12.106  18.145  0.00  0.00    +0.000 A 
ATOM     30  C   UNL     1      -2.076  11.459  17.124  0.00  0.00    +0.000 A 
ENDBRANCH  22  28
ENDBRANCH  19  22
ENDBRANCH   1  19
TORSDOF 5
ENDMDL
MODEL 9
REMARK VINA RESULT:      -8.2      4.176      9.429
REMARK  Name = 
REMARK  8 active torsions:
REMARK  status: ('A' for Active; 'I' for Inactive)
REMARK    1  A    between atoms: C_1  and  C_2
REMARK    2  A    between atoms: C_5  and  N_6
REMARK    3  A    between atoms: N_6  and  C_7
REMARK    4  A    between atoms: N_6  and  S_8
REMARK    5  A    between atoms: S_8  and  C_11
REMARK    6  A    between atoms: C_13  and  C_14
REMARK    7  A    between atoms: C_16  and  C_17
REMARK    8  A    between atoms: C_27  and  C_28
REMARK                            x       y       z     vdW  Elec       q    Type
REMARK                         _______ _______ _______ _____ _____    ______ ____
ROOT
ATOM      1  C   UNL     1       0.550  10.987  21.330  0.00  0.00    +0.000 A 
ATOM      2  C   UNL     1       1.397  10.035  20.698  0.00  0.00    +0.000 A 
ATOM      3  C   UNL     1       1.029   8.730  20.959  0.00  0.00    +0.000 A 
ATOM      4  S   UNL     1      -0.284   8.664  22.046  0.00  0.00    +0.000 S 
ATOM      5  C   UNL     1      -0.390  10.374  22.144  0.00  0.00    +0.000 A 
ATOM      6  C   UNL     1      -1.413  11.003  23.031  0.00  0.00    +0.000 C 
ENDROOT
BRANCH   3   7
ATOM      7  C   UNL     1       1.638   7.559  20.400  0.00  0.00    +0.000 A 
ATOM      8  N   UNL     1       2.422   7.611  19.343  0.00  0.00    +0.000 NA
ATOM      9  C   UNL     1       2.738   6.293  19.112  0.00  0.00    +0.000 A 
ATOM     10  N   UNL     1       2.189   5.442  19.992  0.00  0.00    +0.000 NA
ATOM     11  O   UNL     1       1.464   6.276  20.849  0.00  0.00    +0.000 OA
BRANCH   9  12
ATOM     12  C   UNL     1       3.577   5.905  17.983  0.00  0.00    +0.000 A 
ATOM     13  C   UNL     1       3.698   4.547  17.643  0.00  0.00    +0.000 A 
ATOM     14  C   UNL     1       4.515   4.144  16.584  0.00  0.00    +0.000 A 
ATOM     15  C   UNL     1       5.218   5.099  15.854  0.00  0.00    +0.000 A 
ATOM     16 CL   UNL     1       6.234   4.602  14.559  0.00  0.00    +0.000 Cl
ATOM     17  C   UNL     1       5.105   6.451  16.172  0.00  0.00    +0.000 A 
ATOM     18  C   UNL     1       4.285   6.855  17.233  0.00  0.00    +0.000 A 
ENDBRANCH   9  12
ENDBRANCH   3   7
BRANCH   1  19
ATOM     19  S   UNL     1       0.690  12.717  21.122  0.00  0.00    +0.000 S 
ATOM     20  O   UNL     1       2.118  12.892  20.949  0.00  0.00    +0.000 OA
ATOM     21  O   UNL     1      -0.008  13.237  22.276  0.00  0.00    +0.000 OA
BRANCH  19  22
ATOM     22  N   UNL     1      -0.089  13.190  19.702  0.00  0.00    +0.000 N 
ATOM     23  C   UNL     1       0.427  14.339  18.959  0.00  0.00    +0.000 C 
BRANCH  22  28
ATOM     24  C   UNL     1      -5.139  10.957  18.136  0.00  0.00    +0.000 C 
ATOM     25  C   UNL     1      -3.829  11.556  18.558  0.00  0.00    +0.000 A 
ATOM     26  C   UNL     1      -3.738  12.408  19.666  0.00  0.00    +0.000 A 
ATOM     27  C   UNL     1      -2.502  12.939  20.055  0.00  0.00    +0.000 A 
ATOM     28  C   UNL     1      -1.347  12.619  19.341  0.00  0.00    +0.000 A 
ATOM     29  C   UNL     1      -1.438  11.798  18.218  0.00  0.00    +0.000 A 
ATOM     30  C   UNL     1      -2.669  11.258  17.837  0.00  0.00    +0.000 A 
ENDBRANCH  22  28
ENDBRANCH  19  22
ENDBRANCH   1  19
TORSDOF 5
ENDMDL
