MODEL 1
REMARK VINA RESULT:      -8.2      0.000      0.000
REMARK  Name = 
REMARK  7 active torsions:
REMARK  status: ('A' for Active; 'I' for Inactive)
REMARK    1  A    between atoms: C_1  and  S_2
REMARK    2  A    between atoms: S_2  and  O_5
REMARK    3  A    between atoms: O_5  and  C_6
REMARK    4  A    between atoms: C_12  and  C_13
REMARK    5  A    between atoms: C_13  and  C_14
REMARK    6  A    between atoms: C_17  and  N_18
REMARK    7  A    between atoms: C_26  and  O_27
REMARK                            x       y       z     vdW  Elec       q    Type
REMARK                         _______ _______ _______ _____ _____    ______ ____
ROOT
ATOM      1  C   UNL     1       2.140   8.020  18.551  0.00  0.00    +0.000 A 
ATOM      2  C   UNL     1       1.529   7.956  19.810  0.00  0.00    +0.000 A 
ATOM      3  C   UNL     1       0.952   9.098  20.386  0.00  0.00    +0.000 A 
ATOM      4  C   UNL     1       1.005  10.322  19.715  0.00  0.00    +0.000 A 
ATOM      5  C   UNL     1       1.647  10.392  18.476  0.00  0.00    +0.000 A 
ATOM      6  C   UNL     1       2.222   9.264  17.902  0.00  0.00    +0.000 A 
ENDROOT
BRANCH   4   7
ATOM      7  N   UNL     1       0.330  11.497  20.188  0.00  0.00    +0.000 N 
ATOM      8  C   UNL     1       0.337  11.815  21.620  0.00  0.00    +0.000 C 
ATOM      9  C   UNL     1      -1.087  12.162  21.981  0.00  0.00    +0.000 C 
ATOM     10  O   UNL     1      -1.459  12.261  23.150  0.00  0.00    +0.000 OA
ATOM     11  C   UNL     1      -1.996  12.473  20.842  0.00  0.00    +0.000 C 
ATOM     12  S   UNL     1      -1.124  11.904  19.418  0.00  0.00    +0.000 S 
ATOM     13  O   UNL     1      -0.828  13.032  18.564  0.00  0.00    +0.000 OA
ATOM     14  O   UNL     1      -1.778  10.710  18.930  0.00  0.00    +0.000 OA
ENDBRANCH   4   7
BRANCH   5  15
ATOM     15  O   UNL     1       1.723  11.574  17.790  0.00  0.00    +0.000 OA
ATOM     16  H   UNL     1       2.420  12.103  18.224  0.00  0.00    +0.000 HD
ENDBRANCH   5  15
BRANCH   1  17
ATOM     17  C   UNL     1       2.697   6.782  17.876  0.00  0.00    +0.000 C 
BRANCH  17  24
ATOM     18  C   UNL     1       4.962   5.497  17.771  0.00  0.00    +0.000 C 
ATOM     19  C   UNL     1       4.384   4.466  16.771  0.00  0.00    +0.000 C 
ATOM     20 CL   UNL     1       5.427   4.129  15.370  0.00  0.00    +0.000 Cl
ATOM     21  C   UNL     1       3.932   3.215  17.522  0.00  0.00    +0.000 C 
ATOM     22  C   UNL     1       2.810   3.587  18.499  0.00  0.00    +0.000 C 
ATOM     23  C   UNL     1       3.170   4.759  19.420  0.00  0.00    +0.000 C 
ATOM     24  C   UNL     1       3.772   5.980  18.680  0.00  0.00    +0.000 C 
BRANCH  18  25
ATOM     25  O   UNL     1       5.965   4.929  18.652  0.00  0.00    +0.000 OA
BRANCH  25  27
ATOM     26  C   UNL     1       7.435   6.878  17.747  0.00  0.00    +0.000 C 
ATOM     27  S   UNL     1       7.556   5.235  18.405  0.00  0.00    +0.000 S 
ATOM     28  O   UNL     1       8.043   4.353  17.368  0.00  0.00    +0.000 OA
ATOM     29  O   UNL     1       8.220   5.391  19.681  0.00  0.00    +0.000 OA
ENDBRANCH  25  27
ENDBRANCH  18  25
ENDBRANCH  17  24
ENDBRANCH   1  17
TORSDOF 6
ENDMDL
MODEL 2
REMARK VINA RESULT:      -7.9      2.409      3.542
REMARK  Name = 
REMARK  7 active torsions:
REMARK  status: ('A' for Active; 'I' for Inactive)
REMARK    1  A    between atoms: C_1  and  S_2
REMARK    2  A    between atoms: S_2  and  O_5
REMARK    3  A    between atoms: O_5  and  C_6
REMARK    4  A    between atoms: C_12  and  C_13
REMARK    5  A    between atoms: C_13  and  C_14
REMARK    6  A    between atoms: C_17  and  N_18
REMARK    7  A    between atoms: C_26  and  O_27
REMARK                            x       y       z     vdW  Elec       q    Type
REMARK                         _______ _______ _______ _____ _____    ______ ____
ROOT
ATOM      1  C   UNL     1       3.118   7.734  18.059  0.00  0.00    +0.000 A 
ATOM      2  C   UNL     1       2.386   8.754  17.436  0.00  0.00    +0.000 A 
ATOM      3  C   UNL     1       1.338   9.399  18.109  0.00  0.00    +0.000 A 
ATOM      4  C   UNL     1       0.995   9.009  19.406  0.00  0.00    +0.000 A 
ATOM      5  C   UNL     1       1.701   7.968  20.013  0.00  0.00    +0.000 A 
ATOM      6  C   UNL     1       2.740   7.324  19.350  0.00  0.00    +0.000 A 
ENDROOT
BRANCH   4   7
ATOM      7  N   UNL     1       0.019   9.707  20.194  0.00  0.00    +0.000 N 
ATOM      8  C   UNL     1      -1.229  10.163  19.573  0.00  0.00    +0.000 C 
ATOM      9  C   UNL     1      -1.425  11.591  20.021  0.00  0.00    +0.000 C 
ATOM     10  O   UNL     1      -2.259  12.330  19.501  0.00  0.00    +0.000 OA
ATOM     11  C   UNL     1      -0.616  12.028  21.194  0.00  0.00    +0.000 C 
ATOM     12  S   UNL     1       0.609  10.771  21.373  0.00  0.00    +0.000 S 
ATOM     13  O   UNL     1       0.425  10.110  22.645  0.00  0.00    +0.000 OA
ATOM     14  O   UNL     1       1.883  11.315  20.957  0.00  0.00    +0.000 OA
ENDBRANCH   4   7
BRANCH   5  15
ATOM     15  O   UNL     1       1.393   7.555  21.281  0.00  0.00    +0.000 OA
ATOM     16  H   UNL     1       0.422   7.457  21.314  0.00  0.00    +0.000 HD
ENDBRANCH   5  15
BRANCH   1  17
ATOM     17  C   UNL     1       4.305   7.081  17.380  0.00  0.00    +0.000 C 
BRANCH  17  24
ATOM     18  C   UNL     1       5.405   5.091  18.653  0.00  0.00    +0.000 C 
ATOM     19  C   UNL     1       6.823   5.535  18.216  0.00  0.00    +0.000 C 
ATOM     20 CL   UNL     1       8.028   5.559  19.525  0.00  0.00    +0.000 Cl
ATOM     21  C   UNL     1       7.259   4.737  16.988  0.00  0.00    +0.000 C 
ATOM     22  C   UNL     1       6.305   5.033  15.825  0.00  0.00    +0.000 C 
ATOM     23  C   UNL     1       4.826   4.844  16.187  0.00  0.00    +0.000 C 
ATOM     24  C   UNL     1       4.410   5.527  17.514  0.00  0.00    +0.000 C 
BRANCH  18  25
ATOM     25  O   UNL     1       5.282   3.653  18.796  0.00  0.00    +0.000 OA
BRANCH  25  27
ATOM     26  C   UNL     1       3.225   2.070  18.589  0.00  0.00    +0.000 C 
ATOM     27  S   UNL     1       4.141   3.011  19.782  0.00  0.00    +0.000 S 
ATOM     28  O   UNL     1       3.301   4.079  20.277  0.00  0.00    +0.000 OA
ATOM     29  O   UNL     1       4.751   2.025  20.647  0.00  0.00    +0.000 OA
ENDBRANCH  25  27
ENDBRANCH  18  25
ENDBRANCH  17  24
ENDBRANCH   1  17
TORSDOF 6
ENDMDL
MODEL 3
REMARK VINA RESULT:      -7.9      1.490      2.228
REMARK  Name = 
REMARK  7 active torsions:
REMARK  status: ('A' for Active; 'I' for Inactive)
REMARK    1  A    between atoms: C_1  and  S_2
REMARK    2  A    between atoms: S_2  and  O_5
REMARK    3  A    between atoms: O_5  and  C_6
REMARK    4  A    between atoms: C_12  and  C_13
REMARK    5  A    between atoms: C_13  and  C_14
REMARK    6  A    between atoms: C_17  and  N_18
REMARK    7  A    between atoms: C_26  and  O_27
REMARK                            x       y       z     vdW  Elec       q    Type
REMARK                         _______ _______ _______ _____ _____    ______ ____
ROOT
ATOM      1  C   UNL     1       1.960   8.462  18.427  0.00  0.00    +0.000 A 
ATOM      2  C   UNL     1       1.273   9.508  17.796  0.00  0.00    +0.000 A 
ATOM      3  C   UNL     1       0.353  10.293  18.508  0.00  0.00    +0.000 A 
ATOM      4  C   UNL     1       0.095  10.021  19.853  0.00  0.00    +0.000 A 
ATOM      5  C   UNL     1       0.753   8.956  20.471  0.00  0.00    +0.000 A 
ATOM      6  C   UNL     1       1.664   8.172  19.771  0.00  0.00    +0.000 A 
ENDROOT
BRANCH   4   7
ATOM      7  N   UNL     1      -0.737  10.859  20.669  0.00  0.00    +0.000 N 
ATOM      8  C   UNL     1      -1.886  11.548  20.072  0.00  0.00    +0.000 C 
ATOM      9  C   UNL     1      -1.821  12.975  20.560  0.00  0.00    +0.000 C 
ATOM     10  O   UNL     1      -2.513  13.866  20.068  0.00  0.00    +0.000 OA
ATOM     11  C   UNL     1      -0.943  13.227  21.737  0.00  0.00    +0.000 C 
ATOM     12  S   UNL     1       0.039  11.767  21.871  0.00  0.00    +0.000 S 
ATOM     13  O   UNL     1      -0.255  11.114  23.126  0.00  0.00    +0.000 OA
ATOM     14  O   UNL     1       1.387  12.086  21.458  0.00  0.00    +0.000 OA
ENDBRANCH   4   7
BRANCH   5  15
ATOM     15  O   UNL     1       0.525   8.654  21.786  0.00  0.00    +0.000 OA
ATOM     16  H   UNL     1       1.045   7.852  21.983  0.00  0.00    +0.000 HD
ENDBRANCH   5  15
BRANCH   1  17
ATOM     17  C   UNL     1       3.016   7.654  17.698  0.00  0.00    +0.000 C 
BRANCH  17  24
ATOM     18  C   UNL     1       5.120   6.126  17.871  0.00  0.00    +0.000 C 
ATOM     19  C   UNL     1       4.746   5.385  16.564  0.00  0.00    +0.000 C 
ATOM     20 CL   UNL     1       6.091   5.182  15.417  0.00  0.00    +0.000 Cl
ATOM     21  C   UNL     1       4.015   4.085  16.897  0.00  0.00    +0.000 C 
ATOM     22  C   UNL     1       2.709   4.412  17.631  0.00  0.00    +0.000 C 
ATOM     23  C   UNL     1       2.905   5.333  18.841  0.00  0.00    +0.000 C 
ATOM     24  C   UNL     1       3.774   6.582  18.547  0.00  0.00    +0.000 C 
BRANCH  18  25
ATOM     25  O   UNL     1       5.808   5.277  18.825  0.00  0.00    +0.000 OA
BRANCH  25  27
ATOM     26  C   UNL     1       7.736   6.928  18.246  0.00  0.00    +0.000 C 
ATOM     27  S   UNL     1       7.440   5.330  18.958  0.00  0.00    +0.000 S 
ATOM     28  O   UNL     1       8.010   4.322  18.090  0.00  0.00    +0.000 OA
ATOM     29  O   UNL     1       7.807   5.467  20.351  0.00  0.00    +0.000 OA
ENDBRANCH  25  27
ENDBRANCH  18  25
ENDBRANCH  17  24
ENDBRANCH   1  17
TORSDOF 6
ENDMDL
MODEL 4
REMARK VINA RESULT:      -7.8      1.012      1.127
REMARK  Name = 
REMARK  7 active torsions:
REMARK  status: ('A' for Active; 'I' for Inactive)
REMARK    1  A    between atoms: C_1  and  S_2
REMARK    2  A    between atoms: S_2  and  O_5
REMARK    3  A    between atoms: O_5  and  C_6
REMARK    4  A    between atoms: C_12  and  C_13
REMARK    5  A    between atoms: C_13  and  C_14
REMARK    6  A    between atoms: C_17  and  N_18
REMARK    7  A    between atoms: C_26  and  O_27
REMARK                            x       y       z     vdW  Elec       q    Type
REMARK                         _______ _______ _______ _____ _____    ______ ____
ROOT
ATOM      1  C   UNL     1       1.913   8.545  18.626  0.00  0.00    +0.000 A 
ATOM      2  C   UNL     1       1.409   8.334  19.917  0.00  0.00    +0.000 A 
ATOM      3  C   UNL     1       0.759   9.366  20.610  0.00  0.00    +0.000 A 
ATOM      4  C   UNL     1       0.630  10.628  20.025  0.00  0.00    +0.000 A 
ATOM      5  C   UNL     1       1.164  10.847  18.753  0.00  0.00    +0.000 A 
ATOM      6  C   UNL     1       1.811   9.828  18.062  0.00  0.00    +0.000 A 
ENDROOT
BRANCH   4   7
ATOM      7  N   UNL     1      -0.130  11.688  20.625  0.00  0.00    +0.000 N 
ATOM      8  C   UNL     1      -0.338  11.704  22.076  0.00  0.00    +0.000 C 
ATOM      9  C   UNL     1      -1.807  11.986  22.288  0.00  0.00    +0.000 C 
ATOM     10  O   UNL     1      -2.347  11.847  23.384  0.00  0.00    +0.000 OA
ATOM     11  C   UNL     1      -2.545  12.536  21.116  0.00  0.00    +0.000 C 
ATOM     12  S   UNL     1      -1.463  12.262  19.750  0.00  0.00    +0.000 S 
ATOM     13  O   UNL     1      -1.066  13.538  19.199  0.00  0.00    +0.000 OA
ATOM     14  O   UNL     1      -2.016  11.202  18.936  0.00  0.00    +0.000 OA
ENDBRANCH   4   7
BRANCH   5  15
ATOM     15  O   UNL     1       1.061  12.070  18.147  0.00  0.00    +0.000 OA
ATOM     16  H   UNL     1       0.148  12.381  18.302  0.00  0.00    +0.000 HD
ENDBRANCH   5  15
BRANCH   1  17
ATOM     17  C   UNL     1       2.547   7.421  17.829  0.00  0.00    +0.000 C 
BRANCH  17  24
ATOM     18  C   UNL     1       4.839   6.184  17.892  0.00  0.00    +0.000 C 
ATOM     19  C   UNL     1       4.516   5.423  16.582  0.00  0.00    +0.000 C 
ATOM     20 CL   UNL     1       5.832   5.421  15.385  0.00  0.00    +0.000 Cl
ATOM     21  C   UNL     1       3.977   4.032  16.911  0.00  0.00    +0.000 C 
ATOM     22  C   UNL     1       2.668   4.169  17.698  0.00  0.00    +0.000 C 
ATOM     23  C   UNL     1       2.786   5.086  18.922  0.00  0.00    +0.000 C 
ATOM     24  C   UNL     1       3.472   6.445  18.626  0.00  0.00    +0.000 C 
BRANCH  18  25
ATOM     25  O   UNL     1       5.668   5.416  18.802  0.00  0.00    +0.000 OA
BRANCH  25  27
ATOM     26  C   UNL     1       7.874   4.435  17.826  0.00  0.00    +0.000 C 
ATOM     27  S   UNL     1       7.278   5.710  18.906  0.00  0.00    +0.000 S 
ATOM     28  O   UNL     1       7.716   5.419  20.254  0.00  0.00    +0.000 OA
ATOM     29  O   UNL     1       7.587   6.950  18.228  0.00  0.00    +0.000 OA
ENDBRANCH  25  27
ENDBRANCH  18  25
ENDBRANCH  17  24
ENDBRANCH   1  17
TORSDOF 6
ENDMDL
MODEL 5
REMARK VINA RESULT:      -7.6      1.483      1.998
REMARK  Name = 
REMARK  7 active torsions:
REMARK  status: ('A' for Active; 'I' for Inactive)
REMARK    1  A    between atoms: C_1  and  S_2
REMARK    2  A    between atoms: S_2  and  O_5
REMARK    3  A    between atoms: O_5  and  C_6
REMARK    4  A    between atoms: C_12  and  C_13
REMARK    5  A    between atoms: C_13  and  C_14
REMARK    6  A    between atoms: C_17  and  N_18
REMARK    7  A    between atoms: C_26  and  O_27
REMARK                            x       y       z     vdW  Elec       q    Type
REMARK                         _______ _______ _______ _____ _____    ______ ____
ROOT
ATOM      1  C   UNL     1       1.987   7.904  18.528  0.00  0.00    +0.000 A 
ATOM      2  C   UNL     1       1.496   8.982  17.780  0.00  0.00    +0.000 A 
ATOM      3  C   UNL     1       0.970  10.116  18.416  0.00  0.00    +0.000 A 
ATOM      4  C   UNL     1       0.907  10.169  19.811  0.00  0.00    +0.000 A 
ATOM      5  C   UNL     1       1.363   9.079  20.555  0.00  0.00    +0.000 A 
ATOM      6  C   UNL     1       1.884   7.952  19.930  0.00  0.00    +0.000 A 
ENDROOT
BRANCH   4   7
ATOM      7  N   UNL     1       0.497  11.345  20.525  0.00  0.00    +0.000 N 
ATOM      8  C   UNL     1      -0.928  11.593  20.763  0.00  0.00    +0.000 C 
ATOM      9  C   UNL     1      -1.170  13.039  20.401  0.00  0.00    +0.000 C 
ATOM     10  O   UNL     1      -2.304  13.501  20.279  0.00  0.00    +0.000 OA
ATOM     11  C   UNL     1       0.041  13.901  20.295  0.00  0.00    +0.000 C 
ATOM     12  S   UNL     1       1.386  12.760  20.240  0.00  0.00    +0.000 S 
ATOM     13  O   UNL     1       2.219  12.956  21.404  0.00  0.00    +0.000 OA
ATOM     14  O   UNL     1       1.918  12.748  18.896  0.00  0.00    +0.000 OA
ENDBRANCH   4   7
BRANCH   5  15
ATOM     15  O   UNL     1       1.315   9.092  21.923  0.00  0.00    +0.000 OA
ATOM     16  H   UNL     1       1.117   8.177  22.202  0.00  0.00    +0.000 HD
ENDBRANCH   5  15
BRANCH   1  17
ATOM     17  C   UNL     1       2.634   6.705  17.863  0.00  0.00    +0.000 C 
BRANCH  17  24
ATOM     18  C   UNL     1       4.937   5.486  17.881  0.00  0.00    +0.000 C 
ATOM     19  C   UNL     1       4.454   4.460  16.826  0.00  0.00    +0.000 C 
ATOM     20 CL   UNL     1       5.595   4.180  15.490  0.00  0.00    +0.000 Cl
ATOM     21  C   UNL     1       3.991   3.181  17.522  0.00  0.00    +0.000 C 
ATOM     22  C   UNL     1       2.798   3.502  18.431  0.00  0.00    +0.000 C 
ATOM     23  C   UNL     1       3.064   4.664  19.396  0.00  0.00    +0.000 C 
ATOM     24  C   UNL     1       3.677   5.917  18.719  0.00  0.00    +0.000 C 
BRANCH  18  25
ATOM     25  O   UNL     1       5.896   4.927  18.814  0.00  0.00    +0.000 OA
BRANCH  25  27
ATOM     26  C   UNL     1       7.394   6.819  17.836  0.00  0.00    +0.000 C 
ATOM     27  S   UNL     1       7.496   5.246  18.650  0.00  0.00    +0.000 S 
ATOM     28  O   UNL     1       8.070   4.284  17.735  0.00  0.00    +0.000 OA
ATOM     29  O   UNL     1       8.066   5.533  19.948  0.00  0.00    +0.000 OA
ENDBRANCH  25  27
ENDBRANCH  18  25
ENDBRANCH  17  24
ENDBRANCH   1  17
TORSDOF 6
ENDMDL
MODEL 6
REMARK VINA RESULT:      -7.6      1.017      1.117
REMARK  Name = 
REMARK  7 active torsions:
REMARK  status: ('A' for Active; 'I' for Inactive)
REMARK    1  A    between atoms: C_1  and  S_2
REMARK    2  A    between atoms: S_2  and  O_5
REMARK    3  A    between atoms: O_5  and  C_6
REMARK    4  A    between atoms: C_12  and  C_13
REMARK    5  A    between atoms: C_13  and  C_14
REMARK    6  A    between atoms: C_17  and  N_18
REMARK    7  A    between atoms: C_26  and  O_27
REMARK                            x       y       z     vdW  Elec       q    Type
REMARK                         _______ _______ _______ _____ _____    ______ ____
ROOT
ATOM      1  C   UNL     1       1.971   7.966  18.813  0.00  0.00    +0.000 A 
ATOM      2  C   UNL     1       1.368   8.238  20.048  0.00  0.00    +0.000 A 
ATOM      3  C   UNL     1       0.987   9.545  20.388  0.00  0.00    +0.000 A 
ATOM      4  C   UNL     1       1.231  10.597  19.501  0.00  0.00    +0.000 A 
ATOM      5  C   UNL     1       1.864  10.330  18.286  0.00  0.00    +0.000 A 
ATOM      6  C   UNL     1       2.246   9.037  17.944  0.00  0.00    +0.000 A 
ENDROOT
BRANCH   4   7
ATOM      7  N   UNL     1       0.757  11.932  19.732  0.00  0.00    +0.000 N 
ATOM      8  C   UNL     1       0.992  12.575  21.028  0.00  0.00    +0.000 C 
ATOM      9  C   UNL     1      -0.325  13.191  21.438  0.00  0.00    +0.000 C 
ATOM     10  O   UNL     1      -0.522  13.614  22.576  0.00  0.00    +0.000 OA
ATOM     11  C   UNL     1      -1.341  13.347  20.359  0.00  0.00    +0.000 C 
ATOM     12  S   UNL     1      -0.735  12.342  19.040  0.00  0.00    +0.000 S 
ATOM     13  O   UNL     1      -0.438  13.184  17.904  0.00  0.00    +0.000 OA
ATOM     14  O   UNL     1      -1.575  11.169  18.940  0.00  0.00    +0.000 OA
ENDBRANCH   4   7
BRANCH   5  15
ATOM     15  O   UNL     1       2.123  11.333  17.392  0.00  0.00    +0.000 OA
ATOM     16  H   UNL     1       3.060  11.582  17.516  0.00  0.00    +0.000 HD
ENDBRANCH   5  15
BRANCH   1  17
ATOM     17  C   UNL     1       2.317   6.550  18.394  0.00  0.00    +0.000 C 
BRANCH  17  24
ATOM     18  C   UNL     1       4.668   5.437  18.256  0.00  0.00    +0.000 C 
ATOM     19  C   UNL     1       4.141   4.335  17.304  0.00  0.00    +0.000 C 
ATOM     20 CL   UNL     1       5.167   4.033  15.881  0.00  0.00    +0.000 Cl
ATOM     21  C   UNL     1       3.807   3.077  18.103  0.00  0.00    +0.000 C 
ATOM     22  C   UNL     1       2.689   3.394  19.104  0.00  0.00    +0.000 C 
ATOM     23  C   UNL     1       2.986   4.617  19.980  0.00  0.00    +0.000 C 
ATOM     24  C   UNL     1       3.471   5.857  19.187  0.00  0.00    +0.000 C 
BRANCH  18  25
ATOM     25  O   UNL     1       5.736   4.972  19.121  0.00  0.00    +0.000 OA
BRANCH  25  27
ATOM     26  C   UNL     1       7.891   4.464  17.751  0.00  0.00    +0.000 C 
ATOM     27  S   UNL     1       7.251   5.581  18.971  0.00  0.00    +0.000 S 
ATOM     28  O   UNL     1       7.961   5.371  20.213  0.00  0.00    +0.000 OA
ATOM     29  O   UNL     1       7.190   6.865  18.307  0.00  0.00    +0.000 OA
ENDBRANCH  25  27
ENDBRANCH  18  25
ENDBRANCH  17  24
ENDBRANCH   1  17
TORSDOF 6
ENDMDL
MODEL 7
REMARK VINA RESULT:      -7.6      2.196      3.275
REMARK  Name = 
REMARK  7 active torsions:
REMARK  status: ('A' for Active; 'I' for Inactive)
REMARK    1  A    between atoms: C_1  and  S_2
REMARK    2  A    between atoms: S_2  and  O_5
REMARK    3  A    between atoms: O_5  and  C_6
REMARK    4  A    between atoms: C_12  and  C_13
REMARK    5  A    between atoms: C_13  and  C_14
REMARK    6  A    between atoms: C_17  and  N_18
REMARK    7  A    between atoms: C_26  and  O_27
REMARK                            x       y       z     vdW  Elec       q    Type
REMARK                         _______ _______ _______ _____ _____    ______ ____
ROOT
ATOM      1  C   UNL     1       3.108   7.632  18.091  0.00  0.00    +0.000 A 
ATOM      2  C   UNL     1       2.627   7.109  19.299  0.00  0.00    +0.000 A 
ATOM      3  C   UNL     1       1.642   7.787  20.032  0.00  0.00    +0.000 A 
ATOM      4  C   UNL     1       1.148   9.011  19.574  0.00  0.00    +0.000 A 
ATOM      5  C   UNL     1       1.653   9.549  18.388  0.00  0.00    +0.000 A 
ATOM      6  C   UNL     1       2.631   8.882  17.658  0.00  0.00    +0.000 A 
ENDROOT
BRANCH   4   7
ATOM      7  N   UNL     1       0.056   9.693  20.208  0.00  0.00    +0.000 N 
ATOM      8  C   UNL     1      -1.157   9.999  19.443  0.00  0.00    +0.000 C 
ATOM      9  C   UNL     1      -1.493  11.440  19.743  0.00  0.00    +0.000 C 
ATOM     10  O   UNL     1      -2.325  12.066  19.088  0.00  0.00    +0.000 OA
ATOM     11  C   UNL     1      -0.830  12.033  20.939  0.00  0.00    +0.000 C 
ATOM     12  S   UNL     1       0.458  10.894  21.335  0.00  0.00    +0.000 S 
ATOM     13  O   UNL     1       0.202  10.327  22.640  0.00  0.00    +0.000 OA
ATOM     14  O   UNL     1       1.724  11.498  20.985  0.00  0.00    +0.000 OA
ENDBRANCH   4   7
BRANCH   5  15
ATOM     15  O   UNL     1       1.197  10.746  17.908  0.00  0.00    +0.000 OA
ATOM     16  H   UNL     1       1.979  11.326  17.817  0.00  0.00    +0.000 HD
ENDBRANCH   5  15
BRANCH   1  17
ATOM     17  C   UNL     1       4.112   6.876  17.243  0.00  0.00    +0.000 C 
BRANCH  17  24
ATOM     18  C   UNL     1       5.327   5.086  18.695  0.00  0.00    +0.000 C 
ATOM     19  C   UNL     1       6.711   5.513  18.146  0.00  0.00    +0.000 C 
ATOM     20 CL   UNL     1       7.966   5.729  19.390  0.00  0.00    +0.000 Cl
ATOM     21  C   UNL     1       7.124   4.586  17.005  0.00  0.00    +0.000 C 
ATOM     22  C   UNL     1       6.115   4.714  15.857  0.00  0.00    +0.000 C 
ATOM     23  C   UNL     1       4.660   4.527  16.303  0.00  0.00    +0.000 C 
ATOM     24  C   UNL     1       4.274   5.353  17.557  0.00  0.00    +0.000 C 
BRANCH  18  25
ATOM     25  O   UNL     1       5.258   3.672  19.013  0.00  0.00    +0.000 OA
BRANCH  25  27
ATOM     26  C   UNL     1       3.190   2.105  18.804  0.00  0.00    +0.000 C 
ATOM     27  S   UNL     1       4.069   3.096  19.983  0.00  0.00    +0.000 S 
ATOM     28  O   UNL     1       3.224   4.199  20.386  0.00  0.00    +0.000 OA
ATOM     29  O   UNL     1       4.630   2.151  20.923  0.00  0.00    +0.000 OA
ENDBRANCH  25  27
ENDBRANCH  18  25
ENDBRANCH  17  24
ENDBRANCH   1  17
TORSDOF 6
ENDMDL
MODEL 8
REMARK VINA RESULT:      -7.5      1.211      1.551
REMARK  Name = 
REMARK  7 active torsions:
REMARK  status: ('A' for Active; 'I' for Inactive)
REMARK    1  A    between atoms: C_1  and  S_2
REMARK    2  A    between atoms: S_2  and  O_5
REMARK    3  A    between atoms: O_5  and  C_6
REMARK    4  A    between atoms: C_12  and  C_13
REMARK    5  A    between atoms: C_13  and  C_14
REMARK    6  A    between atoms: C_17  and  N_18
REMARK    7  A    between atoms: C_26  and  O_27
REMARK                            x       y       z     vdW  Elec       q    Type
REMARK                         _______ _______ _______ _____ _____    ______ ____
ROOT
ATOM      1  C   UNL     1       2.064   7.804  18.594  0.00  0.00    +0.000 A 
ATOM      2  C   UNL     1       2.041   7.882  19.993  0.00  0.00    +0.000 A 
ATOM      3  C   UNL     1       1.381   8.937  20.642  0.00  0.00    +0.000 A 
ATOM      4  C   UNL     1       0.759   9.939  19.892  0.00  0.00    +0.000 A 
ATOM      5  C   UNL     1       0.814   9.879  18.498  0.00  0.00    +0.000 A 
ATOM      6  C   UNL     1       1.468   8.837  17.850  0.00  0.00    +0.000 A 
ENDROOT
BRANCH   4   7
ATOM      7  N   UNL     1      -0.035  10.974  20.489  0.00  0.00    +0.000 N 
ATOM      8  C   UNL     1      -1.496  10.935  20.367  0.00  0.00    +0.000 C 
ATOM      9  C   UNL     1      -1.923  12.326  19.965  0.00  0.00    +0.000 C 
ATOM     10  O   UNL     1      -3.061  12.571  19.568  0.00  0.00    +0.000 OA
ATOM     11  C   UNL     1      -0.917  13.406  20.169  0.00  0.00    +0.000 C 
ATOM     12  S   UNL     1       0.599  12.545  20.443  0.00  0.00    +0.000 S 
ATOM     13  O   UNL     1       1.069  12.831  21.780  0.00  0.00    +0.000 OA
ATOM     14  O   UNL     1       1.434  12.709  19.274  0.00  0.00    +0.000 OA
ENDBRANCH   4   7
BRANCH   5  15
ATOM     15  O   UNL     1       0.221  10.843  17.729  0.00  0.00    +0.000 OA
ATOM     16  H   UNL     1       0.408  11.699  18.161  0.00  0.00    +0.000 HD
ENDBRANCH   5  15
BRANCH   1  17
ATOM     17  C   UNL     1       2.701   6.630  17.876  0.00  0.00    +0.000 C 
BRANCH  17  24
ATOM     18  C   UNL     1       4.984   5.380  17.764  0.00  0.00    +0.000 C 
ATOM     19  C   UNL     1       4.423   4.350  16.753  0.00  0.00    +0.000 C 
ATOM     20 CL   UNL     1       5.474   4.041  15.351  0.00  0.00    +0.000 Cl
ATOM     21  C   UNL     1       3.987   3.085  17.491  0.00  0.00    +0.000 C 
ATOM     22  C   UNL     1       2.859   3.432  18.469  0.00  0.00    +0.000 C 
ATOM     23  C   UNL     1       3.200   4.600  19.402  0.00  0.00    +0.000 C 
ATOM     24  C   UNL     1       3.785   5.837  18.675  0.00  0.00    +0.000 C 
BRANCH  18  25
ATOM     25  O   UNL     1       5.993   4.817  18.641  0.00  0.00    +0.000 OA
BRANCH  25  27
ATOM     26  C   UNL     1       7.424   6.785  17.714  0.00  0.00    +0.000 C 
ATOM     27  S   UNL     1       7.579   5.161  18.410  0.00  0.00    +0.000 S 
ATOM     28  O   UNL     1       8.105   4.270  17.399  0.00  0.00    +0.000 OA
ATOM     29  O   UNL     1       8.221   5.363  19.691  0.00  0.00    +0.000 OA
ENDBRANCH  25  27
ENDBRANCH  18  25
ENDBRANCH  17  24
ENDBRANCH   1  17
TORSDOF 6
ENDMDL
MODEL 9
REMARK VINA RESULT:      -7.5      1.602      2.170
REMARK  Name = 
REMARK  7 active torsions:
REMARK  status: ('A' for Active; 'I' for Inactive)
REMARK    1  A    between atoms: C_1  and  S_2
REMARK    2  A    between atoms: S_2  and  O_5
REMARK    3  A    between atoms: O_5  and  C_6
REMARK    4  A    between atoms: C_12  and  C_13
REMARK    5  A    between atoms: C_13  and  C_14
REMARK    6  A    between atoms: C_17  and  N_18
REMARK    7  A    between atoms: C_26  and  O_27
REMARK                            x       y       z     vdW  Elec       q    Type
REMARK                         _______ _______ _______ _____ _____    ______ ____
ROOT
ATOM      1  C   UNL     1       2.034   8.818  18.313  0.00  0.00    +0.000 A 
ATOM      2  C   UNL     1       1.189   8.697  19.426  0.00  0.00    +0.000 A 
ATOM      3  C   UNL     1       0.568   9.826  19.980  0.00  0.00    +0.000 A 
ATOM      4  C   UNL     1       0.808  11.092  19.439  0.00  0.00    +0.000 A 
ATOM      5  C   UNL     1       1.677  11.215  18.354  0.00  0.00    +0.000 A 
ATOM      6  C   UNL     1       2.297  10.100  17.801  0.00  0.00    +0.000 A 
ENDROOT
BRANCH   4   7
ATOM      7  N   UNL     1       0.111  12.268  19.878  0.00  0.00    +0.000 N 
ATOM      8  C   UNL     1      -0.553  13.131  18.896  0.00  0.00    +0.000 C 
ATOM      9  C   UNL     1      -0.158  14.546  19.244  0.00  0.00    +0.000 C 
ATOM     10  O   UNL     1      -0.368  15.489  18.482  0.00  0.00    +0.000 OA
ATOM     11  C   UNL     1       0.415  14.752  20.604  0.00  0.00    +0.000 C 
ATOM     12  S   UNL     1       0.798  13.125  21.168  0.00  0.00    +0.000 S 
ATOM     13  O   UNL     1      -0.010  12.826  22.329  0.00  0.00    +0.000 OA
ATOM     14  O   UNL     1       2.235  12.966  21.160  0.00  0.00    +0.000 OA
ENDBRANCH   4   7
BRANCH   5  15
ATOM     15  O   UNL     1       1.940  12.438  17.798  0.00  0.00    +0.000 OA
ATOM     16  H   UNL     1       1.077  12.874  17.663  0.00  0.00    +0.000 HD
ENDBRANCH   5  15
BRANCH   1  17
ATOM     17  C   UNL     1       2.650   7.602  17.650  0.00  0.00    +0.000 C 
BRANCH  17  24
ATOM     18  C   UNL     1       4.789   6.137  17.908  0.00  0.00    +0.000 C 
ATOM     19  C   UNL     1       4.384   5.251  16.704  0.00  0.00    +0.000 C 
ATOM     20 CL   UNL     1       5.690   4.944  15.536  0.00  0.00    +0.000 Cl
ATOM     21  C   UNL     1       3.692   3.984  17.205  0.00  0.00    +0.000 C 
ATOM     22  C   UNL     1       2.407   4.367  17.948  0.00  0.00    +0.000 C 
ATOM     23  C   UNL     1       2.628   5.419  19.042  0.00  0.00    +0.000 C 
ATOM     24  C   UNL     1       3.460   6.642  18.581  0.00  0.00    +0.000 C 
BRANCH  18  25
ATOM     25  O   UNL     1       5.528   5.409  18.922  0.00  0.00    +0.000 OA
BRANCH  25  27
ATOM     26  C   UNL     1       7.463   6.931  18.075  0.00  0.00    +0.000 C 
ATOM     27  S   UNL     1       7.167   5.389  18.901  0.00  0.00    +0.000 S 
ATOM     28  O   UNL     1       7.608   4.310  18.044  0.00  0.00    +0.000 OA
ATOM     29  O   UNL     1       7.669   5.582  20.244  0.00  0.00    +0.000 OA
ENDBRANCH  25  27
ENDBRANCH  18  25
ENDBRANCH  17  24
ENDBRANCH   1  17
TORSDOF 6
ENDMDL
