MODEL 1
REMARK VINA RESULT:      -7.6      0.000      0.000
REMARK  Name = 
REMARK  2 active torsions:
REMARK  status: ('A' for Active; 'I' for Inactive)
REMARK    1  A    between atoms: C_11  and  C_12
REMARK    2  A    between atoms: N_18  and  C_19
REMARK                            x       y       z     vdW  Elec       q    Type
REMARK                         _______ _______ _______ _____ _____    ______ ____
ROOT
ATOM      1  O   UNL     1       1.595   5.581  20.073  0.00  0.00    +0.000 OA
ATOM      2  C   UNL     1       2.265   6.183  19.234  0.00  0.00    +0.000 A 
ATOM      3  C   UNL     1       2.023   7.620  19.061  0.00  0.00    +0.000 A 
ATOM      4  C   UNL     1       1.034   8.273  19.810  0.00  0.00    +0.000 A 
ATOM      5  C   UNL     1       0.824   9.631  19.609  0.00  0.00    +0.000 A 
ATOM      6 CL   UNL     1      -0.403  10.445  20.498  0.00  0.00    +0.000 Cl
ATOM      7  C   UNL     1       1.599  10.333  18.687  0.00  0.00    +0.000 A 
ATOM      8  C   UNL     1       2.581   9.662  17.950  0.00  0.00    +0.000 A 
ATOM      9  C   UNL     1       2.796   8.291  18.125  0.00  0.00    +0.000 A 
ATOM     10  N   UNL     1       3.768   7.650  17.351  0.00  0.00    +0.000 NA
ATOM     11  C   UNL     1       3.972   6.369  17.484  0.00  0.00    +0.000 A 
ATOM     12  N   UNL     1       3.231   5.603  18.403  0.00  0.00    +0.000 N 
ENDROOT
BRANCH  12  13
ATOM     13  C   UNL     1       3.331   4.192  18.518  0.00  0.00    +0.000 A 
ATOM     14  C   UNL     1       2.654   3.355  17.626  0.00  0.00    +0.000 A 
ATOM     15  C   UNL     1       2.734   1.969  17.784  0.00  0.00    +0.000 A 
ATOM     16  C   UNL     1       3.510   1.425  18.811  0.00  0.00    +0.000 A 
ATOM     17  C   UNL     1       4.176   2.265  19.699  0.00  0.00    +0.000 A 
ATOM     18 CL   UNL     1       5.188   1.598  20.920  0.00  0.00    +0.000 Cl
ATOM     19  C   UNL     1       4.061   3.647  19.584  0.00  0.00    +0.000 A 
ENDBRANCH  12  13
BRANCH  11  20
ATOM     20  C   UNL     1       5.054   5.768  16.607  0.00  0.00    +0.000 A 
ATOM     21  C   UNL     1       4.876   5.404  15.268  0.00  0.00    +0.000 A 
ATOM     22  C   UNL     1       5.910   4.836  14.517  0.00  0.00    +0.000 A 
ATOM     23  C   UNL     1       7.133   4.557  15.121  0.00  0.00    +0.000 A 
ATOM     24  C   UNL     1       7.314   4.849  16.467  0.00  0.00    +0.000 A 
ATOM     25  C   UNL     1       6.289   5.458  17.202  0.00  0.00    +0.000 A 
ENDBRANCH  11  20
TORSDOF 2
ENDMDL
MODEL 2
REMARK VINA RESULT:      -7.6      2.346      4.418
REMARK  Name = 
REMARK  2 active torsions:
REMARK  status: ('A' for Active; 'I' for Inactive)
REMARK    1  A    between atoms: C_11  and  C_12
REMARK    2  A    between atoms: N_18  and  C_19
REMARK                            x       y       z     vdW  Elec       q    Type
REMARK                         _______ _______ _______ _____ _____    ______ ____
ROOT
ATOM      1  O   UNL     1       3.259   8.266  17.101  0.00  0.00    +0.000 OA
ATOM      2  C   UNL     1       2.639   7.971  18.124  0.00  0.00    +0.000 A 
ATOM      3  C   UNL     1       1.886   9.031  18.804  0.00  0.00    +0.000 A 
ATOM      4  C   UNL     1       1.903  10.345  18.316  0.00  0.00    +0.000 A 
ATOM      5  C   UNL     1       1.191  11.324  18.994  0.00  0.00    +0.000 A 
ATOM      6 CL   UNL     1       1.221  12.948  18.428  0.00  0.00    +0.000 Cl
ATOM      7  C   UNL     1       0.456  10.997  20.133  0.00  0.00    +0.000 A 
ATOM      8  C   UNL     1       0.451   9.679  20.603  0.00  0.00    +0.000 A 
ATOM      9  C   UNL     1       1.178   8.681  19.944  0.00  0.00    +0.000 A 
ATOM     10  N   UNL     1       1.172   7.382  20.459  0.00  0.00    +0.000 NA
ATOM     11  C   UNL     1       1.856   6.441  19.872  0.00  0.00    +0.000 A 
ATOM     12  N   UNL     1       2.611   6.701  18.713  0.00  0.00    +0.000 N 
ENDROOT
BRANCH  12  13
ATOM     13  C   UNL     1       3.460   5.748  18.092  0.00  0.00    +0.000 A 
ATOM     14  C   UNL     1       2.922   4.696  17.343  0.00  0.00    +0.000 A 
ATOM     15  C   UNL     1       3.774   3.747  16.774  0.00  0.00    +0.000 A 
ATOM     16  C   UNL     1       5.158   3.865  16.931  0.00  0.00    +0.000 A 
ATOM     17  C   UNL     1       5.686   4.912  17.684  0.00  0.00    +0.000 A 
ATOM     18 CL   UNL     1       7.390   5.099  17.818  0.00  0.00    +0.000 Cl
ATOM     19  C   UNL     1       4.844   5.833  18.298  0.00  0.00    +0.000 A 
ENDBRANCH  12  13
BRANCH  11  20
ATOM     20  C   UNL     1       1.778   5.062  20.501  0.00  0.00    +0.000 A 
ATOM     21  C   UNL     1       2.693   4.565  21.434  0.00  0.00    +0.000 A 
ATOM     22  C   UNL     1       2.575   3.276  21.964  0.00  0.00    +0.000 A 
ATOM     23  C   UNL     1       1.567   2.429  21.511  0.00  0.00    +0.000 A 
ATOM     24  C   UNL     1       0.683   2.877  20.537  0.00  0.00    +0.000 A 
ATOM     25  C   UNL     1       0.780   4.184  20.042  0.00  0.00    +0.000 A 
ENDBRANCH  11  20
TORSDOF 2
ENDMDL
MODEL 3
REMARK VINA RESULT:      -7.3      1.242      1.529
REMARK  Name = 
REMARK  2 active torsions:
REMARK  status: ('A' for Active; 'I' for Inactive)
REMARK    1  A    between atoms: C_11  and  C_12
REMARK    2  A    between atoms: N_18  and  C_19
REMARK                            x       y       z     vdW  Elec       q    Type
REMARK                         _______ _______ _______ _____ _____    ______ ____
ROOT
ATOM      1  O   UNL     1       1.569   6.299  20.624  0.00  0.00    +0.000 OA
ATOM      2  C   UNL     1       2.152   6.808  19.667  0.00  0.00    +0.000 A 
ATOM      3  C   UNL     1       1.842   8.202  19.332  0.00  0.00    +0.000 A 
ATOM      4  C   UNL     1       0.885   8.917  20.066  0.00  0.00    +0.000 A 
ATOM      5  C   UNL     1       0.608  10.230  19.711  0.00  0.00    +0.000 A 
ATOM      6 CL   UNL     1      -0.583  11.116  20.581  0.00  0.00    +0.000 Cl
ATOM      7  C   UNL     1       1.286  10.830  18.651  0.00  0.00    +0.000 A 
ATOM      8  C   UNL     1       2.239  10.100  17.932  0.00  0.00    +0.000 A 
ATOM      9  C   UNL     1       2.520   8.769  18.263  0.00  0.00    +0.000 A 
ATOM     10  N   UNL     1       3.457   8.063  17.504  0.00  0.00    +0.000 NA
ATOM     11  C   UNL     1       3.720   6.817  17.783  0.00  0.00    +0.000 A 
ATOM     12  N   UNL     1       3.078   6.154  18.845  0.00  0.00    +0.000 N 
ENDROOT
BRANCH  12  13
ATOM     13  C   UNL     1       3.242   4.773  19.130  0.00  0.00    +0.000 A 
ATOM     14  C   UNL     1       4.443   4.293  19.661  0.00  0.00    +0.000 A 
ATOM     15  C   UNL     1       4.596   2.925  19.896  0.00  0.00    +0.000 A 
ATOM     16  C   UNL     1       3.544   2.046  19.627  0.00  0.00    +0.000 A 
ATOM     17  C   UNL     1       2.353   2.531  19.091  0.00  0.00    +0.000 A 
ATOM     18 CL   UNL     1       1.032   1.462  18.826  0.00  0.00    +0.000 Cl
ATOM     19  C   UNL     1       2.208   3.885  18.805  0.00  0.00    +0.000 A 
ENDBRANCH  12  13
BRANCH  11  20
ATOM     20  C   UNL     1       4.760   6.139  16.909  0.00  0.00    +0.000 A 
ATOM     21  C   UNL     1       4.488   5.088  16.027  0.00  0.00    +0.000 A 
ATOM     22  C   UNL     1       5.495   4.493  15.261  0.00  0.00    +0.000 A 
ATOM     23  C   UNL     1       6.818   4.899  15.418  0.00  0.00    +0.000 A 
ATOM     24  C   UNL     1       7.123   5.897  16.335  0.00  0.00    +0.000 A 
ATOM     25  C   UNL     1       6.104   6.519  17.067  0.00  0.00    +0.000 A 
ENDBRANCH  11  20
TORSDOF 2
ENDMDL
MODEL 4
REMARK VINA RESULT:      -6.9      2.669      6.610
REMARK  Name = 
REMARK  2 active torsions:
REMARK  status: ('A' for Active; 'I' for Inactive)
REMARK    1  A    between atoms: C_11  and  C_12
REMARK    2  A    between atoms: N_18  and  C_19
REMARK                            x       y       z     vdW  Elec       q    Type
REMARK                         _______ _______ _______ _____ _____    ______ ____
ROOT
ATOM      1  O   UNL     1       4.679   7.591  16.839  0.00  0.00    +0.000 OA
ATOM      2  C   UNL     1       4.500   6.385  17.015  0.00  0.00    +0.000 A 
ATOM      3  C   UNL     1       5.213   5.448  16.140  0.00  0.00    +0.000 A 
ATOM      4  C   UNL     1       6.047   5.919  15.116  0.00  0.00    +0.000 A 
ATOM      5  C   UNL     1       6.694   5.003  14.299  0.00  0.00    +0.000 A 
ATOM      6 CL   UNL     1       7.699   5.561  13.019  0.00  0.00    +0.000 Cl
ATOM      7  C   UNL     1       6.528   3.635  14.508  0.00  0.00    +0.000 A 
ATOM      8  C   UNL     1       5.693   3.184  15.536  0.00  0.00    +0.000 A 
ATOM      9  C   UNL     1       5.018   4.092  16.360  0.00  0.00    +0.000 A 
ATOM     10  N   UNL     1       4.170   3.605  17.358  0.00  0.00    +0.000 NA
ATOM     11  C   UNL     1       3.516   4.433  18.124  0.00  0.00    +0.000 A 
ATOM     12  N   UNL     1       3.645   5.826  17.972  0.00  0.00    +0.000 N 
ENDROOT
BRANCH  12  13
ATOM     13  C   UNL     1       2.882   6.775  18.701  0.00  0.00    +0.000 A 
ATOM     14  C   UNL     1       2.679   6.621  20.076  0.00  0.00    +0.000 A 
ATOM     15  C   UNL     1       1.891   7.546  20.766  0.00  0.00    +0.000 A 
ATOM     16  C   UNL     1       1.331   8.632  20.088  0.00  0.00    +0.000 A 
ATOM     17  C   UNL     1       1.531   8.774  18.717  0.00  0.00    +0.000 A 
ATOM     18 CL   UNL     1       0.903  10.148  17.894  0.00  0.00    +0.000 Cl
ATOM     19  C   UNL     1       2.272   7.831  18.010  0.00  0.00    +0.000 A 
ENDBRANCH  12  13
BRANCH  11  20
ATOM     20  C   UNL     1       2.629   3.808  19.185  0.00  0.00    +0.000 A 
ATOM     21  C   UNL     1       1.237   3.703  19.092  0.00  0.00    +0.000 A 
ATOM     22  C   UNL     1       0.474   3.131  20.114  0.00  0.00    +0.000 A 
ATOM     23  C   UNL     1       1.091   2.712  21.290  0.00  0.00    +0.000 A 
ATOM     24  C   UNL     1       2.465   2.864  21.433  0.00  0.00    +0.000 A 
ATOM     25  C   UNL     1       3.229   3.397  20.388  0.00  0.00    +0.000 A 
ENDBRANCH  11  20
TORSDOF 2
ENDMDL
MODEL 5
REMARK VINA RESULT:      -6.9      6.983      8.941
REMARK  Name = 
REMARK  2 active torsions:
REMARK  status: ('A' for Active; 'I' for Inactive)
REMARK    1  A    between atoms: C_11  and  C_12
REMARK    2  A    between atoms: N_18  and  C_19
REMARK                            x       y       z     vdW  Elec       q    Type
REMARK                         _______ _______ _______ _____ _____    ______ ____
ROOT
ATOM      1  O   UNL     1       1.527  13.624  21.957  0.00  0.00    +0.000 OA
ATOM      2  C   UNL     1       0.839  13.738  20.943  0.00  0.00    +0.000 A 
ATOM      3  C   UNL     1       0.872  15.019  20.227  0.00  0.00    +0.000 A 
ATOM      4  C   UNL     1       1.642  16.087  20.709  0.00  0.00    +0.000 A 
ATOM      5  C   UNL     1       1.638  17.288  20.014  0.00  0.00    +0.000 A 
ATOM      6 CL   UNL     1       2.554  18.619  20.603  0.00  0.00    +0.000 Cl
ATOM      7  C   UNL     1       0.891  17.420  18.844  0.00  0.00    +0.000 A 
ATOM      8  C   UNL     1       0.129  16.342  18.379  0.00  0.00    +0.000 A 
ATOM      9  C   UNL     1       0.107  15.128  19.076  0.00  0.00    +0.000 A 
ATOM     10  N   UNL     1      -0.688  14.083  18.596  0.00  0.00    +0.000 NA
ATOM     11  C   UNL     1      -0.739  12.950  19.240  0.00  0.00    +0.000 A 
ATOM     12  N   UNL     1      -0.002  12.748  20.421  0.00  0.00    +0.000 N 
ENDROOT
BRANCH  12  13
ATOM     13  C   UNL     1      -0.098  11.579  21.222  0.00  0.00    +0.000 A 
ATOM     14  C   UNL     1      -0.920  11.557  22.353  0.00  0.00    +0.000 A 
ATOM     15  C   UNL     1      -0.968  10.411  23.150  0.00  0.00    +0.000 A 
ATOM     16  C   UNL     1      -0.218   9.284  22.801  0.00  0.00    +0.000 A 
ATOM     17  C   UNL     1       0.604   9.317  21.677  0.00  0.00    +0.000 A 
ATOM     18 CL   UNL     1       1.473   7.909  21.208  0.00  0.00    +0.000 Cl
ATOM     19  C   UNL     1       0.700  10.471  20.906  0.00  0.00    +0.000 A 
ENDBRANCH  12  13
BRANCH  11  20
ATOM     20  C   UNL     1      -1.620  11.874  18.634  0.00  0.00    +0.000 A 
ATOM     21  C   UNL     1      -1.153  10.828  17.831  0.00  0.00    +0.000 A 
ATOM     22  C   UNL     1      -2.021   9.876  17.287  0.00  0.00    +0.000 A 
ATOM     23  C   UNL     1      -3.394   9.995  17.484  0.00  0.00    +0.000 A 
ATOM     24  C   UNL     1      -3.889  11.062  18.224  0.00  0.00    +0.000 A 
ATOM     25  C   UNL     1      -3.011  11.988  18.803  0.00  0.00    +0.000 A 
ENDBRANCH  11  20
TORSDOF 2
ENDMDL
MODEL 6
REMARK VINA RESULT:      -6.9      2.222      4.202
REMARK  Name = 
REMARK  2 active torsions:
REMARK  status: ('A' for Active; 'I' for Inactive)
REMARK    1  A    between atoms: C_11  and  C_12
REMARK    2  A    between atoms: N_18  and  C_19
REMARK                            x       y       z     vdW  Elec       q    Type
REMARK                         _______ _______ _______ _____ _____    ______ ____
ROOT
ATOM      1  O   UNL     1       3.280   8.128  16.961  0.00  0.00    +0.000 OA
ATOM      2  C   UNL     1       2.743   7.764  18.007  0.00  0.00    +0.000 A 
ATOM      3  C   UNL     1       1.973   8.754  18.769  0.00  0.00    +0.000 A 
ATOM      4  C   UNL     1       1.884  10.082  18.329  0.00  0.00    +0.000 A 
ATOM      5  C   UNL     1       1.159  10.994  19.083  0.00  0.00    +0.000 A 
ATOM      6 CL   UNL     1       1.061  12.635  18.575  0.00  0.00    +0.000 Cl
ATOM      7  C   UNL     1       0.517  10.587  20.251  0.00  0.00    +0.000 A 
ATOM      8  C   UNL     1       0.617   9.256  20.673  0.00  0.00    +0.000 A 
ATOM      9  C   UNL     1       1.357   8.326  19.935  0.00  0.00    +0.000 A 
ATOM     10  N   UNL     1       1.458   7.012  20.403  0.00  0.00    +0.000 NA
ATOM     11  C   UNL     1       2.159   6.133  19.743  0.00  0.00    +0.000 A 
ATOM     12  N   UNL     1       2.824   6.476  18.551  0.00  0.00    +0.000 N 
ENDROOT
BRANCH  12  13
ATOM     13  C   UNL     1       3.687   5.596  17.846  0.00  0.00    +0.000 A 
ATOM     14  C   UNL     1       3.165   4.539  17.093  0.00  0.00    +0.000 A 
ATOM     15  C   UNL     1       4.034   3.662  16.440  0.00  0.00    +0.000 A 
ATOM     16  C   UNL     1       5.415   3.857  16.518  0.00  0.00    +0.000 A 
ATOM     17  C   UNL     1       5.928   4.908  17.276  0.00  0.00    +0.000 A 
ATOM     18 CL   UNL     1       7.624   5.192  17.315  0.00  0.00    +0.000 Cl
ATOM     19  C   UNL     1       5.073   5.757  17.973  0.00  0.00    +0.000 A 
ENDBRANCH  12  13
BRANCH  11  20
ATOM     20  C   UNL     1       2.199   4.733  20.324  0.00  0.00    +0.000 A 
ATOM     21  C   UNL     1       1.083   4.052  20.825  0.00  0.00    +0.000 A 
ATOM     22  C   UNL     1       1.190   2.767  21.365  0.00  0.00    +0.000 A 
ATOM     23  C   UNL     1       2.438   2.162  21.478  0.00  0.00    +0.000 A 
ATOM     24  C   UNL     1       3.570   2.844  21.047  0.00  0.00    +0.000 A 
ATOM     25  C   UNL     1       3.452   4.112  20.467  0.00  0.00    +0.000 A 
ENDBRANCH  11  20
TORSDOF 2
ENDMDL
MODEL 7
REMARK VINA RESULT:      -6.7      7.728     10.104
REMARK  Name = 
REMARK  2 active torsions:
REMARK  status: ('A' for Active; 'I' for Inactive)
REMARK    1  A    between atoms: C_11  and  C_12
REMARK    2  A    between atoms: N_18  and  C_19
REMARK                            x       y       z     vdW  Elec       q    Type
REMARK                         _______ _______ _______ _____ _____    ______ ____
ROOT
ATOM      1  O   UNL     1      -2.976  13.460  21.974  0.00  0.00    +0.000 OA
ATOM      2  C   UNL     1      -3.697  12.900  21.148  0.00  0.00    +0.000 A 
ATOM      3  C   UNL     1      -5.140  12.853  21.411  0.00  0.00    +0.000 A 
ATOM      4  C   UNL     1      -5.670  13.403  22.586  0.00  0.00    +0.000 A 
ATOM      5  C   UNL     1      -7.038  13.328  22.808  0.00  0.00    +0.000 A 
ATOM      6 CL   UNL     1      -7.705  13.972  24.257  0.00  0.00    +0.000 Cl
ATOM      7  C   UNL     1      -7.870  12.728  21.865  0.00  0.00    +0.000 A 
ATOM      8  C   UNL     1      -7.322  12.186  20.697  0.00  0.00    +0.000 A 
ATOM      9  C   UNL     1      -5.943  12.236  20.463  0.00  0.00    +0.000 A 
ATOM     10  N   UNL     1      -5.429  11.659  19.299  0.00  0.00    +0.000 NA
ATOM     11  C   UNL     1      -4.145  11.677  19.070  0.00  0.00    +0.000 A 
ATOM     12  N   UNL     1      -3.251  12.275  19.977  0.00  0.00    +0.000 N 
ENDROOT
BRANCH  12  13
ATOM     13  C   UNL     1      -1.838  12.234  19.837  0.00  0.00    +0.000 A 
ATOM     14  C   UNL     1      -1.182  13.119  18.977  0.00  0.00    +0.000 A 
ATOM     15  C   UNL     1       0.205  13.034  18.825  0.00  0.00    +0.000 A 
ATOM     16  C   UNL     1       0.931  12.086  19.550  0.00  0.00    +0.000 A 
ATOM     17  C   UNL     1       0.269  11.202  20.400  0.00  0.00    +0.000 A 
ATOM     18 CL   UNL     1       1.168  10.082  21.346  0.00  0.00    +0.000 Cl
ATOM     19  C   UNL     1      -1.117  11.244  20.519  0.00  0.00    +0.000 A 
ENDBRANCH  12  13
BRANCH  11  20
ATOM     20  C   UNL     1      -3.686  11.034  17.775  0.00  0.00    +0.000 A 
ATOM     21  C   UNL     1      -2.732  10.014  17.693  0.00  0.00    +0.000 A 
ATOM     22  C   UNL     1      -2.337   9.475  16.465  0.00  0.00    +0.000 A 
ATOM     23  C   UNL     1      -2.845  10.001  15.280  0.00  0.00    +0.000 A 
ATOM     24  C   UNL     1      -3.745  11.059  15.332  0.00  0.00    +0.000 A 
ATOM     25  C   UNL     1      -4.170  11.565  16.567  0.00  0.00    +0.000 A 
ENDBRANCH  11  20
TORSDOF 2
ENDMDL
MODEL 8
REMARK VINA RESULT:      -6.6      1.504      1.845
REMARK  Name = 
REMARK  2 active torsions:
REMARK  status: ('A' for Active; 'I' for Inactive)
REMARK    1  A    between atoms: C_11  and  C_12
REMARK    2  A    between atoms: N_18  and  C_19
REMARK                            x       y       z     vdW  Elec       q    Type
REMARK                         _______ _______ _______ _____ _____    ______ ____
ROOT
ATOM      1  O   UNL     1       1.008   7.014  21.276  0.00  0.00    +0.000 OA
ATOM      2  C   UNL     1       1.596   7.263  20.223  0.00  0.00    +0.000 A 
ATOM      3  C   UNL     1       1.517   8.631  19.697  0.00  0.00    +0.000 A 
ATOM      4  C   UNL     1       0.766   9.610  20.362  0.00  0.00    +0.000 A 
ATOM      5  C   UNL     1       0.703  10.889  19.826  0.00  0.00    +0.000 A 
ATOM      6 CL   UNL     1      -0.236  12.098  20.611  0.00  0.00    +0.000 Cl
ATOM      7  C   UNL     1       1.393  11.195  18.654  0.00  0.00    +0.000 A 
ATOM      8  C   UNL     1       2.138  10.204  18.007  0.00  0.00    +0.000 A 
ATOM      9  C   UNL     1       2.200   8.904  18.521  0.00  0.00    +0.000 A 
ATOM     10  N   UNL     1       2.932   7.933  17.831  0.00  0.00    +0.000 NA
ATOM     11  C   UNL     1       2.987   6.711  18.281  0.00  0.00    +0.000 A 
ATOM     12  N   UNL     1       2.321   6.338  19.464  0.00  0.00    +0.000 N 
ENDROOT
BRANCH  12  13
ATOM     13  C   UNL     1       2.255   5.004  19.947  0.00  0.00    +0.000 A 
ATOM     14  C   UNL     1       1.025   4.427  20.277  0.00  0.00    +0.000 A 
ATOM     15  C   UNL     1       0.988   3.127  20.789  0.00  0.00    +0.000 A 
ATOM     16  C   UNL     1       2.171   2.401  20.943  0.00  0.00    +0.000 A 
ATOM     17  C   UNL     1       3.393   2.986  20.618  0.00  0.00    +0.000 A 
ATOM     18 CL   UNL     1       4.844   2.069  20.739  0.00  0.00    +0.000 Cl
ATOM     19  C   UNL     1       3.447   4.297  20.157  0.00  0.00    +0.000 A 
ENDBRANCH  12  13
BRANCH  11  20
ATOM     20  C   UNL     1       3.814   5.733  17.469  0.00  0.00    +0.000 A 
ATOM     21  C   UNL     1       3.392   4.450  17.105  0.00  0.00    +0.000 A 
ATOM     22  C   UNL     1       4.211   3.588  16.369  0.00  0.00    +0.000 A 
ATOM     23  C   UNL     1       5.507   3.975  16.040  0.00  0.00    +0.000 A 
ATOM     24  C   UNL     1       5.973   5.219  16.445  0.00  0.00    +0.000 A 
ATOM     25  C   UNL     1       5.133   6.095  17.144  0.00  0.00    +0.000 A 
ENDBRANCH  11  20
TORSDOF 2
ENDMDL
MODEL 9
REMARK VINA RESULT:      -6.6      6.641      8.737
REMARK  Name = 
REMARK  2 active torsions:
REMARK  status: ('A' for Active; 'I' for Inactive)
REMARK    1  A    between atoms: C_11  and  C_12
REMARK    2  A    between atoms: N_18  and  C_19
REMARK                            x       y       z     vdW  Elec       q    Type
REMARK                         _______ _______ _______ _____ _____    ______ ____
ROOT
ATOM      1  O   UNL     1       2.342  12.931  21.562  0.00  0.00    +0.000 OA
ATOM      2  C   UNL     1       1.557  13.250  20.669  0.00  0.00    +0.000 A 
ATOM      3  C   UNL     1       1.765  14.536  19.994  0.00  0.00    +0.000 A 
ATOM      4  C   UNL     1       2.810  15.386  20.384  0.00  0.00    +0.000 A 
ATOM      5  C   UNL     1       2.967  16.602  19.733  0.00  0.00    +0.000 A 
ATOM      6 CL   UNL     1       4.225  17.671  20.214  0.00  0.00    +0.000 Cl
ATOM      7  C   UNL     1       2.107  16.960  18.696  0.00  0.00    +0.000 A 
ATOM      8  C   UNL     1       1.071  16.097  18.321  0.00  0.00    +0.000 A 
ATOM      9  C   UNL     1       0.885  14.875  18.977  0.00  0.00    +0.000 A 
ATOM     10  N   UNL     1      -0.178  14.051  18.594  0.00  0.00    +0.000 NA
ATOM     11  C   UNL     1      -0.381  12.918  19.204  0.00  0.00    +0.000 A 
ATOM     12  N   UNL     1       0.455  12.492  20.253  0.00  0.00    +0.000 N 
ENDROOT
BRANCH  12  13
ATOM     13  C   UNL     1       0.223  11.323  21.025  0.00  0.00    +0.000 A 
ATOM     14  C   UNL     1      -0.588  11.371  22.163  0.00  0.00    +0.000 A 
ATOM     15  C   UNL     1      -0.769  10.218  22.930  0.00  0.00    +0.000 A 
ATOM     16  C   UNL     1      -0.165   9.018  22.545  0.00  0.00    +0.000 A 
ATOM     17  C   UNL     1       0.648   8.981  21.414  0.00  0.00    +0.000 A 
ATOM     18 CL   UNL     1       1.335   7.490  20.899  0.00  0.00    +0.000 Cl
ATOM     19  C   UNL     1       0.878  10.135  20.672  0.00  0.00    +0.000 A 
ENDBRANCH  12  13
BRANCH  11  20
ATOM     20  C   UNL     1      -1.553  12.091  18.710  0.00  0.00    +0.000 A 
ATOM     21  C   UNL     1      -2.877  12.264  19.128  0.00  0.00    +0.000 A 
ATOM     22  C   UNL     1      -3.911  11.456  18.646  0.00  0.00    +0.000 A 
ATOM     23  C   UNL     1      -3.624  10.403  17.781  0.00  0.00    +0.000 A 
ATOM     24  C   UNL     1      -2.308  10.169  17.401  0.00  0.00    +0.000 A 
ATOM     25  C   UNL     1      -1.283  11.010  17.852  0.00  0.00    +0.000 A 
ENDBRANCH  11  20
TORSDOF 2
ENDMDL
