MODEL 1
REMARK VINA RESULT:      -8.3      0.000      0.000
REMARK  Name = 
REMARK  5 active torsions:
REMARK  status: ('A' for Active; 'I' for Inactive)
REMARK    1  A    between atoms: N_10  and  C_11
REMARK    2  A    between atoms: C_11  and  C_12
REMARK    3  A    between atoms: C_12  and  C_13
REMARK    4  A    between atoms: C_13  and  S_14
REMARK    5  A    between atoms: S_14  and  C_15
REMARK                            x       y       z     vdW  Elec       q    Type
REMARK                         _______ _______ _______ _____ _____    ______ ____
ROOT
ATOM      1  S   UNL     1       3.192   7.453  17.867  0.00  0.00    +0.000 S 
ENDROOT
BRANCH   1   2
ATOM      2  C   UNL     1       1.941   8.502  18.583  0.00  0.00    +0.000 A 
ATOM      3  N   UNL     1       1.386   9.511  17.857  0.00  0.00    +0.000 NA
ATOM      4  N   UNL     1       0.494  10.358  18.407  0.00  0.00    +0.000 NA
ATOM      5  C   UNL     1       0.206  10.153  19.719  0.00  0.00    +0.000 A 
ATOM      6  C   UNL     1       0.793   9.096  20.388  0.00  0.00    +0.000 A 
ATOM      7  N   UNL     1       1.667   8.218  19.874  0.00  0.00    +0.000 NA
ATOM      8  N   UNL     1       0.359   9.114  21.679  0.00  0.00    +0.000 N 
ATOM      9  C   UNL     1      -0.428  10.223  21.897  0.00  0.00    +0.000 A 
ATOM     10  C   UNL     1      -0.983  10.707  23.086  0.00  0.00    +0.000 A 
ATOM     11  C   UNL     1      -1.724  11.888  23.019  0.00  0.00    +0.000 A 
ATOM     12  C   UNL     1      -1.943  12.529  21.802  0.00  0.00    +0.000 A 
ATOM     13  C   UNL     1      -1.393  12.026  20.615  0.00  0.00    +0.000 A 
ATOM     14  C   UNL     1      -0.589  10.868  20.663  0.00  0.00    +0.000 A 
ATOM     15  H   UNL     1       0.641   8.444  22.378  0.00  0.00    +0.000 HD
ENDBRANCH   1   2
BRANCH   1  16
ATOM     16  C   UNL     1       2.781   5.813  18.549  0.00  0.00    +0.000 C 
BRANCH  16  17
ATOM     17  C   UNL     1       3.804   5.395  19.618  0.00  0.00    +0.000 C 
BRANCH  17  18
ATOM     18  C   UNL     1       4.667   4.196  19.208  0.00  0.00    +0.000 C 
BRANCH  18  28
ATOM     19  O   UNL     1       7.299   5.375  19.981  0.00  0.00    +0.000 OA
ATOM     20  C   UNL     1       6.979   5.143  18.825  0.00  0.00    +0.000 A 
ATOM     21  N   UNL     1       7.752   5.424  17.689  0.00  0.00    +0.000 N 
ATOM     22  C   UNL     1       7.050   5.032  16.555  0.00  0.00    +0.000 A 
ATOM     23  C   UNL     1       7.415   5.140  15.233  0.00  0.00    +0.000 A 
ATOM     24  C   UNL     1       6.502   4.670  14.287  0.00  0.00    +0.000 A 
ATOM     25  C   UNL     1       5.266   4.116  14.687  0.00  0.00    +0.000 A 
ATOM     26  C   UNL     1       4.915   4.023  16.042  0.00  0.00    +0.000 A 
ATOM     27  C   UNL     1       5.827   4.491  16.962  0.00  0.00    +0.000 A 
ATOM     28  N   UNL     1       5.779   4.564  18.364  0.00  0.00    +0.000 N 
ATOM     29  H   UNL     1       8.657   5.863  17.723  0.00  0.00    +0.000 HD
ENDBRANCH  18  28
ENDBRANCH  17  18
ENDBRANCH  16  17
ENDBRANCH   1  16
TORSDOF 5
ENDMDL
MODEL 2
REMARK VINA RESULT:      -8.3      1.344      2.233
REMARK  Name = 
REMARK  5 active torsions:
REMARK  status: ('A' for Active; 'I' for Inactive)
REMARK    1  A    between atoms: N_10  and  C_11
REMARK    2  A    between atoms: C_11  and  C_12
REMARK    3  A    between atoms: C_12  and  C_13
REMARK    4  A    between atoms: C_13  and  S_14
REMARK    5  A    between atoms: S_14  and  C_15
REMARK                            x       y       z     vdW  Elec       q    Type
REMARK                         _______ _______ _______ _____ _____    ______ ____
ROOT
ATOM      1  S   UNL     1       2.646   6.818  18.377  0.00  0.00    +0.000 S 
ENDROOT
BRANCH   1   2
ATOM      2  C   UNL     1       1.845   7.949  19.498  0.00  0.00    +0.000 A 
ATOM      3  N   UNL     1       1.714   7.638  20.817  0.00  0.00    +0.000 NA
ATOM      4  N   UNL     1       1.048   8.449  21.663  0.00  0.00    +0.000 NA
ATOM      5  C   UNL     1       0.507   9.568  21.115  0.00  0.00    +0.000 A 
ATOM      6  C   UNL     1       0.697   9.829  19.771  0.00  0.00    +0.000 A 
ATOM      7  N   UNL     1       1.371   9.063  18.901  0.00  0.00    +0.000 NA
ATOM      8  N   UNL     1       0.051  10.989  19.466  0.00  0.00    +0.000 N 
ATOM      9  C   UNL     1      -0.644  11.446  20.564  0.00  0.00    +0.000 A 
ATOM     10  C   UNL     1      -1.532  12.520  20.678  0.00  0.00    +0.000 A 
ATOM     11  C   UNL     1      -2.125  12.739  21.923  0.00  0.00    +0.000 A 
ATOM     12  C   UNL     1      -1.799  11.946  23.021  0.00  0.00    +0.000 A 
ATOM     13  C   UNL     1      -0.896  10.882  22.897  0.00  0.00    +0.000 A 
ATOM     14  C   UNL     1      -0.329  10.600  21.637  0.00  0.00    +0.000 A 
ATOM     15  H   UNL     1       0.036  11.401  18.545  0.00  0.00    +0.000 HD
ENDBRANCH   1   2
BRANCH   1  16
ATOM     16  C   UNL     1       1.897   5.216  18.819  0.00  0.00    +0.000 C 
BRANCH  16  17
ATOM     17  C   UNL     1       1.720   4.334  17.572  0.00  0.00    +0.000 C 
BRANCH  17  18
ATOM     18  C   UNL     1       2.651   3.115  17.543  0.00  0.00    +0.000 C 
BRANCH  18  28
ATOM     19  O   UNL     1       4.156   2.862  20.109  0.00  0.00    +0.000 OA
ATOM     20  C   UNL     1       4.643   3.318  19.086  0.00  0.00    +0.000 A 
ATOM     21  N   UNL     1       5.943   3.830  18.954  0.00  0.00    +0.000 N 
ATOM     22  C   UNL     1       6.125   4.269  17.648  0.00  0.00    +0.000 A 
ATOM     23  C   UNL     1       7.234   4.858  17.082  0.00  0.00    +0.000 A 
ATOM     24  C   UNL     1       7.139   5.214  15.735  0.00  0.00    +0.000 A 
ATOM     25  C   UNL     1       5.954   4.975  15.006  0.00  0.00    +0.000 A 
ATOM     26  C   UNL     1       4.836   4.377  15.608  0.00  0.00    +0.000 A 
ATOM     27  C   UNL     1       4.946   4.032  16.936  0.00  0.00    +0.000 A 
ATOM     28  N   UNL     1       4.027   3.451  17.825  0.00  0.00    +0.000 N 
ATOM     29  H   UNL     1       6.604   3.878  19.711  0.00  0.00    +0.000 HD
ENDBRANCH  18  28
ENDBRANCH  17  18
ENDBRANCH  16  17
ENDBRANCH   1  16
TORSDOF 5
ENDMDL
MODEL 3
REMARK VINA RESULT:      -8.1      0.559      1.540
REMARK  Name = 
REMARK  5 active torsions:
REMARK  status: ('A' for Active; 'I' for Inactive)
REMARK    1  A    between atoms: N_10  and  C_11
REMARK    2  A    between atoms: C_11  and  C_12
REMARK    3  A    between atoms: C_12  and  C_13
REMARK    4  A    between atoms: C_13  and  S_14
REMARK    5  A    between atoms: S_14  and  C_15
REMARK                            x       y       z     vdW  Elec       q    Type
REMARK                         _______ _______ _______ _____ _____    ______ ____
ROOT
ATOM      1  S   UNL     1       2.724   7.216  18.020  0.00  0.00    +0.000 S 
ENDROOT
BRANCH   1   2
ATOM      2  C   UNL     1       1.885   8.173  19.268  0.00  0.00    +0.000 A 
ATOM      3  N   UNL     1       1.790   7.711  20.546  0.00  0.00    +0.000 NA
ATOM      4  N   UNL     1       1.096   8.388  21.482  0.00  0.00    +0.000 NA
ATOM      5  C   UNL     1       0.490   9.531  21.067  0.00  0.00    +0.000 A 
ATOM      6  C   UNL     1       0.646   9.948  19.759  0.00  0.00    +0.000 A 
ATOM      7  N   UNL     1       1.345   9.319  18.802  0.00  0.00    +0.000 NA
ATOM      8  N   UNL     1      -0.062  11.099  19.591  0.00  0.00    +0.000 N 
ATOM      9  C   UNL     1      -0.763  11.394  20.739  0.00  0.00    +0.000 A 
ATOM     10  C   UNL     1      -1.703  12.402  20.980  0.00  0.00    +0.000 A 
ATOM     11  C   UNL     1      -2.287  12.450  22.248  0.00  0.00    +0.000 A 
ATOM     12  C   UNL     1      -1.905  11.559  23.248  0.00  0.00    +0.000 A 
ATOM     13  C   UNL     1      -0.950  10.564  22.998  0.00  0.00    +0.000 A 
ATOM     14  C   UNL     1      -0.389  10.453  21.708  0.00  0.00    +0.000 A 
ATOM     15  H   UNL     1      -0.113  11.608  18.721  0.00  0.00    +0.000 HD
ENDBRANCH   1   2
BRANCH   1  16
ATOM     16  C   UNL     1       2.618   5.518  18.676  0.00  0.00    +0.000 C 
BRANCH  16  17
ATOM     17  C   UNL     1       3.762   5.243  19.666  0.00  0.00    +0.000 C 
BRANCH  17  18
ATOM     18  C   UNL     1       4.679   4.089  19.242  0.00  0.00    +0.000 C 
BRANCH  18  28
ATOM     19  O   UNL     1       7.242   5.410  20.016  0.00  0.00    +0.000 OA
ATOM     20  C   UNL     1       6.936   5.161  18.860  0.00  0.00    +0.000 A 
ATOM     21  N   UNL     1       7.693   5.483  17.724  0.00  0.00    +0.000 N 
ATOM     22  C   UNL     1       7.014   5.053  16.590  0.00  0.00    +0.000 A 
ATOM     23  C   UNL     1       7.374   5.180  15.268  0.00  0.00    +0.000 A 
ATOM     24  C   UNL     1       6.488   4.661  14.322  0.00  0.00    +0.000 A 
ATOM     25  C   UNL     1       5.284   4.041  14.721  0.00  0.00    +0.000 A 
ATOM     26  C   UNL     1       4.938   3.929  16.076  0.00  0.00    +0.000 A 
ATOM     27  C   UNL     1       5.822   4.446  16.997  0.00  0.00    +0.000 A 
ATOM     28  N   UNL     1       5.770   4.517  18.398  0.00  0.00    +0.000 N 
ATOM     29  H   UNL     1       8.573   5.970  17.759  0.00  0.00    +0.000 HD
ENDBRANCH  18  28
ENDBRANCH  17  18
ENDBRANCH  16  17
ENDBRANCH   1  16
TORSDOF 5
ENDMDL
MODEL 4
REMARK VINA RESULT:      -8.1      6.064      8.731
REMARK  Name = 
REMARK  5 active torsions:
REMARK  status: ('A' for Active; 'I' for Inactive)
REMARK    1  A    between atoms: N_10  and  C_11
REMARK    2  A    between atoms: C_11  and  C_12
REMARK    3  A    between atoms: C_12  and  C_13
REMARK    4  A    between atoms: C_13  and  S_14
REMARK    5  A    between atoms: S_14  and  C_15
REMARK                            x       y       z     vdW  Elec       q    Type
REMARK                         _______ _______ _______ _____ _____    ______ ____
ROOT
ATOM      1  S   UNL     1       8.185   7.102  18.568  0.00  0.00    +0.000 S 
ENDROOT
BRANCH   1   2
ATOM      2  C   UNL     1       6.653   6.230  18.305  0.00  0.00    +0.000 A 
ATOM      3  N   UNL     1       5.639   6.809  17.605  0.00  0.00    +0.000 NA
ATOM      4  N   UNL     1       4.450   6.192  17.460  0.00  0.00    +0.000 NA
ATOM      5  C   UNL     1       4.325   4.984  18.068  0.00  0.00    +0.000 A 
ATOM      6  C   UNL     1       5.403   4.449  18.747  0.00  0.00    +0.000 A 
ATOM      7  N   UNL     1       6.609   5.017  18.895  0.00  0.00    +0.000 NA
ATOM      8  N   UNL     1       5.025   3.251  19.274  0.00  0.00    +0.000 N 
ATOM      9  C   UNL     1       3.685   3.034  19.038  0.00  0.00    +0.000 A 
ATOM     10  C   UNL     1       2.851   2.008  19.493  0.00  0.00    +0.000 A 
ATOM     11  C   UNL     1       1.506   2.054  19.117  0.00  0.00    +0.000 A 
ATOM     12  C   UNL     1       1.031   3.058  18.277  0.00  0.00    +0.000 A 
ATOM     13  C   UNL     1       1.881   4.072  17.815  0.00  0.00    +0.000 A 
ATOM     14  C   UNL     1       3.230   4.085  18.229  0.00  0.00    +0.000 A 
ATOM     15  H   UNL     1       5.632   2.657  19.818  0.00  0.00    +0.000 HD
ENDBRANCH   1   2
BRANCH   1  16
ATOM     16  C   UNL     1       7.922   8.660  17.660  0.00  0.00    +0.000 C 
BRANCH  16  17
ATOM     17  C   UNL     1       8.437   9.860  18.473  0.00  0.00    +0.000 C 
BRANCH  17  18
ATOM     18  C   UNL     1       9.567  10.632  17.780  0.00  0.00    +0.000 C 
BRANCH  18  28
ATOM     19  O   UNL     1       7.436  12.493  16.824  0.00  0.00    +0.000 OA
ATOM     20  C   UNL     1       8.424  12.861  17.441  0.00  0.00    +0.000 A 
ATOM     21  N   UNL     1       8.744  14.190  17.760  0.00  0.00    +0.000 N 
ATOM     22  C   UNL     1       9.948  14.212  18.452  0.00  0.00    +0.000 A 
ATOM     23  C   UNL     1      10.646  15.295  18.937  0.00  0.00    +0.000 A 
ATOM     24  C   UNL     1      11.849  15.027  19.592  0.00  0.00    +0.000 A 
ATOM     25  C   UNL     1      12.314  13.702  19.739  0.00  0.00    +0.000 A 
ATOM     26  C   UNL     1      11.586  12.615  19.230  0.00  0.00    +0.000 A 
ATOM     27  C   UNL     1      10.401  12.897  18.587  0.00  0.00    +0.000 A 
ATOM     28  N   UNL     1       9.464  12.061  17.958  0.00  0.00    +0.000 N 
ATOM     29  H   UNL     1       8.180  14.979  17.493  0.00  0.00    +0.000 HD
ENDBRANCH  18  28
ENDBRANCH  17  18
ENDBRANCH  16  17
ENDBRANCH   1  16
TORSDOF 5
ENDMDL
MODEL 5
REMARK VINA RESULT:      -8.1      5.672      8.404
REMARK  Name = 
REMARK  5 active torsions:
REMARK  status: ('A' for Active; 'I' for Inactive)
REMARK    1  A    between atoms: N_10  and  C_11
REMARK    2  A    between atoms: C_11  and  C_12
REMARK    3  A    between atoms: C_12  and  C_13
REMARK    4  A    between atoms: C_13  and  S_14
REMARK    5  A    between atoms: S_14  and  C_15
REMARK                            x       y       z     vdW  Elec       q    Type
REMARK                         _______ _______ _______ _____ _____    ______ ____
ROOT
ATOM      1  S   UNL     1       8.164   7.206  18.427  0.00  0.00    +0.000 S 
ENDROOT
BRANCH   1   2
ATOM      2  C   UNL     1       6.663   6.272  18.202  0.00  0.00    +0.000 A 
ATOM      3  N   UNL     1       5.650   6.766  17.438  0.00  0.00    +0.000 NA
ATOM      4  N   UNL     1       4.481   6.105  17.318  0.00  0.00    +0.000 NA
ATOM      5  C   UNL     1       4.376   4.945  18.015  0.00  0.00    +0.000 A 
ATOM      6  C   UNL     1       5.454   4.495  18.755  0.00  0.00    +0.000 A 
ATOM      7  N   UNL     1       6.640   5.107  18.884  0.00  0.00    +0.000 NA
ATOM      8  N   UNL     1       5.096   3.331  19.366  0.00  0.00    +0.000 N 
ATOM      9  C   UNL     1       3.768   3.057  19.120  0.00  0.00    +0.000 A 
ATOM     10  C   UNL     1       2.953   2.045  19.637  0.00  0.00    +0.000 A 
ATOM     11  C   UNL     1       1.617   2.023  19.231  0.00  0.00    +0.000 A 
ATOM     12  C   UNL     1       1.133   2.945  18.306  0.00  0.00    +0.000 A 
ATOM     13  C   UNL     1       1.965   3.945  17.785  0.00  0.00    +0.000 A 
ATOM     14  C   UNL     1       3.303   4.029  18.223  0.00  0.00    +0.000 A 
ATOM     15  H   UNL     1       5.707   2.798  19.967  0.00  0.00    +0.000 HD
ENDBRANCH   1   2
BRANCH   1  16
ATOM     16  C   UNL     1       7.761   8.809  17.658  0.00  0.00    +0.000 C 
BRANCH  16  17
ATOM     17  C   UNL     1       8.792   9.879  18.053  0.00  0.00    +0.000 C 
BRANCH  17  18
ATOM     18  C   UNL     1       9.127   9.887  19.550  0.00  0.00    +0.000 C 
BRANCH  18  28
ATOM     19  O   UNL     1       8.464  11.453  22.004  0.00  0.00    +0.000 OA
ATOM     20  C   UNL     1       9.273  11.824  21.167  0.00  0.00    +0.000 A 
ATOM     21  N   UNL     1       9.978  13.037  21.190  0.00  0.00    +0.000 N 
ATOM     22  C   UNL     1      10.791  13.108  20.065  0.00  0.00    +0.000 A 
ATOM     23  C   UNL     1      11.634  14.123  19.673  0.00  0.00    +0.000 A 
ATOM     24  C   UNL     1      12.333  13.935  18.478  0.00  0.00    +0.000 A 
ATOM     25  C   UNL     1      12.167  12.754  17.722  0.00  0.00    +0.000 A 
ATOM     26  C   UNL     1      11.297  11.737  18.142  0.00  0.00    +0.000 A 
ATOM     27  C   UNL     1      10.616  11.938  19.322  0.00  0.00    +0.000 A 
ATOM     28  N   UNL     1       9.674  11.146  19.998  0.00  0.00    +0.000 N 
ATOM     29  H   UNL     1       9.870  13.732  21.909  0.00  0.00    +0.000 HD
ENDBRANCH  18  28
ENDBRANCH  17  18
ENDBRANCH  16  17
ENDBRANCH   1  16
TORSDOF 5
ENDMDL
MODEL 6
REMARK VINA RESULT:      -8.0      1.093      1.399
REMARK  Name = 
REMARK  5 active torsions:
REMARK  status: ('A' for Active; 'I' for Inactive)
REMARK    1  A    between atoms: N_10  and  C_11
REMARK    2  A    between atoms: C_11  and  C_12
REMARK    3  A    between atoms: C_12  and  C_13
REMARK    4  A    between atoms: C_13  and  S_14
REMARK    5  A    between atoms: S_14  and  C_15
REMARK                            x       y       z     vdW  Elec       q    Type
REMARK                         _______ _______ _______ _____ _____    ______ ____
ROOT
ATOM      1  S   UNL     1       3.063   7.205  17.925  0.00  0.00    +0.000 S 
ENDROOT
BRANCH   1   2
ATOM      2  C   UNL     1       2.016   8.463  18.630  0.00  0.00    +0.000 A 
ATOM      3  N   UNL     1       1.849   9.658  17.998  0.00  0.00    +0.000 NA
ATOM      4  N   UNL     1       1.119  10.645  18.553  0.00  0.00    +0.000 NA
ATOM      5  C   UNL     1       0.589  10.382  19.775  0.00  0.00    +0.000 A 
ATOM      6  C   UNL     1       0.785   9.140  20.349  0.00  0.00    +0.000 A 
ATOM      7  N   UNL     1       1.482   8.123  19.822  0.00  0.00    +0.000 NA
ATOM      8  N   UNL     1       0.173   9.130  21.566  0.00  0.00    +0.000 N 
ATOM      9  C   UNL     1      -0.338  10.378  21.847  0.00  0.00    +0.000 A 
ATOM     10  C   UNL     1      -0.935  10.858  23.018  0.00  0.00    +0.000 A 
ATOM     11  C   UNL     1      -1.340  12.195  23.035  0.00  0.00    +0.000 A 
ATOM     12  C   UNL     1      -1.201  13.000  21.907  0.00  0.00    +0.000 A 
ATOM     13  C   UNL     1      -0.615  12.502  20.735  0.00  0.00    +0.000 A 
ATOM     14  C   UNL     1      -0.141  11.174  20.710  0.00  0.00    +0.000 A 
ATOM     15  H   UNL     1       0.168   8.337  22.189  0.00  0.00    +0.000 HD
ENDBRANCH   1   2
BRANCH   1  16
ATOM     16  C   UNL     1       2.538   5.701  18.812  0.00  0.00    +0.000 C 
BRANCH  16  17
ATOM     17  C   UNL     1       1.948   4.670  17.836  0.00  0.00    +0.000 C 
BRANCH  17  18
ATOM     18  C   UNL     1       2.780   3.387  17.720  0.00  0.00    +0.000 C 
BRANCH  18  28
ATOM     19  O   UNL     1       4.572   3.151  20.096  0.00  0.00    +0.000 OA
ATOM     20  C   UNL     1       4.958   3.512  18.995  0.00  0.00    +0.000 A 
ATOM     21  N   UNL     1       6.265   3.911  18.675  0.00  0.00    +0.000 N 
ATOM     22  C   UNL     1       6.314   4.265  17.332  0.00  0.00    +0.000 A 
ATOM     23  C   UNL     1       7.382   4.733  16.601  0.00  0.00    +0.000 A 
ATOM     24  C   UNL     1       7.145   5.024  15.256  0.00  0.00    +0.000 A 
ATOM     25  C   UNL     1       5.865   4.841  14.691  0.00  0.00    +0.000 A 
ATOM     26  C   UNL     1       4.791   4.367  15.460  0.00  0.00    +0.000 A 
ATOM     27  C   UNL     1       5.041   4.085  16.785  0.00  0.00    +0.000 A 
ATOM     28  N   UNL     1       4.201   3.626  17.812  0.00  0.00    +0.000 N 
ATOM     29  H   UNL     1       7.017   3.947  19.343  0.00  0.00    +0.000 HD
ENDBRANCH  18  28
ENDBRANCH  17  18
ENDBRANCH  16  17
ENDBRANCH   1  16
TORSDOF 5
ENDMDL
MODEL 7
REMARK VINA RESULT:      -8.0      7.313      8.627
REMARK  Name = 
REMARK  5 active torsions:
REMARK  status: ('A' for Active; 'I' for Inactive)
REMARK    1  A    between atoms: N_10  and  C_11
REMARK    2  A    between atoms: C_11  and  C_12
REMARK    3  A    between atoms: C_12  and  C_13
REMARK    4  A    between atoms: C_13  and  S_14
REMARK    5  A    between atoms: S_14  and  C_15
REMARK                            x       y       z     vdW  Elec       q    Type
REMARK                         _______ _______ _______ _____ _____    ______ ____
ROOT
ATOM      1  S   UNL     1       9.139  10.097  19.304  0.00  0.00    +0.000 S 
ENDROOT
BRANCH   1   2
ATOM      2  C   UNL     1       9.515  11.719  18.668  0.00  0.00    +0.000 A 
ATOM      3  N   UNL     1      10.452  11.880  17.694  0.00  0.00    +0.000 NA
ATOM      4  N   UNL     1      10.799  13.106  17.255  0.00  0.00    +0.000 NA
ATOM      5  C   UNL     1      10.178  14.153  17.855  0.00  0.00    +0.000 A 
ATOM      6  C   UNL     1       9.222  13.914  18.824  0.00  0.00    +0.000 A 
ATOM      7  N   UNL     1       8.830  12.712  19.273  0.00  0.00    +0.000 NA
ATOM      8  N   UNL     1       8.762  15.114  19.276  0.00  0.00    +0.000 N 
ATOM      9  C   UNL     1       9.470  16.141  18.692  0.00  0.00    +0.000 A 
ATOM     10  C   UNL     1       9.423  17.516  18.943  0.00  0.00    +0.000 A 
ATOM     11  C   UNL     1      10.286  18.336  18.213  0.00  0.00    +0.000 A 
ATOM     12  C   UNL     1      11.123  17.804  17.234  0.00  0.00    +0.000 A 
ATOM     13  C   UNL     1      11.148  16.425  16.981  0.00  0.00    +0.000 A 
ATOM     14  C   UNL     1      10.332  15.567  17.747  0.00  0.00    +0.000 A 
ATOM     15  H   UNL     1       8.056  15.215  19.989  0.00  0.00    +0.000 HD
ENDBRANCH   1   2
BRANCH   1  16
ATOM     16  C   UNL     1       8.303   9.296  17.895  0.00  0.00    +0.000 C 
BRANCH  16  17
ATOM     17  C   UNL     1       8.034   7.812  18.192  0.00  0.00    +0.000 C 
BRANCH  17  18
ATOM     18  C   UNL     1       7.322   7.075  17.051  0.00  0.00    +0.000 C 
BRANCH  18  28
ATOM     19  O   UNL     1       8.210   4.262  17.512  0.00  0.00    +0.000 OA
ATOM     20  C   UNL     1       7.058   4.638  17.667  0.00  0.00    +0.000 A 
ATOM     21  N   UNL     1       5.974   3.828  18.035  0.00  0.00    +0.000 N 
ATOM     22  C   UNL     1       4.826   4.608  18.096  0.00  0.00    +0.000 A 
ATOM     23  C   UNL     1       3.537   4.227  18.394  0.00  0.00    +0.000 A 
ATOM     24  C   UNL     1       2.563   5.228  18.372  0.00  0.00    +0.000 A 
ATOM     25  C   UNL     1       2.903   6.561  18.055  0.00  0.00    +0.000 A 
ATOM     26  C   UNL     1       4.224   6.923  17.750  0.00  0.00    +0.000 A 
ATOM     27  C   UNL     1       5.172   5.924  17.776  0.00  0.00    +0.000 A 
ATOM     28  N   UNL     1       6.550   5.943  17.505  0.00  0.00    +0.000 N 
ATOM     29  H   UNL     1       6.046   2.838  18.197  0.00  0.00    +0.000 HD
ENDBRANCH  18  28
ENDBRANCH  17  18
ENDBRANCH  16  17
ENDBRANCH   1  16
TORSDOF 5
ENDMDL
MODEL 8
REMARK VINA RESULT:      -7.9      5.644      8.505
REMARK  Name = 
REMARK  5 active torsions:
REMARK  status: ('A' for Active; 'I' for Inactive)
REMARK    1  A    between atoms: N_10  and  C_11
REMARK    2  A    between atoms: C_11  and  C_12
REMARK    3  A    between atoms: C_12  and  C_13
REMARK    4  A    between atoms: C_13  and  S_14
REMARK    5  A    between atoms: S_14  and  C_15
REMARK                            x       y       z     vdW  Elec       q    Type
REMARK                         _______ _______ _______ _____ _____    ______ ____
ROOT
ATOM      1  S   UNL     1       8.162   7.017  18.577  0.00  0.00    +0.000 S 
ENDROOT
BRANCH   1   2
ATOM      2  C   UNL     1       6.630   6.141  18.325  0.00  0.00    +0.000 A 
ATOM      3  N   UNL     1       5.638   6.685  17.568  0.00  0.00    +0.000 NA
ATOM      4  N   UNL     1       4.448   6.068  17.428  0.00  0.00    +0.000 NA
ATOM      5  C   UNL     1       4.300   4.897  18.100  0.00  0.00    +0.000 A 
ATOM      6  C   UNL     1       5.358   4.395  18.834  0.00  0.00    +0.000 A 
ATOM      7  N   UNL     1       6.564   4.963  18.981  0.00  0.00    +0.000 NA
ATOM      8  N   UNL     1       4.957   3.231  19.417  0.00  0.00    +0.000 N 
ATOM      9  C   UNL     1       3.622   3.008  19.161  0.00  0.00    +0.000 A 
ATOM     10  C   UNL     1       2.770   2.014  19.652  0.00  0.00    +0.000 A 
ATOM     11  C   UNL     1       1.436   2.046  19.240  0.00  0.00    +0.000 A 
ATOM     12  C   UNL     1       0.989   3.004  18.333  0.00  0.00    +0.000 A 
ATOM     13  C   UNL     1       1.857   3.986  17.837  0.00  0.00    +0.000 A 
ATOM     14  C   UNL     1       3.195   4.014  18.283  0.00  0.00    +0.000 A 
ATOM     15  H   UNL     1       5.547   2.664  20.009  0.00  0.00    +0.000 HD
ENDBRANCH   1   2
BRANCH   1  16
ATOM     16  C   UNL     1       8.020   8.416  17.416  0.00  0.00    +0.000 C 
BRANCH  16  17
ATOM     17  C   UNL     1       8.108   9.757  18.164  0.00  0.00    +0.000 C 
BRANCH  17  18
ATOM     18  C   UNL     1       9.284   9.838  19.145  0.00  0.00    +0.000 C 
BRANCH  18  28
ATOM     19  O   UNL     1      10.999  11.604  17.456  0.00  0.00    +0.000 OA
ATOM     20  C   UNL     1      10.554  11.939  18.544  0.00  0.00    +0.000 A 
ATOM     21  N   UNL     1      10.801  13.159  19.191  0.00  0.00    +0.000 N 
ATOM     22  C   UNL     1      10.136  13.167  20.411  0.00  0.00    +0.000 A 
ATOM     23  C   UNL     1      10.117  14.147  21.378  0.00  0.00    +0.000 A 
ATOM     24  C   UNL     1       9.366  13.884  22.525  0.00  0.00    +0.000 A 
ATOM     25  C   UNL     1       8.669  12.665  22.671  0.00  0.00    +0.000 A 
ATOM     26  C   UNL     1       8.709  11.680  21.673  0.00  0.00    +0.000 A 
ATOM     27  C   UNL     1       9.454  11.954  20.547  0.00  0.00    +0.000 A 
ATOM     28  N   UNL     1       9.716  11.192  19.397  0.00  0.00    +0.000 N 
ATOM     29  H   UNL     1      11.390  13.882  18.814  0.00  0.00    +0.000 HD
ENDBRANCH  18  28
ENDBRANCH  17  18
ENDBRANCH  16  17
ENDBRANCH   1  16
TORSDOF 5
ENDMDL
MODEL 9
REMARK VINA RESULT:      -7.9      1.476      1.930
REMARK  Name = 
REMARK  5 active torsions:
REMARK  status: ('A' for Active; 'I' for Inactive)
REMARK    1  A    between atoms: N_10  and  C_11
REMARK    2  A    between atoms: C_11  and  C_12
REMARK    3  A    between atoms: C_12  and  C_13
REMARK    4  A    between atoms: C_13  and  S_14
REMARK    5  A    between atoms: S_14  and  C_15
REMARK                            x       y       z     vdW  Elec       q    Type
REMARK                         _______ _______ _______ _____ _____    ______ ____
ROOT
ATOM      1  S   UNL     1       3.770   6.967  17.458  0.00  0.00    +0.000 S 
ENDROOT
BRANCH   1   2
ATOM      2  C   UNL     1       2.543   7.959  18.287  0.00  0.00    +0.000 A 
ATOM      3  N   UNL     1       2.025   9.065  17.685  0.00  0.00    +0.000 NA
ATOM      4  N   UNL     1       1.152   9.865  18.328  0.00  0.00    +0.000 NA
ATOM      5  C   UNL     1       0.845   9.512  19.603  0.00  0.00    +0.000 A 
ATOM      6  C   UNL     1       1.394   8.365  20.143  0.00  0.00    +0.000 A 
ATOM      7  N   UNL     1       2.247   7.529  19.532  0.00  0.00    +0.000 NA
ATOM      8  N   UNL     1       0.947   8.239  21.423  0.00  0.00    +0.000 N 
ATOM      9  C   UNL     1       0.191   9.337  21.769  0.00  0.00    +0.000 A 
ATOM     10  C   UNL     1      -0.363   9.689  23.005  0.00  0.00    +0.000 A 
ATOM     11  C   UNL     1      -1.069  10.892  23.076  0.00  0.00    +0.000 A 
ATOM     12  C   UNL     1      -1.256  11.682  21.944  0.00  0.00    +0.000 A 
ATOM     13  C   UNL     1      -0.708  11.310  20.709  0.00  0.00    +0.000 A 
ATOM     14  C   UNL     1       0.061  10.131  20.621  0.00  0.00    +0.000 A 
ATOM     15  H   UNL     1       1.203   7.481  22.038  0.00  0.00    +0.000 HD
ENDBRANCH   1   2
BRANCH   1  16
ATOM     16  C   UNL     1       4.030   5.590  18.623  0.00  0.00    +0.000 C 
BRANCH  16  17
ATOM     17  C   UNL     1       4.915   4.502  17.993  0.00  0.00    +0.000 C 
BRANCH  17  18
ATOM     18  C   UNL     1       4.653   4.287  16.497  0.00  0.00    +0.000 C 
BRANCH  18  28
ATOM     19  O   UNL     1       7.069   5.902  17.180  0.00  0.00    +0.000 OA
ATOM     20  C   UNL     1       6.885   5.400  16.083  0.00  0.00    +0.000 A 
ATOM     21  N   UNL     1       7.730   5.527  14.970  0.00  0.00    +0.000 N 
ATOM     22  C   UNL     1       7.180   4.828  13.902  0.00  0.00    +0.000 A 
ATOM     23  C   UNL     1       7.656   4.701  12.616  0.00  0.00    +0.000 A 
ATOM     24  C   UNL     1       6.887   3.940  11.733  0.00  0.00    +0.000 A 
ATOM     25  C   UNL     1       5.681   3.341  12.155  0.00  0.00    +0.000 A 
ATOM     26  C   UNL     1       5.215   3.491  13.470  0.00  0.00    +0.000 A 
ATOM     27  C   UNL     1       5.984   4.243  14.329  0.00  0.00    +0.000 A 
ATOM     28  N   UNL     1       5.798   4.600  15.674  0.00  0.00    +0.000 N 
ATOM     29  H   UNL     1       8.579   6.067  14.972  0.00  0.00    +0.000 HD
ENDBRANCH  18  28
ENDBRANCH  17  18
ENDBRANCH  16  17
ENDBRANCH   1  16
TORSDOF 5
ENDMDL
