MODEL 1
REMARK VINA RESULT:      -7.0      0.000      0.000
REMARK  Name = 
REMARK  7 active torsions:
REMARK  status: ('A' for Active; 'I' for Inactive)
REMARK    1  A    between atoms: C_2  and  C_3
REMARK    2  A    between atoms: C_9  and  C_10
REMARK    3  A    between atoms: C_18  and  C_19
REMARK    4  A    between atoms: C_21  and  C_22
REMARK    5  A    between atoms: C_22  and  O_24
REMARK    6  A    between atoms: O_24  and  C_25
REMARK    7  A    between atoms: C_25  and  C_26
REMARK                            x       y       z     vdW  Elec       q    Type
REMARK                         _______ _______ _______ _____ _____    ______ ____
ROOT
ATOM      1  C   UNL     1       1.892   8.128  19.968  0.00  0.00    +0.000 A 
ATOM      2  C   UNL     1       2.180   8.917  18.857  0.00  0.00    +0.000 A 
ATOM      3  C   UNL     1       2.956   8.403  17.813  0.00  0.00    +0.000 A 
ATOM      4  C   UNL     1       3.452   7.090  17.881  0.00  0.00    +0.000 A 
ATOM      5  C   UNL     1       3.119   6.279  18.977  0.00  0.00    +0.000 A 
ATOM      6  C   UNL     1       2.360   6.817  20.030  0.00  0.00    +0.000 A 
ATOM      7  C   UNL     1       3.464   4.830  19.047  0.00  0.00    +0.000 C 
ATOM      8  N   UNL     1       4.628   4.336  18.803  0.00  0.00    +0.000 NA
ATOM      9  C   UNL     1       5.750   5.118  18.306  0.00  0.00    +0.000 C 
ATOM     10  C   UNL     1       6.316   6.080  19.345  0.00  0.00    +0.000 C 
ATOM     11  C   UNL     1       5.382   5.751  17.008  0.00  0.00    +0.000 A 
ATOM     12  C   UNL     1       5.980   5.678  15.755  0.00  0.00    +0.000 A 
ATOM     13  N   UNL     1       5.308   6.501  14.865  0.00  0.00    +0.000 NA
ATOM     14  C   UNL     1       4.349   7.059  15.560  0.00  0.00    +0.000 A 
ATOM     15  N   UNL     1       4.327   6.634  16.867  0.00  0.00    +0.000 N 
ENDROOT
BRANCH   7  16
ATOM     16  C   UNL     1       2.387   3.851  19.395  0.00  0.00    +0.000 A 
ATOM     17  C   UNL     1       2.243   3.435  20.725  0.00  0.00    +0.000 A 
ATOM     18  C   UNL     1       1.301   2.459  21.058  0.00  0.00    +0.000 A 
ATOM     19  C   UNL     1       0.500   1.891  20.067  0.00  0.00    +0.000 A 
ATOM     20  C   UNL     1       0.638   2.300  18.741  0.00  0.00    +0.000 A 
ATOM     21  C   UNL     1       1.583   3.267  18.410  0.00  0.00    +0.000 A 
ATOM     22  F   UNL     1       1.721   3.591  17.116  0.00  0.00    +0.000 F 
ENDBRANCH   7  16
BRANCH   1  24
ATOM     23  C   UNL     1       0.455   9.114  21.940  0.00  0.00    +0.000 C 
ATOM     24  C   UNL     1       1.110   8.653  21.044  0.00  0.00    +0.000 C 
ENDBRANCH   1  24
BRANCH  12  25
ATOM     25  C   UNL     1       7.197   4.952  15.375  0.00  0.00    +0.000 C 
ATOM     26  O   UNL     1       8.008   4.500  16.177  0.00  0.00    +0.000 OA
BRANCH  25  27
ATOM     27  O   UNL     1       7.379   4.947  14.021  0.00  0.00    +0.000 OA
BRANCH  27  28
ATOM     28  C   UNL     1       6.653   3.945  13.301  0.00  0.00    +0.000 C 
ATOM     29  C   UNL     1       7.103   3.984  11.851  0.00  0.00    +0.000 C 
ENDBRANCH  27  28
ENDBRANCH  25  27
ENDBRANCH  12  25
TORSDOF 5
ENDMDL
MODEL 2
REMARK VINA RESULT:      -6.9      0.890      1.261
REMARK  Name = 
REMARK  7 active torsions:
REMARK  status: ('A' for Active; 'I' for Inactive)
REMARK    1  A    between atoms: C_2  and  C_3
REMARK    2  A    between atoms: C_9  and  C_10
REMARK    3  A    between atoms: C_18  and  C_19
REMARK    4  A    between atoms: C_21  and  C_22
REMARK    5  A    between atoms: C_22  and  O_24
REMARK    6  A    between atoms: O_24  and  C_25
REMARK    7  A    between atoms: C_25  and  C_26
REMARK                            x       y       z     vdW  Elec       q    Type
REMARK                         _______ _______ _______ _____ _____    ______ ____
ROOT
ATOM      1  C   UNL     1       1.895   8.044  19.987  0.00  0.00    +0.000 A 
ATOM      2  C   UNL     1       2.173   8.842  18.878  0.00  0.00    +0.000 A 
ATOM      3  C   UNL     1       2.951   8.341  17.830  0.00  0.00    +0.000 A 
ATOM      4  C   UNL     1       3.461   7.033  17.890  0.00  0.00    +0.000 A 
ATOM      5  C   UNL     1       3.138   6.212  18.982  0.00  0.00    +0.000 A 
ATOM      6  C   UNL     1       2.376   6.738  20.041  0.00  0.00    +0.000 A 
ATOM      7  C   UNL     1       3.498   4.767  19.044  0.00  0.00    +0.000 C 
ATOM      8  N   UNL     1       4.666   4.286  18.795  0.00  0.00    +0.000 NA
ATOM      9  C   UNL     1       5.780   5.081  18.298  0.00  0.00    +0.000 C 
ATOM     10  C   UNL     1       6.338   6.043  19.342  0.00  0.00    +0.000 C 
ATOM     11  C   UNL     1       5.402   5.717  17.005  0.00  0.00    +0.000 A 
ATOM     12  C   UNL     1       5.997   5.657  15.750  0.00  0.00    +0.000 A 
ATOM     13  N   UNL     1       5.315   6.478  14.867  0.00  0.00    +0.000 NA
ATOM     14  C   UNL     1       4.352   7.023  15.567  0.00  0.00    +0.000 A 
ATOM     15  N   UNL     1       4.337   6.591  16.871  0.00  0.00    +0.000 N 
ENDROOT
BRANCH   7  16
ATOM     16  C   UNL     1       2.432   3.776  19.389  0.00  0.00    +0.000 A 
ATOM     17  C   UNL     1       1.675   3.198  18.360  0.00  0.00    +0.000 A 
ATOM     18  C   UNL     1       0.619   2.336  18.662  0.00  0.00    +0.000 A 
ATOM     19  C   UNL     1       0.310   2.046  19.992  0.00  0.00    +0.000 A 
ATOM     20  C   UNL     1       1.058   2.617  21.021  0.00  0.00    +0.000 A 
ATOM     21  C   UNL     1       2.105   3.483  20.717  0.00  0.00    +0.000 A 
ATOM     22  F   UNL     1       2.762   4.054  21.738  0.00  0.00    +0.000 F 
ENDBRANCH   7  16
BRANCH   1  24
ATOM     23  C   UNL     1       0.433   8.985  21.962  0.00  0.00    +0.000 C 
ATOM     24  C   UNL     1       1.111   8.555  21.067  0.00  0.00    +0.000 C 
ENDBRANCH   1  24
BRANCH  12  25
ATOM     25  C   UNL     1       7.221   4.945  15.364  0.00  0.00    +0.000 C 
ATOM     26  O   UNL     1       8.044   4.508  16.161  0.00  0.00    +0.000 OA
BRANCH  25  27
ATOM     27  O   UNL     1       7.391   4.936  14.008  0.00  0.00    +0.000 OA
BRANCH  27  28
ATOM     28  C   UNL     1       6.643   3.945  13.296  0.00  0.00    +0.000 C 
ATOM     29  C   UNL     1       7.083   3.972  11.843  0.00  0.00    +0.000 C 
ENDBRANCH  27  28
ENDBRANCH  25  27
ENDBRANCH  12  25
TORSDOF 5
ENDMDL
MODEL 3
REMARK VINA RESULT:      -6.9      5.051      7.566
REMARK  Name = 
REMARK  7 active torsions:
REMARK  status: ('A' for Active; 'I' for Inactive)
REMARK    1  A    between atoms: C_2  and  C_3
REMARK    2  A    between atoms: C_9  and  C_10
REMARK    3  A    between atoms: C_18  and  C_19
REMARK    4  A    between atoms: C_21  and  C_22
REMARK    5  A    between atoms: C_22  and  O_24
REMARK    6  A    between atoms: O_24  and  C_25
REMARK    7  A    between atoms: C_25  and  C_26
REMARK                            x       y       z     vdW  Elec       q    Type
REMARK                         _______ _______ _______ _____ _____    ______ ____
ROOT
ATOM      1  C   UNL     1       0.595  14.316  18.704  0.00  0.00    +0.000 A 
ATOM      2  C   UNL     1       1.871  13.935  18.294  0.00  0.00    +0.000 A 
ATOM      3  C   UNL     1       2.208  12.580  18.211  0.00  0.00    +0.000 A 
ATOM      4  C   UNL     1       1.262  11.595  18.545  0.00  0.00    +0.000 A 
ATOM      5  C   UNL     1      -0.038  11.978  18.909  0.00  0.00    +0.000 A 
ATOM      6  C   UNL     1      -0.355  13.344  19.012  0.00  0.00    +0.000 A 
ATOM      7  C   UNL     1      -1.142  10.998  19.118  0.00  0.00    +0.000 C 
ATOM      8  N   UNL     1      -1.059   9.934  19.837  0.00  0.00    +0.000 NA
ATOM      9  C   UNL     1       0.174   9.472  20.459  0.00  0.00    +0.000 C 
ATOM     10  C   UNL     1       0.627  10.357  21.616  0.00  0.00    +0.000 C 
ATOM     11  C   UNL     1       1.207   9.244  19.410  0.00  0.00    +0.000 A 
ATOM     12  C   UNL     1       1.949   8.111  19.091  0.00  0.00    +0.000 A 
ATOM     13  N   UNL     1       2.842   8.407  18.073  0.00  0.00    +0.000 NA
ATOM     14  C   UNL     1       2.654   9.673  17.798  0.00  0.00    +0.000 A 
ATOM     15  N   UNL     1       1.663  10.239  18.563  0.00  0.00    +0.000 N 
ENDROOT
BRANCH   7  16
ATOM     16  C   UNL     1      -2.448  11.229  18.424  0.00  0.00    +0.000 A 
ATOM     17  C   UNL     1      -3.488  11.865  19.115  0.00  0.00    +0.000 A 
ATOM     18  C   UNL     1      -4.741  12.014  18.517  0.00  0.00    +0.000 A 
ATOM     19  C   UNL     1      -4.965  11.530  17.228  0.00  0.00    +0.000 A 
ATOM     20  C   UNL     1      -3.935  10.896  16.534  0.00  0.00    +0.000 A 
ATOM     21  C   UNL     1      -2.689  10.739  17.136  0.00  0.00    +0.000 A 
ATOM     22  F   UNL     1      -1.744  10.075  16.455  0.00  0.00    +0.000 F 
ENDBRANCH   7  16
BRANCH   1  24
ATOM     23  C   UNL     1      -0.027  16.867  18.867  0.00  0.00    +0.000 C 
ATOM     24  C   UNL     1       0.250  15.699  18.801  0.00  0.00    +0.000 C 
ENDBRANCH   1  24
BRANCH  12  25
ATOM     25  C   UNL     1       1.927   6.801  19.751  0.00  0.00    +0.000 C 
ATOM     26  O   UNL     1       1.502   6.608  20.885  0.00  0.00    +0.000 OA
BRANCH  25  27
ATOM     27  O   UNL     1       2.548   5.847  18.996  0.00  0.00    +0.000 OA
BRANCH  27  28
ATOM     28  C   UNL     1       2.026   4.520  19.121  0.00  0.00    +0.000 C 
ATOM     29  C   UNL     1       1.546   4.070  17.752  0.00  0.00    +0.000 C 
ENDBRANCH  27  28
ENDBRANCH  25  27
ENDBRANCH  12  25
TORSDOF 5
ENDMDL
MODEL 4
REMARK VINA RESULT:      -6.8      7.439     11.542
REMARK  Name = 
REMARK  7 active torsions:
REMARK  status: ('A' for Active; 'I' for Inactive)
REMARK    1  A    between atoms: C_2  and  C_3
REMARK    2  A    between atoms: C_9  and  C_10
REMARK    3  A    between atoms: C_18  and  C_19
REMARK    4  A    between atoms: C_21  and  C_22
REMARK    5  A    between atoms: C_22  and  O_24
REMARK    6  A    between atoms: O_24  and  C_25
REMARK    7  A    between atoms: C_25  and  C_26
REMARK                            x       y       z     vdW  Elec       q    Type
REMARK                         _______ _______ _______ _____ _____    ______ ____
ROOT
ATOM      1  C   UNL     1       0.760   9.851  18.395  0.00  0.00    +0.000 A 
ATOM      2  C   UNL     1      -0.513   9.533  17.926  0.00  0.00    +0.000 A 
ATOM      3  C   UNL     1      -1.620  10.283  18.337  0.00  0.00    +0.000 A 
ATOM      4  C   UNL     1      -1.455  11.358  19.227  0.00  0.00    +0.000 A 
ATOM      5  C   UNL     1      -0.167  11.709  19.659  0.00  0.00    +0.000 A 
ATOM      6  C   UNL     1       0.933  10.931  19.258  0.00  0.00    +0.000 A 
ATOM      7  C   UNL     1       0.112  12.930  20.468  0.00  0.00    +0.000 C 
ATOM      8  N   UNL     1      -0.535  13.279  21.525  0.00  0.00    +0.000 NA
ATOM      9  C   UNL     1      -1.716  12.585  22.017  0.00  0.00    +0.000 C 
ATOM     10  C   UNL     1      -1.402  11.209  22.595  0.00  0.00    +0.000 C 
ATOM     11  C   UNL     1      -2.772  12.591  20.966  0.00  0.00    +0.000 A 
ATOM     12  C   UNL     1      -4.083  13.056  20.993  0.00  0.00    +0.000 A 
ATOM     13  N   UNL     1      -4.704  12.779  19.785  0.00  0.00    +0.000 NA
ATOM     14  C   UNL     1      -3.805  12.159  19.063  0.00  0.00    +0.000 A 
ATOM     15  N   UNL     1      -2.603  12.027  19.715  0.00  0.00    +0.000 N 
ENDROOT
BRANCH   7  16
ATOM     16  C   UNL     1       1.200  13.855  20.020  0.00  0.00    +0.000 A 
ATOM     17  C   UNL     1       2.416  13.870  20.717  0.00  0.00    +0.000 A 
ATOM     18  C   UNL     1       3.413  14.784  20.371  0.00  0.00    +0.000 A 
ATOM     19  C   UNL     1       3.204  15.689  19.329  0.00  0.00    +0.000 A 
ATOM     20  C   UNL     1       1.997  15.680  18.631  0.00  0.00    +0.000 A 
ATOM     21  C   UNL     1       1.000  14.774  18.984  0.00  0.00    +0.000 A 
ATOM     22  F   UNL     1      -0.166  14.836  18.324  0.00  0.00    +0.000 F 
ENDBRANCH   7  16
BRANCH   1  24
ATOM     23  C   UNL     1       2.859   8.445  17.658  0.00  0.00    +0.000 C 
ATOM     24  C   UNL     1       1.893   9.080  17.988  0.00  0.00    +0.000 C 
ENDBRANCH   1  24
BRANCH  12  25
ATOM     25  C   UNL     1      -4.805  13.659  22.119  0.00  0.00    +0.000 C 
ATOM     26  O   UNL     1      -4.639  14.810  22.507  0.00  0.00    +0.000 OA
BRANCH  25  27
ATOM     27  O   UNL     1      -5.594  12.744  22.758  0.00  0.00    +0.000 OA
BRANCH  27  28
ATOM     28  C   UNL     1      -5.639  12.852  24.185  0.00  0.00    +0.000 C 
ATOM     29  C   UNL     1      -4.330  12.320  24.741  0.00  0.00    +0.000 C 
ENDBRANCH  27  28
ENDBRANCH  25  27
ENDBRANCH  12  25
TORSDOF 5
ENDMDL
MODEL 5
REMARK VINA RESULT:      -6.8      5.185      8.658
REMARK  Name = 
REMARK  7 active torsions:
REMARK  status: ('A' for Active; 'I' for Inactive)
REMARK    1  A    between atoms: C_2  and  C_3
REMARK    2  A    between atoms: C_9  and  C_10
REMARK    3  A    between atoms: C_18  and  C_19
REMARK    4  A    between atoms: C_21  and  C_22
REMARK    5  A    between atoms: C_22  and  O_24
REMARK    6  A    between atoms: O_24  and  C_25
REMARK    7  A    between atoms: C_25  and  C_26
REMARK                            x       y       z     vdW  Elec       q    Type
REMARK                         _______ _______ _______ _____ _____    ______ ____
ROOT
ATOM      1  C   UNL     1      -1.972  12.922  22.438  0.00  0.00    +0.000 A 
ATOM      2  C   UNL     1      -1.866  11.733  23.158  0.00  0.00    +0.000 A 
ATOM      3  C   UNL     1      -0.972  10.740  22.744  0.00  0.00    +0.000 A 
ATOM      4  C   UNL     1      -0.180  10.933  21.599  0.00  0.00    +0.000 A 
ATOM      5  C   UNL     1      -0.251  12.151  20.904  0.00  0.00    +0.000 A 
ATOM      6  C   UNL     1      -1.172  13.130  21.317  0.00  0.00    +0.000 A 
ATOM      7  C   UNL     1       0.668  12.499  19.784  0.00  0.00    +0.000 C 
ATOM      8  N   UNL     1       0.934  11.735  18.783  0.00  0.00    +0.000 NA
ATOM      9  C   UNL     1       0.461  10.363  18.663  0.00  0.00    +0.000 C 
ATOM     10  C   UNL     1      -1.040  10.270  18.407  0.00  0.00    +0.000 C 
ATOM     11  C   UNL     1       0.944   9.566  19.825  0.00  0.00    +0.000 A 
ATOM     12  C   UNL     1       1.697   8.398  19.881  0.00  0.00    +0.000 A 
ATOM     13  N   UNL     1       1.838   7.993  21.198  0.00  0.00    +0.000 NA
ATOM     14  C   UNL     1       1.184   8.876  21.909  0.00  0.00    +0.000 A 
ATOM     15  N   UNL     1       0.630   9.869  21.138  0.00  0.00    +0.000 N 
ENDROOT
BRANCH   7  16
ATOM     16  C   UNL     1       1.373  13.819  19.817  0.00  0.00    +0.000 A 
ATOM     17  C   UNL     1       2.497  13.973  20.640  0.00  0.00    +0.000 A 
ATOM     18  C   UNL     1       3.120  15.218  20.752  0.00  0.00    +0.000 A 
ATOM     19  C   UNL     1       2.625  16.316  20.047  0.00  0.00    +0.000 A 
ATOM     20  C   UNL     1       1.507  16.169  19.226  0.00  0.00    +0.000 A 
ATOM     21  C   UNL     1       0.882  14.929  19.123  0.00  0.00    +0.000 A 
ATOM     22  F   UNL     1      -0.223  14.846  18.367  0.00  0.00    +0.000 F 
ENDBRANCH   7  16
BRANCH   1  24
ATOM     23  C   UNL     1      -3.674  14.775  23.211  0.00  0.00    +0.000 C 
ATOM     24  C   UNL     1      -2.892  13.936  22.850  0.00  0.00    +0.000 C 
ENDBRANCH   1  24
BRANCH  12  25
ATOM     25  C   UNL     1       2.207   7.598  18.761  0.00  0.00    +0.000 C 
ATOM     26  O   UNL     1       2.413   8.040  17.636  0.00  0.00    +0.000 OA
BRANCH  25  27
ATOM     27  O   UNL     1       2.310   6.276  19.093  0.00  0.00    +0.000 OA
BRANCH  27  28
ATOM     28  C   UNL     1       2.768   5.409  18.050  0.00  0.00    +0.000 C 
ATOM     29  C   UNL     1       1.675   4.395  17.763  0.00  0.00    +0.000 C 
ENDBRANCH  27  28
ENDBRANCH  25  27
ENDBRANCH  12  25
TORSDOF 5
ENDMDL
MODEL 6
REMARK VINA RESULT:      -6.7      5.040      7.450
REMARK  Name = 
REMARK  7 active torsions:
REMARK  status: ('A' for Active; 'I' for Inactive)
REMARK    1  A    between atoms: C_2  and  C_3
REMARK    2  A    between atoms: C_9  and  C_10
REMARK    3  A    between atoms: C_18  and  C_19
REMARK    4  A    between atoms: C_21  and  C_22
REMARK    5  A    between atoms: C_22  and  O_24
REMARK    6  A    between atoms: O_24  and  C_25
REMARK    7  A    between atoms: C_25  and  C_26
REMARK                            x       y       z     vdW  Elec       q    Type
REMARK                         _______ _______ _______ _____ _____    ______ ____
ROOT
ATOM      1  C   UNL     1       0.800  13.996  18.602  0.00  0.00    +0.000 A 
ATOM      2  C   UNL     1       2.073  13.598  18.199  0.00  0.00    +0.000 A 
ATOM      3  C   UNL     1       2.397  12.240  18.136  0.00  0.00    +0.000 A 
ATOM      4  C   UNL     1       1.443  11.267  18.483  0.00  0.00    +0.000 A 
ATOM      5  C   UNL     1       0.145  11.667  18.839  0.00  0.00    +0.000 A 
ATOM      6  C   UNL     1      -0.159  13.037  18.923  0.00  0.00    +0.000 A 
ATOM      7  C   UNL     1      -0.968  10.700  19.060  0.00  0.00    +0.000 C 
ATOM      8  N   UNL     1      -0.895   9.645  19.794  0.00  0.00    +0.000 NA
ATOM      9  C   UNL     1       0.333   9.181  20.424  0.00  0.00    +0.000 C 
ATOM     10  C   UNL     1       0.791  10.077  21.569  0.00  0.00    +0.000 C 
ATOM     11  C   UNL     1       1.365   8.929  19.380  0.00  0.00    +0.000 A 
ATOM     12  C   UNL     1       2.097   7.786  19.077  0.00  0.00    +0.000 A 
ATOM     13  N   UNL     1       2.994   8.059  18.057  0.00  0.00    +0.000 NA
ATOM     14  C   UNL     1       2.818   9.322  17.764  0.00  0.00    +0.000 A 
ATOM     15  N   UNL     1       1.831   9.908  18.520  0.00  0.00    +0.000 N 
ENDROOT
BRANCH   7  16
ATOM     16  C   UNL     1      -2.271  10.933  18.360  0.00  0.00    +0.000 A 
ATOM     17  C   UNL     1      -2.424  10.498  17.037  0.00  0.00    +0.000 A 
ATOM     18  C   UNL     1      -3.599  10.779  16.337  0.00  0.00    +0.000 A 
ATOM     19  C   UNL     1      -4.627  11.497  16.950  0.00  0.00    +0.000 A 
ATOM     20  C   UNL     1      -4.480  11.933  18.267  0.00  0.00    +0.000 A 
ATOM     21  C   UNL     1      -3.304  11.660  18.960  0.00  0.00    +0.000 A 
ATOM     22  F   UNL     1      -3.183  12.146  20.204  0.00  0.00    +0.000 F 
ENDBRANCH   7  16
BRANCH   1  24
ATOM     23  C   UNL     1       0.199  16.554  18.728  0.00  0.00    +0.000 C 
ATOM     24  C   UNL     1       0.467  15.384  18.680  0.00  0.00    +0.000 C 
ENDBRANCH   1  24
BRANCH  12  25
ATOM     25  C   UNL     1       2.063   6.485  19.755  0.00  0.00    +0.000 C 
ATOM     26  O   UNL     1       1.566   6.298  20.861  0.00  0.00    +0.000 OA
BRANCH  25  27
ATOM     27  O   UNL     1       2.757   5.536  19.060  0.00  0.00    +0.000 OA
BRANCH  27  28
ATOM     28  C   UNL     1       1.975   4.469  18.515  0.00  0.00    +0.000 C 
ATOM     29  C   UNL     1       2.790   3.790  17.429  0.00  0.00    +0.000 C 
ENDBRANCH  27  28
ENDBRANCH  25  27
ENDBRANCH  12  25
TORSDOF 5
ENDMDL
MODEL 7
REMARK VINA RESULT:      -6.7      7.404     11.558
REMARK  Name = 
REMARK  7 active torsions:
REMARK  status: ('A' for Active; 'I' for Inactive)
REMARK    1  A    between atoms: C_2  and  C_3
REMARK    2  A    between atoms: C_9  and  C_10
REMARK    3  A    between atoms: C_18  and  C_19
REMARK    4  A    between atoms: C_21  and  C_22
REMARK    5  A    between atoms: C_22  and  O_24
REMARK    6  A    between atoms: O_24  and  C_25
REMARK    7  A    between atoms: C_25  and  C_26
REMARK                            x       y       z     vdW  Elec       q    Type
REMARK                         _______ _______ _______ _____ _____    ______ ____
ROOT
ATOM      1  C   UNL     1       0.750   9.892  18.531  0.00  0.00    +0.000 A 
ATOM      2  C   UNL     1      -0.578   9.723  18.143  0.00  0.00    +0.000 A 
ATOM      3  C   UNL     1      -1.579  10.526  18.698  0.00  0.00    +0.000 A 
ATOM      4  C   UNL     1      -1.253  11.505  19.653  0.00  0.00    +0.000 A 
ATOM      5  C   UNL     1       0.091  11.709  20.006  0.00  0.00    +0.000 A 
ATOM      6  C   UNL     1       1.083  10.877  19.459  0.00  0.00    +0.000 A 
ATOM      7  C   UNL     1       0.537  12.829  20.881  0.00  0.00    +0.000 C 
ATOM      8  N   UNL     1       0.005  13.141  22.011  0.00  0.00    +0.000 NA
ATOM      9  C   UNL     1      -1.195  12.510  22.541  0.00  0.00    +0.000 C 
ATOM     10  C   UNL     1      -0.966  11.068  22.984  0.00  0.00    +0.000 C 
ATOM     11  C   UNL     1      -2.321  12.694  21.583  0.00  0.00    +0.000 A 
ATOM     12  C   UNL     1      -3.579  13.264  21.751  0.00  0.00    +0.000 A 
ATOM     13  N   UNL     1      -4.309  13.143  20.580  0.00  0.00    +0.000 NA
ATOM     14  C   UNL     1      -3.526  12.513  19.742  0.00  0.00    +0.000 A 
ATOM     15  N   UNL     1      -2.296  12.225  20.282  0.00  0.00    +0.000 N 
ENDROOT
BRANCH   7  16
ATOM     16  C   UNL     1       1.669  13.694  20.420  0.00  0.00    +0.000 A 
ATOM     17  C   UNL     1       2.866  13.700  21.149  0.00  0.00    +0.000 A 
ATOM     18  C   UNL     1       3.904  14.562  20.788  0.00  0.00    +0.000 A 
ATOM     19  C   UNL     1       3.754  15.422  19.699  0.00  0.00    +0.000 A 
ATOM     20  C   UNL     1       2.566  15.421  18.969  0.00  0.00    +0.000 A 
ATOM     21  C   UNL     1       1.529  14.568  19.337  0.00  0.00    +0.000 A 
ATOM     22  F   UNL     1       0.384  14.638  18.643  0.00  0.00    +0.000 F 
ENDBRANCH   7  16
BRANCH   1  24
ATOM     23  C   UNL     1       2.627   8.353  17.516  0.00  0.00    +0.000 C 
ATOM     24  C   UNL     1       1.775   9.066  17.976  0.00  0.00    +0.000 C 
ENDBRANCH   1  24
BRANCH  12  25
ATOM     25  C   UNL     1      -4.158  13.828  22.975  0.00  0.00    +0.000 C 
ATOM     26  O   UNL     1      -5.023  13.275  23.648  0.00  0.00    +0.000 OA
BRANCH  25  27
ATOM     27  O   UNL     1      -3.706  15.097  23.208  0.00  0.00    +0.000 OA
BRANCH  27  28
ATOM     28  C   UNL     1      -3.695  15.510  24.578  0.00  0.00    +0.000 C 
ATOM     29  C   UNL     1      -2.374  15.081  25.191  0.00  0.00    +0.000 C 
ENDBRANCH  27  28
ENDBRANCH  25  27
ENDBRANCH  12  25
TORSDOF 5
ENDMDL
MODEL 8
REMARK VINA RESULT:      -6.6      7.618     11.470
REMARK  Name = 
REMARK  7 active torsions:
REMARK  status: ('A' for Active; 'I' for Inactive)
REMARK    1  A    between atoms: C_2  and  C_3
REMARK    2  A    between atoms: C_9  and  C_10
REMARK    3  A    between atoms: C_18  and  C_19
REMARK    4  A    between atoms: C_21  and  C_22
REMARK    5  A    between atoms: C_22  and  O_24
REMARK    6  A    between atoms: O_24  and  C_25
REMARK    7  A    between atoms: C_25  and  C_26
REMARK                            x       y       z     vdW  Elec       q    Type
REMARK                         _______ _______ _______ _____ _____    ______ ____
ROOT
ATOM      1  C   UNL     1       0.331   9.035  21.382  0.00  0.00    +0.000 A 
ATOM      2  C   UNL     1       0.031   9.257  22.725  0.00  0.00    +0.000 A 
ATOM      3  C   UNL     1      -0.699  10.387  23.103  0.00  0.00    +0.000 A 
ATOM      4  C   UNL     1      -1.131  11.309  22.133  0.00  0.00    +0.000 A 
ATOM      5  C   UNL     1      -0.873  11.058  20.776  0.00  0.00    +0.000 A 
ATOM      6  C   UNL     1      -0.116   9.931  20.413  0.00  0.00    +0.000 A 
ATOM      7  C   UNL     1      -1.435  11.894  19.677  0.00  0.00    +0.000 C 
ATOM      8  N   UNL     1      -1.397  13.180  19.635  0.00  0.00    +0.000 NA
ATOM      9  C   UNL     1      -0.900  14.012  20.721  0.00  0.00    +0.000 C 
ATOM     10  C   UNL     1       0.612  13.918  20.900  0.00  0.00    +0.000 C 
ATOM     11  C   UNL     1      -1.690  13.745  21.956  0.00  0.00    +0.000 A 
ATOM     12  C   UNL     1      -2.419  14.600  22.775  0.00  0.00    +0.000 A 
ATOM     13  N   UNL     1      -2.929  13.895  23.854  0.00  0.00    +0.000 NA
ATOM     14  C   UNL     1      -2.513  12.664  23.697  0.00  0.00    +0.000 A 
ATOM     15  N   UNL     1      -1.768  12.500  22.554  0.00  0.00    +0.000 N 
ENDROOT
BRANCH   7  16
ATOM     16  C   UNL     1      -2.129  11.212  18.541  0.00  0.00    +0.000 A 
ATOM     17  C   UNL     1      -1.385  10.408  17.667  0.00  0.00    +0.000 A 
ATOM     18  C   UNL     1      -1.995   9.831  16.551  0.00  0.00    +0.000 A 
ATOM     19  C   UNL     1      -3.349  10.054  16.298  0.00  0.00    +0.000 A 
ATOM     20  C   UNL     1      -4.096  10.854  17.163  0.00  0.00    +0.000 A 
ATOM     21  C   UNL     1      -3.484  11.435  18.270  0.00  0.00    +0.000 A 
ATOM     22  F   UNL     1      -4.225  12.241  19.045  0.00  0.00    +0.000 F 
ENDBRANCH   7  16
BRANCH   1  24
ATOM     23  C   UNL     1       1.706   6.915  20.648  0.00  0.00    +0.000 C 
ATOM     24  C   UNL     1       1.087   7.887  20.990  0.00  0.00    +0.000 C 
ENDBRANCH   1  24
BRANCH  12  25
ATOM     25  C   UNL     1      -2.582  16.053  22.648  0.00  0.00    +0.000 C 
ATOM     26  O   UNL     1      -1.652  16.840  22.504  0.00  0.00    +0.000 OA
BRANCH  25  27
ATOM     27  O   UNL     1      -3.882  16.431  22.830  0.00  0.00    +0.000 OA
BRANCH  27  28
ATOM     28  C   UNL     1      -4.090  17.518  23.738  0.00  0.00    +0.000 C 
ATOM     29  C   UNL     1      -4.782  16.975  24.976  0.00  0.00    +0.000 C 
ENDBRANCH  27  28
ENDBRANCH  25  27
ENDBRANCH  12  25
TORSDOF 5
ENDMDL
MODEL 9
REMARK VINA RESULT:      -6.5      7.605     11.468
REMARK  Name = 
REMARK  7 active torsions:
REMARK  status: ('A' for Active; 'I' for Inactive)
REMARK    1  A    between atoms: C_2  and  C_3
REMARK    2  A    between atoms: C_9  and  C_10
REMARK    3  A    between atoms: C_18  and  C_19
REMARK    4  A    between atoms: C_21  and  C_22
REMARK    5  A    between atoms: C_22  and  O_24
REMARK    6  A    between atoms: O_24  and  C_25
REMARK    7  A    between atoms: C_25  and  C_26
REMARK                            x       y       z     vdW  Elec       q    Type
REMARK                         _______ _______ _______ _____ _____    ______ ____
ROOT
ATOM      1  C   UNL     1       0.307   9.166  21.406  0.00  0.00    +0.000 A 
ATOM      2  C   UNL     1      -0.030   9.290  22.752  0.00  0.00    +0.000 A 
ATOM      3  C   UNL     1      -0.844  10.345  23.178  0.00  0.00    +0.000 A 
ATOM      4  C   UNL     1      -1.322  11.288  22.252  0.00  0.00    +0.000 A 
ATOM      5  C   UNL     1      -1.024  11.134  20.889  0.00  0.00    +0.000 A 
ATOM      6  C   UNL     1      -0.185  10.084  20.479  0.00  0.00    +0.000 A 
ATOM      7  C   UNL     1      -1.625  11.990  19.827  0.00  0.00    +0.000 C 
ATOM      8  N   UNL     1      -1.676  13.277  19.857  0.00  0.00    +0.000 NA
ATOM      9  C   UNL     1      -1.256  14.077  20.998  0.00  0.00    +0.000 C 
ATOM     10  C   UNL     1       0.255  14.077  21.203  0.00  0.00    +0.000 C 
ATOM     11  C   UNL     1      -2.046  13.687  22.199  0.00  0.00    +0.000 A 
ATOM     12  C   UNL     1      -2.847  14.442  23.050  0.00  0.00    +0.000 A 
ATOM     13  N   UNL     1      -3.325  13.643  24.077  0.00  0.00    +0.000 NA
ATOM     14  C   UNL     1      -2.821  12.455  23.860  0.00  0.00    +0.000 A 
ATOM     15  N   UNL     1      -2.047  12.407  22.726  0.00  0.00    +0.000 N 
ENDROOT
BRANCH   7  16
ATOM     16  C   UNL     1      -2.251  11.329  18.640  0.00  0.00    +0.000 A 
ATOM     17  C   UNL     1      -1.446  10.587  17.766  0.00  0.00    +0.000 A 
ATOM     18  C   UNL     1      -1.992  10.032  16.606  0.00  0.00    +0.000 A 
ATOM     19  C   UNL     1      -3.344  10.215  16.311  0.00  0.00    +0.000 A 
ATOM     20  C   UNL     1      -4.151  10.953  17.177  0.00  0.00    +0.000 A 
ATOM     21  C   UNL     1      -3.602  11.513  18.327  0.00  0.00    +0.000 A 
ATOM     22  F   UNL     1      -4.401  12.261  19.102  0.00  0.00    +0.000 F 
ENDBRANCH   7  16
BRANCH   1  24
ATOM     23  C   UNL     1       1.869   7.204  20.612  0.00  0.00    +0.000 C 
ATOM     24  C   UNL     1       1.147   8.097  20.966  0.00  0.00    +0.000 C 
ENDBRANCH   1  24
BRANCH  12  25
ATOM     25  C   UNL     1      -3.108  15.885  23.001  0.00  0.00    +0.000 C 
ATOM     26  O   UNL     1      -3.414  16.495  21.982  0.00  0.00    +0.000 OA
BRANCH  25  27
ATOM     27  O   UNL     1      -2.850  16.484  24.201  0.00  0.00    +0.000 OA
BRANCH  27  28
ATOM     28  C   UNL     1      -1.467  16.628  24.539  0.00  0.00    +0.000 C 
ATOM     29  C   UNL     1      -1.268  16.115  25.954  0.00  0.00    +0.000 C 
ENDBRANCH  27  28
ENDBRANCH  25  27
ENDBRANCH  12  25
TORSDOF 5
ENDMDL
