MODEL 1
REMARK VINA RESULT:      -7.9      0.000      0.000
REMARK  Name = 
REMARK  7 active torsions:
REMARK  status: ('A' for Active; 'I' for Inactive)
REMARK    1  A    between atoms: C_1  and  C_2
REMARK    2  A    between atoms: C_2  and  O_3
REMARK    3  A    between atoms: O_3  and  C_4
REMARK    4  A    between atoms: C_4  and  C_6
REMARK    5  A    between atoms: C_14  and  N_15
REMARK    6  A    between atoms: N_16  and  N_17
REMARK    7  A    between atoms: N_17  and  C_18
REMARK                            x       y       z     vdW  Elec       q    Type
REMARK                         _______ _______ _______ _____ _____    ______ ____
ROOT
ATOM      1  C   UNL     1       4.529   5.337  16.963  0.00  0.00    +0.000 A 
ATOM      2  S   UNL     1       4.503   3.655  16.641  0.00  0.00    +0.000 S 
ATOM      3  C   UNL     1       3.239   3.359  17.765  0.00  0.00    +0.000 A 
ATOM      4  C   UNL     1       2.637   2.116  18.048  0.00  0.00    +0.000 A 
ATOM      5  C   UNL     1       1.638   2.050  19.015  0.00  0.00    +0.000 A 
ATOM      6  C   UNL     1       1.228   3.193  19.687  0.00  0.00    +0.000 A 
ATOM      7  C   UNL     1       1.807   4.429  19.379  0.00  0.00    +0.000 A 
ATOM      8  C   UNL     1       2.839   4.533  18.407  0.00  0.00    +0.000 A 
ATOM      9  C   UNL     1       3.589   5.662  17.914  0.00  0.00    +0.000 A 
ENDROOT
BRANCH   1  10
ATOM     10  C   UNL     1       5.420   6.237  16.258  0.00  0.00    +0.000 C 
ATOM     11  O   UNL     1       5.079   7.038  15.393  0.00  0.00    +0.000 OA
BRANCH  10  12
ATOM     12  O   UNL     1       6.722   6.029  16.616  0.00  0.00    +0.000 OA
BRANCH  12  14
ATOM     13  C   UNL     1       7.776   7.911  17.650  0.00  0.00    +0.000 C 
ATOM     14  C   UNL     1       7.109   6.568  17.887  0.00  0.00    +0.000 C 
ENDBRANCH  12  14
ENDBRANCH  10  12
ENDBRANCH   1  10
BRANCH   9  15
ATOM     15  N   UNL     1       3.337   7.004  18.282  0.00  0.00    +0.000 NA
ATOM     16  N   UNL     1       2.240   7.424  17.876  0.00  0.00    +0.000 NA
BRANCH  16  17
ATOM     17  N   UNL     1       2.156   8.714  18.254  0.00  0.00    +0.000 N 
ATOM     18  H   UNL     1       2.294   9.405  17.523  0.00  0.00    +0.000 HD
BRANCH  17  19
ATOM     19  C   UNL     1       1.304   9.059  19.317  0.00  0.00    +0.000 A 
ATOM     20  C   UNL     1       1.396   8.437  20.575  0.00  0.00    +0.000 A 
ATOM     21  C   UNL     1       0.606   8.853  21.648  0.00  0.00    +0.000 A 
ATOM     22  C   UNL     1      -0.275   9.913  21.480  0.00  0.00    +0.000 A 
ATOM     23  F   UNL     1      -1.014  10.310  22.526  0.00  0.00    +0.000 F 
ATOM     24  C   UNL     1      -0.376  10.554  20.249  0.00  0.00    +0.000 A 
ATOM     25 CL   UNL     1      -1.462  11.874  20.037  0.00  0.00    +0.000 Cl
ATOM     26  C   UNL     1       0.413  10.134  19.173  0.00  0.00    +0.000 A 
ENDBRANCH  17  19
ENDBRANCH  16  17
ENDBRANCH   9  15
TORSDOF 6
ENDMDL
MODEL 2
REMARK VINA RESULT:      -7.8      1.521      1.727
REMARK  Name = 
REMARK  7 active torsions:
REMARK  status: ('A' for Active; 'I' for Inactive)
REMARK    1  A    between atoms: C_1  and  C_2
REMARK    2  A    between atoms: C_2  and  O_3
REMARK    3  A    between atoms: O_3  and  C_4
REMARK    4  A    between atoms: C_4  and  C_6
REMARK    5  A    between atoms: C_14  and  N_15
REMARK    6  A    between atoms: N_16  and  N_17
REMARK    7  A    between atoms: N_17  and  C_18
REMARK                            x       y       z     vdW  Elec       q    Type
REMARK                         _______ _______ _______ _____ _____    ______ ____
ROOT
ATOM      1  C   UNL     1       4.260   5.645  17.353  0.00  0.00    +0.000 A 
ATOM      2  S   UNL     1       4.182   3.940  17.202  0.00  0.00    +0.000 S 
ATOM      3  C   UNL     1       2.931   3.795  18.369  0.00  0.00    +0.000 A 
ATOM      4  C   UNL     1       2.301   2.604  18.785  0.00  0.00    +0.000 A 
ATOM      5  C   UNL     1       1.317   2.663  19.768  0.00  0.00    +0.000 A 
ATOM      6  C   UNL     1       0.951   3.879  20.328  0.00  0.00    +0.000 A 
ATOM      7  C   UNL     1       1.557   5.061  19.889  0.00  0.00    +0.000 A 
ATOM      8  C   UNL     1       2.575   5.038  18.896  0.00  0.00    +0.000 A 
ATOM      9  C   UNL     1       3.345   6.090  18.282  0.00  0.00    +0.000 A 
ENDROOT
BRANCH   1  10
ATOM     10  C   UNL     1       5.162   6.445  16.549  0.00  0.00    +0.000 C 
ATOM     11  O   UNL     1       5.107   6.563  15.328  0.00  0.00    +0.000 OA
BRANCH  10  12
ATOM     12  O   UNL     1       6.151   6.997  17.312  0.00  0.00    +0.000 OA
BRANCH  12  14
ATOM     13  C   UNL     1       7.635   6.018  18.912  0.00  0.00    +0.000 C 
ATOM     14  C   UNL     1       7.348   6.218  17.434  0.00  0.00    +0.000 C 
ENDBRANCH  12  14
ENDBRANCH  10  12
ENDBRANCH   1  10
BRANCH   9  15
ATOM     15  N   UNL     1       3.136   7.469  18.517  0.00  0.00    +0.000 NA
ATOM     16  N   UNL     1       2.186   7.937  17.867  0.00  0.00    +0.000 NA
BRANCH  16  17
ATOM     17  N   UNL     1       2.134   9.252  18.150  0.00  0.00    +0.000 N 
ATOM     18  H   UNL     1       2.772   9.848  17.630  0.00  0.00    +0.000 HD
BRANCH  17  19
ATOM     19  C   UNL     1       0.913   9.815  18.559  0.00  0.00    +0.000 A 
ATOM     20  C   UNL     1       0.813  10.620  19.707  0.00  0.00    +0.000 A 
ATOM     21  C   UNL     1      -0.387  11.246  20.050  0.00  0.00    +0.000 A 
ATOM     22  C   UNL     1      -1.500  11.088  19.235  0.00  0.00    +0.000 A 
ATOM     23  F   UNL     1      -2.639  11.710  19.571  0.00  0.00    +0.000 F 
ATOM     24  C   UNL     1      -1.424  10.306  18.086  0.00  0.00    +0.000 A 
ATOM     25 CL   UNL     1      -2.799  10.113  17.067  0.00  0.00    +0.000 Cl
ATOM     26  C   UNL     1      -0.222   9.676  17.745  0.00  0.00    +0.000 A 
ENDBRANCH  17  19
ENDBRANCH  16  17
ENDBRANCH   9  15
TORSDOF 6
ENDMDL
MODEL 3
REMARK VINA RESULT:      -7.8      1.088      1.491
REMARK  Name = 
REMARK  7 active torsions:
REMARK  status: ('A' for Active; 'I' for Inactive)
REMARK    1  A    between atoms: C_1  and  C_2
REMARK    2  A    between atoms: C_2  and  O_3
REMARK    3  A    between atoms: O_3  and  C_4
REMARK    4  A    between atoms: C_4  and  C_6
REMARK    5  A    between atoms: C_14  and  N_15
REMARK    6  A    between atoms: N_16  and  N_17
REMARK    7  A    between atoms: N_17  and  C_18
REMARK                            x       y       z     vdW  Elec       q    Type
REMARK                         _______ _______ _______ _____ _____    ______ ____
ROOT
ATOM      1  C   UNL     1       4.492   5.583  17.062  0.00  0.00    +0.000 A 
ATOM      2  S   UNL     1       4.402   3.873  17.077  0.00  0.00    +0.000 S 
ATOM      3  C   UNL     1       3.196   3.848  18.299  0.00  0.00    +0.000 A 
ATOM      4  C   UNL     1       2.577   2.707  18.849  0.00  0.00    +0.000 A 
ATOM      5  C   UNL     1       1.632   2.867  19.859  0.00  0.00    +0.000 A 
ATOM      6  C   UNL     1       1.293   4.133  20.314  0.00  0.00    +0.000 A 
ATOM      7  C   UNL     1       1.887   5.263  19.742  0.00  0.00    +0.000 A 
ATOM      8  C   UNL     1       2.865   5.139  18.718  0.00  0.00    +0.000 A 
ATOM      9  C   UNL     1       3.616   6.122  17.977  0.00  0.00    +0.000 A 
ENDROOT
BRANCH   1  10
ATOM     10  C   UNL     1       5.366   6.296  16.151  0.00  0.00    +0.000 C 
ATOM     11  O   UNL     1       4.994   6.993  15.212  0.00  0.00    +0.000 OA
BRANCH  10  12
ATOM     12  O   UNL     1       6.680   6.031  16.415  0.00  0.00    +0.000 OA
BRANCH  12  14
ATOM     13  C   UNL     1       7.659   7.912  17.522  0.00  0.00    +0.000 C 
ATOM     14  C   UNL     1       7.162   6.486  17.686  0.00  0.00    +0.000 C 
ENDBRANCH  12  14
ENDBRANCH  10  12
ENDBRANCH   1  10
BRANCH   9  15
ATOM     15  N   UNL     1       3.422   7.518  18.088  0.00  0.00    +0.000 NA
ATOM     16  N   UNL     1       2.267   7.875  17.801  0.00  0.00    +0.000 NA
BRANCH  16  17
ATOM     17  N   UNL     1       2.240   9.217  17.903  0.00  0.00    +0.000 N 
ATOM     18  H   UNL     1       2.448   9.735  17.054  0.00  0.00    +0.000 HD
BRANCH  17  19
ATOM     19  C   UNL     1       1.364   9.814  18.826  0.00  0.00    +0.000 A 
ATOM     20  C   UNL     1       0.782  11.072  18.591  0.00  0.00    +0.000 A 
ATOM     21  C   UNL     1      -0.157  11.612  19.474  0.00  0.00    +0.000 A 
ATOM     22  C   UNL     1      -0.539  10.887  20.595  0.00  0.00    +0.000 A 
ATOM     23  F   UNL     1      -1.453  11.413  21.423  0.00  0.00    +0.000 F 
ATOM     24  C   UNL     1       0.014   9.634  20.843  0.00  0.00    +0.000 A 
ATOM     25 CL   UNL     1      -0.462   8.727  22.228  0.00  0.00    +0.000 Cl
ATOM     26  C   UNL     1       0.956   9.096  19.961  0.00  0.00    +0.000 A 
ENDBRANCH  17  19
ENDBRANCH  16  17
ENDBRANCH   9  15
TORSDOF 6
ENDMDL
MODEL 4
REMARK VINA RESULT:      -7.7      2.117      4.075
REMARK  Name = 
REMARK  7 active torsions:
REMARK  status: ('A' for Active; 'I' for Inactive)
REMARK    1  A    between atoms: C_1  and  C_2
REMARK    2  A    between atoms: C_2  and  O_3
REMARK    3  A    between atoms: O_3  and  C_4
REMARK    4  A    between atoms: C_4  and  C_6
REMARK    5  A    between atoms: C_14  and  N_15
REMARK    6  A    between atoms: N_16  and  N_17
REMARK    7  A    between atoms: N_17  and  C_18
REMARK                            x       y       z     vdW  Elec       q    Type
REMARK                         _______ _______ _______ _____ _____    ______ ____
ROOT
ATOM      1  C   UNL     1       2.959   4.563  18.477  0.00  0.00    +0.000 A 
ATOM      2  S   UNL     1       4.312   3.516  18.554  0.00  0.00    +0.000 S 
ATOM      3  C   UNL     1       5.417   4.751  18.103  0.00  0.00    +0.000 A 
ATOM      4  C   UNL     1       6.815   4.623  17.968  0.00  0.00    +0.000 A 
ATOM      5  C   UNL     1       7.562   5.726  17.564  0.00  0.00    +0.000 A 
ATOM      6  C   UNL     1       6.945   6.942  17.307  0.00  0.00    +0.000 A 
ATOM      7  C   UNL     1       5.562   7.071  17.474  0.00  0.00    +0.000 A 
ATOM      8  C   UNL     1       4.764   5.964  17.872  0.00  0.00    +0.000 A 
ATOM      9  C   UNL     1       3.348   5.832  18.110  0.00  0.00    +0.000 A 
ENDROOT
BRANCH   1  10
ATOM     10  C   UNL     1       1.622   4.111  18.807  0.00  0.00    +0.000 C 
ATOM     11  O   UNL     1       0.889   3.463  18.065  0.00  0.00    +0.000 OA
BRANCH  10  12
ATOM     12  O   UNL     1       1.231   4.569  20.034  0.00  0.00    +0.000 OA
BRANCH  12  14
ATOM     13  C   UNL     1       1.506   2.669  21.460  0.00  0.00    +0.000 C 
ATOM     14  C   UNL     1       1.985   4.076  21.149  0.00  0.00    +0.000 C 
ENDBRANCH  12  14
ENDBRANCH  10  12
ENDBRANCH   1  10
BRANCH   9  15
ATOM     15  N   UNL     1       2.433   6.909  18.075  0.00  0.00    +0.000 NA
ATOM     16  N   UNL     1       2.475   7.620  19.093  0.00  0.00    +0.000 NA
BRANCH  16  17
ATOM     17  N   UNL     1       1.529   8.566  18.944  0.00  0.00    +0.000 N 
ATOM     18  H   UNL     1       0.991   8.530  18.084  0.00  0.00    +0.000 HD
BRANCH  17  19
ATOM     19  C   UNL     1       0.889   9.077  20.086  0.00  0.00    +0.000 A 
ATOM     20  C   UNL     1       1.193   8.613  21.378  0.00  0.00    +0.000 A 
ATOM     21  C   UNL     1       0.617   9.193  22.510  0.00  0.00    +0.000 A 
ATOM     22  C   UNL     1      -0.259  10.260  22.363  0.00  0.00    +0.000 A 
ATOM     23  F   UNL     1      -0.791  10.815  23.462  0.00  0.00    +0.000 F 
ATOM     24  C   UNL     1      -0.567  10.747  21.096  0.00  0.00    +0.000 A 
ATOM     25 CL   UNL     1      -1.647  12.075  20.908  0.00  0.00    +0.000 Cl
ATOM     26  C   UNL     1       0.008  10.163  19.962  0.00  0.00    +0.000 A 
ENDBRANCH  17  19
ENDBRANCH  16  17
ENDBRANCH   9  15
TORSDOF 6
ENDMDL
MODEL 5
REMARK VINA RESULT:      -7.7      1.710      2.225
REMARK  Name = 
REMARK  7 active torsions:
REMARK  status: ('A' for Active; 'I' for Inactive)
REMARK    1  A    between atoms: C_1  and  C_2
REMARK    2  A    between atoms: C_2  and  O_3
REMARK    3  A    between atoms: O_3  and  C_4
REMARK    4  A    between atoms: C_4  and  C_6
REMARK    5  A    between atoms: C_14  and  N_15
REMARK    6  A    between atoms: N_16  and  N_17
REMARK    7  A    between atoms: N_17  and  C_18
REMARK                            x       y       z     vdW  Elec       q    Type
REMARK                         _______ _______ _______ _____ _____    ______ ____
ROOT
ATOM      1  C   UNL     1       4.416   5.263  17.998  0.00  0.00    +0.000 A 
ATOM      2  S   UNL     1       4.997   3.802  18.676  0.00  0.00    +0.000 S 
ATOM      3  C   UNL     1       3.615   3.600  19.675  0.00  0.00    +0.000 A 
ATOM      4  C   UNL     1       3.365   2.534  20.562  0.00  0.00    +0.000 A 
ATOM      5  C   UNL     1       2.198   2.541  21.322  0.00  0.00    +0.000 A 
ATOM      6  C   UNL     1       1.285   3.579  21.203  0.00  0.00    +0.000 A 
ATOM      7  C   UNL     1       1.523   4.618  20.297  0.00  0.00    +0.000 A 
ATOM      8  C   UNL     1       2.709   4.651  19.514  0.00  0.00    +0.000 A 
ATOM      9  C   UNL     1       3.188   5.589  18.529  0.00  0.00    +0.000 A 
ENDROOT
BRANCH   1  10
ATOM     10  C   UNL     1       5.154   5.980  16.977  0.00  0.00    +0.000 C 
ATOM     11  O   UNL     1       5.636   7.101  17.107  0.00  0.00    +0.000 OA
BRANCH  10  12
ATOM     12  O   UNL     1       5.181   5.284  15.802  0.00  0.00    +0.000 OA
BRANCH  12  14
ATOM     13  C   UNL     1       6.320   4.188  14.006  0.00  0.00    +0.000 C 
ATOM     14  C   UNL     1       6.485   4.931  15.321  0.00  0.00    +0.000 C 
ENDBRANCH  12  14
ENDBRANCH  10  12
ENDBRANCH   1  10
BRANCH   9  15
ATOM     15  N   UNL     1       2.445   6.696  18.060  0.00  0.00    +0.000 NA
ATOM     16  N   UNL     1       2.547   7.697  18.788  0.00  0.00    +0.000 NA
BRANCH  16  17
ATOM     17  N   UNL     1       1.758   8.648  18.252  0.00  0.00    +0.000 N 
ATOM     18  H   UNL     1       1.376   8.447  17.333  0.00  0.00    +0.000 HD
BRANCH  17  19
ATOM     19  C   UNL     1       0.995   9.463  19.106  0.00  0.00    +0.000 A 
ATOM     20  C   UNL     1       0.193  10.508  18.614  0.00  0.00    +0.000 A 
ATOM     21  C   UNL     1      -0.630  11.250  19.464  0.00  0.00    +0.000 A 
ATOM     22  C   UNL     1      -0.674  10.942  20.818  0.00  0.00    +0.000 A 
ATOM     23  F   UNL     1      -1.481  11.654  21.616  0.00  0.00    +0.000 F 
ATOM     24  C   UNL     1       0.102   9.904  21.327  0.00  0.00    +0.000 A 
ATOM     25 CL   UNL     1       0.045   9.513  23.003  0.00  0.00    +0.000 Cl
ATOM     26  C   UNL     1       0.928   9.163  20.476  0.00  0.00    +0.000 A 
ENDBRANCH  17  19
ENDBRANCH  16  17
ENDBRANCH   9  15
TORSDOF 6
ENDMDL
MODEL 6
REMARK VINA RESULT:      -7.6      1.229      1.540
REMARK  Name = 
REMARK  7 active torsions:
REMARK  status: ('A' for Active; 'I' for Inactive)
REMARK    1  A    between atoms: C_1  and  C_2
REMARK    2  A    between atoms: C_2  and  O_3
REMARK    3  A    between atoms: O_3  and  C_4
REMARK    4  A    between atoms: C_4  and  C_6
REMARK    5  A    between atoms: C_14  and  N_15
REMARK    6  A    between atoms: N_16  and  N_17
REMARK    7  A    between atoms: N_17  and  C_18
REMARK                            x       y       z     vdW  Elec       q    Type
REMARK                         _______ _______ _______ _____ _____    ______ ____
ROOT
ATOM      1  C   UNL     1       4.338   5.412  17.087  0.00  0.00    +0.000 A 
ATOM      2  S   UNL     1       4.146   3.717  16.924  0.00  0.00    +0.000 S 
ATOM      3  C   UNL     1       2.890   3.648  18.093  0.00  0.00    +0.000 A 
ATOM      4  C   UNL     1       2.181   2.500  18.502  0.00  0.00    +0.000 A 
ATOM      5  C   UNL     1       1.206   2.618  19.488  0.00  0.00    +0.000 A 
ATOM      6  C   UNL     1       0.924   3.852  20.058  0.00  0.00    +0.000 A 
ATOM      7  C   UNL     1       1.608   4.993  19.626  0.00  0.00    +0.000 A 
ATOM      8  C   UNL     1       2.619   4.909  18.630  0.00  0.00    +0.000 A 
ATOM      9  C   UNL     1       3.458   5.911  18.020  0.00  0.00    +0.000 A 
ENDROOT
BRANCH   1  10
ATOM     10  C   UNL     1       5.290   6.154  16.285  0.00  0.00    +0.000 C 
ATOM     11  O   UNL     1       5.004   6.894  15.349  0.00  0.00    +0.000 OA
BRANCH  10  12
ATOM     12  O   UNL     1       6.576   5.866  16.647  0.00  0.00    +0.000 OA
BRANCH  12  14
ATOM     13  C   UNL     1       7.713   7.772  17.537  0.00  0.00    +0.000 C 
ATOM     14  C   UNL     1       7.024   6.461  17.871  0.00  0.00    +0.000 C 
ENDBRANCH  12  14
ENDBRANCH  10  12
ENDBRANCH   1  10
BRANCH   9  15
ATOM     15  N   UNL     1       3.343   7.299  18.266  0.00  0.00    +0.000 NA
ATOM     16  N   UNL     1       2.271   7.780  17.861  0.00  0.00    +0.000 NA
BRANCH  16  17
ATOM     17  N   UNL     1       2.319   9.101  18.116  0.00  0.00    +0.000 N 
ATOM     18  H   UNL     1       3.033   9.627  17.621  0.00  0.00    +0.000 HD
BRANCH  17  19
ATOM     19  C   UNL     1       1.131   9.776  18.446  0.00  0.00    +0.000 A 
ATOM     20  C   UNL     1      -0.039   9.638  17.679  0.00  0.00    +0.000 A 
ATOM     21  C   UNL     1      -1.236  10.241  18.070  0.00  0.00    +0.000 A 
ATOM     22  C   UNL     1      -1.281  10.977  19.247  0.00  0.00    +0.000 A 
ATOM     23  F   UNL     1      -2.443  11.536  19.615  0.00  0.00    +0.000 F 
ATOM     24  C   UNL     1      -0.139  11.118  20.030  0.00  0.00    +0.000 A 
ATOM     25 CL   UNL     1      -0.191  12.023  21.494  0.00  0.00    +0.000 Cl
ATOM     26  C   UNL     1       1.060  10.516  19.636  0.00  0.00    +0.000 A 
ENDBRANCH  17  19
ENDBRANCH  16  17
ENDBRANCH   9  15
TORSDOF 6
ENDMDL
MODEL 7
REMARK VINA RESULT:      -7.6      2.147      4.307
REMARK  Name = 
REMARK  7 active torsions:
REMARK  status: ('A' for Active; 'I' for Inactive)
REMARK    1  A    between atoms: C_1  and  C_2
REMARK    2  A    between atoms: C_2  and  O_3
REMARK    3  A    between atoms: O_3  and  C_4
REMARK    4  A    between atoms: C_4  and  C_6
REMARK    5  A    between atoms: C_14  and  N_15
REMARK    6  A    between atoms: N_16  and  N_17
REMARK    7  A    between atoms: N_17  and  C_18
REMARK                            x       y       z     vdW  Elec       q    Type
REMARK                         _______ _______ _______ _____ _____    ______ ____
ROOT
ATOM      1  C   UNL     1       3.123   4.764  18.218  0.00  0.00    +0.000 A 
ATOM      2  S   UNL     1       4.439   3.751  18.638  0.00  0.00    +0.000 S 
ATOM      3  C   UNL     1       5.608   4.956  18.281  0.00  0.00    +0.000 A 
ATOM      4  C   UNL     1       7.007   4.839  18.414  0.00  0.00    +0.000 A 
ATOM      5  C   UNL     1       7.817   5.911  18.051  0.00  0.00    +0.000 A 
ATOM      6  C   UNL     1       7.258   7.088  17.573  0.00  0.00    +0.000 A 
ATOM      7  C   UNL     1       5.867   7.210  17.473  0.00  0.00    +0.000 A 
ATOM      8  C   UNL     1       5.009   6.132  17.822  0.00  0.00    +0.000 A 
ATOM      9  C   UNL     1       3.574   5.999  17.811  0.00  0.00    +0.000 A 
ENDROOT
BRANCH   1  10
ATOM     10  C   UNL     1       1.747   4.323  18.341  0.00  0.00    +0.000 C 
ATOM     11  O   UNL     1       0.999   4.065  17.403  0.00  0.00    +0.000 OA
BRANCH  10  12
ATOM     12  O   UNL     1       1.346   4.306  19.647  0.00  0.00    +0.000 OA
BRANCH  12  14
ATOM     13  C   UNL     1       1.646   2.906  21.562  0.00  0.00    +0.000 C 
ATOM     14  C   UNL     1       1.026   3.015  20.181  0.00  0.00    +0.000 C 
ENDBRANCH  12  14
ENDBRANCH  10  12
ENDBRANCH   1  10
BRANCH   9  15
ATOM     15  N   UNL     1       2.682   7.054  17.509  0.00  0.00    +0.000 NA
ATOM     16  N   UNL     1       2.537   7.855  18.448  0.00  0.00    +0.000 NA
BRANCH  16  17
ATOM     17  N   UNL     1       1.635   8.769  18.041  0.00  0.00    +0.000 N 
ATOM     18  H   UNL     1       1.162   8.571  17.165  0.00  0.00    +0.000 HD
BRANCH  17  19
ATOM     19  C   UNL     1       0.928   9.506  19.007  0.00  0.00    +0.000 A 
ATOM     20  C   UNL     1       0.032  10.529  18.651  0.00  0.00    +0.000 A 
ATOM     21  C   UNL     1      -0.732  11.191  19.615  0.00  0.00    +0.000 A 
ATOM     22  C   UNL     1      -0.620  10.822  20.949  0.00  0.00    +0.000 A 
ATOM     23  F   UNL     1      -1.372  11.457  21.859  0.00  0.00    +0.000 F 
ATOM     24  C   UNL     1       0.251   9.804  21.326  0.00  0.00    +0.000 A 
ATOM     25 CL   UNL     1       0.388   9.338  22.978  0.00  0.00    +0.000 Cl
ATOM     26  C   UNL     1       1.018   9.144  20.360  0.00  0.00    +0.000 A 
ENDBRANCH  17  19
ENDBRANCH  16  17
ENDBRANCH   9  15
TORSDOF 6
ENDMDL
MODEL 8
REMARK VINA RESULT:      -7.6      1.297      1.388
REMARK  Name = 
REMARK  7 active torsions:
REMARK  status: ('A' for Active; 'I' for Inactive)
REMARK    1  A    between atoms: C_1  and  C_2
REMARK    2  A    between atoms: C_2  and  O_3
REMARK    3  A    between atoms: O_3  and  C_4
REMARK    4  A    between atoms: C_4  and  C_6
REMARK    5  A    between atoms: C_14  and  N_15
REMARK    6  A    between atoms: N_16  and  N_17
REMARK    7  A    between atoms: N_17  and  C_18
REMARK                            x       y       z     vdW  Elec       q    Type
REMARK                         _______ _______ _______ _____ _____    ______ ____
ROOT
ATOM      1  C   UNL     1       4.408   5.470  17.822  0.00  0.00    +0.000 A 
ATOM      2  S   UNL     1       4.996   3.996  18.469  0.00  0.00    +0.000 S 
ATOM      3  C   UNL     1       3.615   3.768  19.463  0.00  0.00    +0.000 A 
ATOM      4  C   UNL     1       3.369   2.682  20.328  0.00  0.00    +0.000 A 
ATOM      5  C   UNL     1       2.203   2.668  21.087  0.00  0.00    +0.000 A 
ATOM      6  C   UNL     1       1.285   3.704  20.990  0.00  0.00    +0.000 A 
ATOM      7  C   UNL     1       1.519   4.763  20.107  0.00  0.00    +0.000 A 
ATOM      8  C   UNL     1       2.705   4.818  19.325  0.00  0.00    +0.000 A 
ATOM      9  C   UNL     1       3.179   5.779  18.360  0.00  0.00    +0.000 A 
ENDROOT
BRANCH   1  10
ATOM     10  C   UNL     1       5.144   6.211  16.816  0.00  0.00    +0.000 C 
ATOM     11  O   UNL     1       5.134   5.973  15.612  0.00  0.00    +0.000 OA
BRANCH  10  12
ATOM     12  O   UNL     1       5.929   7.174  17.385  0.00  0.00    +0.000 OA
BRANCH  12  14
ATOM     13  C   UNL     1       7.883   6.551  18.616  0.00  0.00    +0.000 C 
ATOM     14  C   UNL     1       7.343   6.973  17.261  0.00  0.00    +0.000 C 
ENDBRANCH  12  14
ENDBRANCH  10  12
ENDBRANCH   1  10
BRANCH   9  15
ATOM     15  N   UNL     1       2.431   6.892  17.914  0.00  0.00    +0.000 NA
ATOM     16  N   UNL     1       2.530   7.879  18.663  0.00  0.00    +0.000 NA
BRANCH  16  17
ATOM     17  N   UNL     1       1.737   8.837  18.147  0.00  0.00    +0.000 N 
ATOM     18  H   UNL     1       1.474   8.725  17.173  0.00  0.00    +0.000 HD
BRANCH  17  19
ATOM     19  C   UNL     1       0.827   9.497  18.991  0.00  0.00    +0.000 A 
ATOM     20  C   UNL     1       0.990   9.518  20.387  0.00  0.00    +0.000 A 
ATOM     21  C   UNL     1       0.129  10.253  21.205  0.00  0.00    +0.000 A 
ATOM     22  C   UNL     1      -0.896  10.994  20.632  0.00  0.00    +0.000 A 
ATOM     23  F   UNL     1      -1.702  11.707  21.431  0.00  0.00    +0.000 F 
ATOM     24  C   UNL     1      -1.071  11.000  19.251  0.00  0.00    +0.000 A 
ATOM     25 CL   UNL     1      -2.335  11.922  18.534  0.00  0.00    +0.000 Cl
ATOM     26  C   UNL     1      -0.210  10.260  18.432  0.00  0.00    +0.000 A 
ENDBRANCH  17  19
ENDBRANCH  16  17
ENDBRANCH   9  15
TORSDOF 6
ENDMDL
MODEL 9
REMARK VINA RESULT:      -7.5      2.301      4.288
REMARK  Name = 
REMARK  7 active torsions:
REMARK  status: ('A' for Active; 'I' for Inactive)
REMARK    1  A    between atoms: C_1  and  C_2
REMARK    2  A    between atoms: C_2  and  O_3
REMARK    3  A    between atoms: O_3  and  C_4
REMARK    4  A    between atoms: C_4  and  C_6
REMARK    5  A    between atoms: C_14  and  N_15
REMARK    6  A    between atoms: N_16  and  N_17
REMARK    7  A    between atoms: N_17  and  C_18
REMARK                            x       y       z     vdW  Elec       q    Type
REMARK                         _______ _______ _______ _____ _____    ______ ____
ROOT
ATOM      1  C   UNL     1       3.127   3.926  17.953  0.00  0.00    +0.000 A 
ATOM      2  S   UNL     1       4.015   3.261  16.646  0.00  0.00    +0.000 S 
ATOM      3  C   UNL     1       5.277   4.417  16.788  0.00  0.00    +0.000 A 
ATOM      4  C   UNL     1       6.444   4.490  16.000  0.00  0.00    +0.000 A 
ATOM      5  C   UNL     1       7.357   5.515  16.233  0.00  0.00    +0.000 A 
ATOM      6  C   UNL     1       7.131   6.449  17.234  0.00  0.00    +0.000 A 
ATOM      7  C   UNL     1       5.987   6.352  18.033  0.00  0.00    +0.000 A 
ATOM      8  C   UNL     1       5.026   5.327  17.817  0.00  0.00    +0.000 A 
ATOM      9  C   UNL     1       3.787   5.012  18.483  0.00  0.00    +0.000 A 
ENDROOT
BRANCH   1  10
ATOM     10  C   UNL     1       1.880   3.342  18.406  0.00  0.00    +0.000 C 
ATOM     11  O   UNL     1       0.775   3.566  17.921  0.00  0.00    +0.000 OA
BRANCH  10  12
ATOM     12  O   UNL     1       2.070   2.562  19.511  0.00  0.00    +0.000 OA
BRANCH  12  14
ATOM     13  C   UNL     1       2.138   2.982  21.865  0.00  0.00    +0.000 C 
ATOM     14  C   UNL     1       1.246   2.876  20.641  0.00  0.00    +0.000 C 
ENDBRANCH  12  14
ENDBRANCH  10  12
ENDBRANCH   1  10
BRANCH   9  15
ATOM     15  N   UNL     1       3.315   5.677  19.638  0.00  0.00    +0.000 NA
ATOM     16  N   UNL     1       2.547   6.620  19.380  0.00  0.00    +0.000 NA
BRANCH  16  17
ATOM     17  N   UNL     1       2.218   7.184  20.557  0.00  0.00    +0.000 N 
ATOM     18  H   UNL     1       2.886   7.066  21.313  0.00  0.00    +0.000 HD
BRANCH  17  19
ATOM     19  C   UNL     1       1.441   8.355  20.559  0.00  0.00    +0.000 A 
ATOM     20  C   UNL     1       1.199   9.088  19.383  0.00  0.00    +0.000 A 
ATOM     21  C   UNL     1       0.350  10.197  19.383  0.00  0.00    +0.000 A 
ATOM     22  C   UNL     1      -0.283  10.575  20.560  0.00  0.00    +0.000 A 
ATOM     23  F   UNL     1      -1.107  11.633  20.537  0.00  0.00    +0.000 F 
ATOM     24  C   UNL     1      -0.070   9.859  21.734  0.00  0.00    +0.000 A 
ATOM     25 CL   UNL     1      -0.860  10.319  23.194  0.00  0.00    +0.000 Cl
ATOM     26  C   UNL     1       0.783   8.750  21.734  0.00  0.00    +0.000 A 
ENDBRANCH  17  19
ENDBRANCH  16  17
ENDBRANCH   9  15
TORSDOF 6
ENDMDL
