MODEL 1
REMARK VINA RESULT:      -6.9      0.000      0.000
REMARK  Name = 
REMARK  4 active torsions:
REMARK  status: ('A' for Active; 'I' for Inactive)
REMARK    1  A    between atoms: C_1  and  O_2
REMARK    2  A    between atoms: O_2  and  C_3
REMARK    3  A    between atoms: N_21  and  C_22
REMARK    4  A    between atoms: N_25  and  C_26
REMARK                            x       y       z     vdW  Elec       q    Type
REMARK                         _______ _______ _______ _____ _____    ______ ____
ROOT
ATOM      1  C   UNL     1       2.955  16.306  19.363  0.00  0.00    +0.000 C 
ATOM      2  C   UNL     1       3.587  14.921  19.540  0.00  0.00    +0.000 C 
ATOM      3  C   UNL     1       2.726  13.946  20.375  0.00  0.00    +0.000 C 
ATOM      4  C   UNL     1       1.274  13.801  19.862  0.00  0.00    +0.000 C 
ATOM      5  C   UNL     1       0.715  15.226  19.318  0.00  0.00    +0.000 C 
ATOM      6  C   UNL     1       1.667  16.135  18.571  0.00  0.00    +0.000 C 
ATOM      7  C   UNL     1       1.256  12.982  18.517  0.00  0.00    +0.000 C 
ATOM      8  C   UNL     1       1.091  11.578  18.953  0.00  0.00    +0.000 A 
ATOM      9  C   UNL     1       1.562  10.489  18.218  0.00  0.00    +0.000 A 
ATOM     10  C   UNL     1       1.553   9.237  18.804  0.00  0.00    +0.000 A 
ATOM     11  C   UNL     1       1.064   9.109  20.110  0.00  0.00    +0.000 A 
ATOM     12 BR   UNL     1       1.213   7.416  20.953  0.00  0.00    +0.000 Br
ATOM     13  C   UNL     1       0.551  10.214  20.818  0.00  0.00    +0.000 A 
ATOM     14  C   UNL     1       0.517  11.475  20.223  0.00  0.00    +0.000 A 
ATOM     15  C   UNL     1       0.278  12.858  20.867  0.00  0.00    +0.000 C 
ATOM     16  N   UNL     1      -0.806  13.721  20.507  0.00  0.00    +0.000 N 
ATOM     17  C   UNL     1      -0.949  14.509  21.686  0.00  0.00    +0.000 C 
ATOM     18  S   UNL     1       0.023  15.641  22.513  0.00  0.00    +0.000 S 
ATOM     19  N   UNL     1      -1.703  13.679  22.403  0.00  0.00    +0.000 N 
ATOM     20  C   UNL     1      -0.766  12.665  22.348  0.00  0.00    +0.000 C 
ATOM     21  O   UNL     1      -0.647  11.785  23.191  0.00  0.00    +0.000 OA
ATOM     22  H   UNL     1      -1.637  13.213  20.230  0.00  0.00    +0.000 HD
ENDROOT
BRANCH  19  23
ATOM     23  C   UNL     1      -2.819  14.364  23.107  0.00  0.00    +0.000 C 
ATOM     24  C   UNL     1      -4.075  14.347  22.155  0.00  0.00    +0.000 C 
ATOM     25  C   UNL     1      -4.650  12.932  22.037  0.00  0.00    +0.000 C 
ATOM     26  N   UNL     1      -5.072  12.382  23.309  0.00  0.00    +0.000 NA
ATOM     27  C   UNL     1      -6.411  12.824  23.669  0.00  0.00    +0.000 C 
ATOM     28  C   UNL     1      -4.067  12.532  24.374  0.00  0.00    +0.000 C 
ATOM     29  C   UNL     1      -3.305  13.850  24.453  0.00  0.00    +0.000 C 
ENDBRANCH  19  23
BRANCH   1  31
ATOM     30  C   UNL     1       2.300  18.307  20.517  0.00  0.00    +0.000 C 
ATOM     31  O   UNL     1       2.629  16.935  20.602  0.00  0.00    +0.000 OA
ENDBRANCH   1  31
TORSDOF 2
ENDMDL
MODEL 2
REMARK VINA RESULT:      -6.4      2.360      6.362
REMARK  Name = 
REMARK  4 active torsions:
REMARK  status: ('A' for Active; 'I' for Inactive)
REMARK    1  A    between atoms: C_1  and  O_2
REMARK    2  A    between atoms: O_2  and  C_3
REMARK    3  A    between atoms: N_21  and  C_22
REMARK    4  A    between atoms: N_25  and  C_26
REMARK                            x       y       z     vdW  Elec       q    Type
REMARK                         _______ _______ _______ _____ _____    ______ ____
ROOT
ATOM      1  C   UNL     1      -4.336  14.772  21.831  0.00  0.00    +0.000 C 
ATOM      2  C   UNL     1      -4.213  13.294  21.446  0.00  0.00    +0.000 C 
ATOM      3  C   UNL     1      -2.840  12.921  20.842  0.00  0.00    +0.000 C 
ATOM      4  C   UNL     1      -1.637  13.340  21.721  0.00  0.00    +0.000 C 
ATOM      5  C   UNL     1      -1.925  14.768  22.439  0.00  0.00    +0.000 C 
ATOM      6  C   UNL     1      -3.327  15.056  22.933  0.00  0.00    +0.000 C 
ATOM      7  C   UNL     1      -1.553  12.418  22.994  0.00  0.00    +0.000 C 
ATOM      8  C   UNL     1      -0.674  11.304  22.573  0.00  0.00    +0.000 A 
ATOM      9  C   UNL     1      -0.751  10.021  23.119  0.00  0.00    +0.000 A 
ATOM     10  C   UNL     1      -0.042   8.998  22.517  0.00  0.00    +0.000 A 
ATOM     11  C   UNL     1       0.730   9.290  21.387  0.00  0.00    +0.000 A 
ATOM     12 BR   UNL     1       1.561   7.844  20.482  0.00  0.00    +0.000 Br
ATOM     13  C   UNL     1       0.830  10.600  20.878  0.00  0.00    +0.000 A 
ATOM     14  C   UNL     1       0.153  11.649  21.501  0.00  0.00    +0.000 A 
ATOM     15  C   UNL     1      -0.125  13.079  20.990  0.00  0.00    +0.000 C 
ATOM     16  N   UNL     1       0.336  14.260  21.654  0.00  0.00    +0.000 N 
ATOM     17  C   UNL     1       0.368  15.199  20.582  0.00  0.00    +0.000 C 
ATOM     18  S   UNL     1      -0.799  15.912  19.561  0.00  0.00    +0.000 S 
ATOM     19  N   UNL     1       1.556  14.892  20.068  0.00  0.00    +0.000 N 
ATOM     20  C   UNL     1       1.196  13.578  19.837  0.00  0.00    +0.000 C 
ATOM     21  O   UNL     1       1.683  12.869  18.965  0.00  0.00    +0.000 OA
ATOM     22  H   UNL     1       1.222  14.124  22.127  0.00  0.00    +0.000 HD
ENDROOT
BRANCH  19  23
ATOM     23  C   UNL     1       2.365  16.087  19.710  0.00  0.00    +0.000 C 
ATOM     24  C   UNL     1       3.647  16.095  20.627  0.00  0.00    +0.000 C 
ATOM     25  C   UNL     1       4.612  14.976  20.224  0.00  0.00    +0.000 C 
ATOM     26  N   UNL     1       5.068  15.086  18.854  0.00  0.00    +0.000 NA
ATOM     27  C   UNL     1       6.189  16.007  18.732  0.00  0.00    +0.000 C 
ATOM     28  C   UNL     1       3.979  15.312  17.891  0.00  0.00    +0.000 C 
ATOM     29  C   UNL     1       2.866  16.274  18.287  0.00  0.00    +0.000 C 
ENDBRANCH  19  23
BRANCH   1  31
ATOM     30  C   UNL     1      -4.580  16.965  20.884  0.00  0.00    +0.000 C 
ATOM     31  O   UNL     1      -4.063  15.658  20.745  0.00  0.00    +0.000 OA
ENDBRANCH   1  31
TORSDOF 2
ENDMDL
MODEL 3
REMARK VINA RESULT:      -6.3      2.172      6.319
REMARK  Name = 
REMARK  4 active torsions:
REMARK  status: ('A' for Active; 'I' for Inactive)
REMARK    1  A    between atoms: C_1  and  O_2
REMARK    2  A    between atoms: O_2  and  C_3
REMARK    3  A    between atoms: N_21  and  C_22
REMARK    4  A    between atoms: N_25  and  C_26
REMARK                            x       y       z     vdW  Elec       q    Type
REMARK                         _______ _______ _______ _____ _____    ______ ____
ROOT
ATOM      1  C   UNL     1      -3.989  13.871  23.048  0.00  0.00    +0.000 C 
ATOM      2  C   UNL     1      -3.898  12.624  22.161  0.00  0.00    +0.000 C 
ATOM      3  C   UNL     1      -2.674  12.620  21.217  0.00  0.00    +0.000 C 
ATOM      4  C   UNL     1      -1.327  12.852  21.942  0.00  0.00    +0.000 C 
ATOM      5  C   UNL     1      -1.505  13.925  23.149  0.00  0.00    +0.000 C 
ATOM      6  C   UNL     1      -2.778  13.882  23.967  0.00  0.00    +0.000 C 
ATOM      7  C   UNL     1      -0.938  11.577  22.779  0.00  0.00    +0.000 C 
ATOM      8  C   UNL     1      -0.131  10.765  21.842  0.00  0.00    +0.000 A 
ATOM      9  C   UNL     1      -0.042   9.373  21.917  0.00  0.00    +0.000 A 
ATOM     10  C   UNL     1       0.557   8.688  20.877  0.00  0.00    +0.000 A 
ATOM     11  C   UNL     1       1.059   9.417  19.792  0.00  0.00    +0.000 A 
ATOM     12 BR   UNL     1       1.727   8.447  18.304  0.00  0.00    +0.000 Br
ATOM     13  C   UNL     1       0.999  10.824  19.756  0.00  0.00    +0.000 A 
ATOM     14  C   UNL     1       0.435  11.530  20.818  0.00  0.00    +0.000 A 
ATOM     15  C   UNL     1       0.002  13.011  20.894  0.00  0.00    +0.000 C 
ATOM     16  N   UNL     1       0.552  13.949  21.823  0.00  0.00    +0.000 N 
ATOM     17  C   UNL     1       0.319  15.186  21.156  0.00  0.00    +0.000 C 
ATOM     18  S   UNL     1      -1.065  16.066  20.684  0.00  0.00    +0.000 S 
ATOM     19  N   UNL     1       1.379  15.195  20.352  0.00  0.00    +0.000 N 
ATOM     20  C   UNL     1       1.026  13.999  19.755  0.00  0.00    +0.000 C 
ATOM     21  O   UNL     1       1.340  13.673  18.617  0.00  0.00    +0.000 OA
ATOM     22  H   UNL     1       1.523  13.760  22.044  0.00  0.00    +0.000 HD
ENDROOT
BRANCH  19  23
ATOM     23  C   UNL     1       2.049  16.520  20.282  0.00  0.00    +0.000 C 
ATOM     24  C   UNL     1       3.421  16.410  21.050  0.00  0.00    +0.000 C 
ATOM     25  C   UNL     1       4.418  15.553  20.264  0.00  0.00    +0.000 C 
ATOM     26  N   UNL     1       4.709  16.084  18.948  0.00  0.00    +0.000 NA
ATOM     27  C   UNL     1       5.735  17.115  18.998  0.00  0.00    +0.000 C 
ATOM     28  C   UNL     1       3.505  16.450  18.186  0.00  0.00    +0.000 C 
ATOM     29  C   UNL     1       2.372  17.144  18.933  0.00  0.00    +0.000 C 
ENDBRANCH  19  23
BRANCH   1  31
ATOM     30  C   UNL     1      -5.205  15.411  21.663  0.00  0.00    +0.000 C 
ATOM     31  O   UNL     1      -3.987  15.089  22.303  0.00  0.00    +0.000 OA
ENDBRANCH   1  31
TORSDOF 2
ENDMDL
MODEL 4
REMARK VINA RESULT:      -6.3      2.997      6.687
REMARK  Name = 
REMARK  4 active torsions:
REMARK  status: ('A' for Active; 'I' for Inactive)
REMARK    1  A    between atoms: C_1  and  O_2
REMARK    2  A    between atoms: O_2  and  C_3
REMARK    3  A    between atoms: N_21  and  C_22
REMARK    4  A    between atoms: N_25  and  C_26
REMARK                            x       y       z     vdW  Elec       q    Type
REMARK                         _______ _______ _______ _____ _____    ______ ____
ROOT
ATOM      1  C   UNL     1      -2.678  16.793  24.960  0.00  0.00    +0.000 C 
ATOM      2  C   UNL     1      -3.870  16.794  23.996  0.00  0.00    +0.000 C 
ATOM      3  C   UNL     1      -3.698  15.840  22.792  0.00  0.00    +0.000 C 
ATOM      4  C   UNL     1      -3.346  14.388  23.193  0.00  0.00    +0.000 C 
ATOM      5  C   UNL     1      -2.350  14.376  24.477  0.00  0.00    +0.000 C 
ATOM      6  C   UNL     1      -2.568  15.403  25.567  0.00  0.00    +0.000 C 
ATOM      7  C   UNL     1      -4.602  13.684  23.829  0.00  0.00    +0.000 C 
ATOM      8  C   UNL     1      -5.279  13.050  22.677  0.00  0.00    +0.000 A 
ATOM      9  C   UNL     1      -6.654  12.808  22.637  0.00  0.00    +0.000 A 
ATOM     10  C   UNL     1      -7.225  12.412  21.442  0.00  0.00    +0.000 A 
ATOM     11  C   UNL     1      -6.401  12.262  20.320  0.00  0.00    +0.000 A 
ATOM     12 BR   UNL     1      -7.228  11.879  18.655  0.00  0.00    +0.000 Br
ATOM     13  C   UNL     1      -5.009  12.468  20.392  0.00  0.00    +0.000 A 
ATOM     14  C   UNL     1      -4.415  12.827  21.601  0.00  0.00    +0.000 A 
ATOM     15  C   UNL     1      -2.996  13.374  21.875  0.00  0.00    +0.000 C 
ATOM     16  N   UNL     1      -2.041  12.712  22.709  0.00  0.00    +0.000 N 
ATOM     17  C   UNL     1      -0.812  13.221  22.198  0.00  0.00    +0.000 C 
ATOM     18  S   UNL     1      -0.074  14.758  22.125  0.00  0.00    +0.000 S 
ATOM     19  N   UNL     1      -0.651  12.392  21.170  0.00  0.00    +0.000 N 
ATOM     20  C   UNL     1      -1.854  12.758  20.595  0.00  0.00    +0.000 C 
ATOM     21  O   UNL     1      -2.096  12.698  19.396  0.00  0.00    +0.000 OA
ATOM     22  H   UNL     1      -2.128  11.703  22.682  0.00  0.00    +0.000 HD
ENDROOT
BRANCH  19  23
ATOM     23  C   UNL     1       0.743  11.895  21.032  0.00  0.00    +0.000 C 
ATOM     24  C   UNL     1       0.738  10.350  21.348  0.00  0.00    +0.000 C 
ATOM     25  C   UNL     1       0.052   9.566  20.225  0.00  0.00    +0.000 C 
ATOM     26  N   UNL     1       0.695   9.736  18.939  0.00  0.00    +0.000 NA
ATOM     27  C   UNL     1       1.830   8.837  18.782  0.00  0.00    +0.000 C 
ATOM     28  C   UNL     1       0.972  11.141  18.604  0.00  0.00    +0.000 C 
ATOM     29  C   UNL     1       1.484  12.051  19.714  0.00  0.00    +0.000 C 
ENDBRANCH  19  23
BRANCH   1  31
ATOM     30  C   UNL     1      -1.244  18.449  23.978  0.00  0.00    +0.000 C 
ATOM     31  O   UNL     1      -1.439  17.092  24.318  0.00  0.00    +0.000 OA
ENDBRANCH   1  31
TORSDOF 2
ENDMDL
MODEL 5
REMARK VINA RESULT:      -6.2      6.514      9.267
REMARK  Name = 
REMARK  4 active torsions:
REMARK  status: ('A' for Active; 'I' for Inactive)
REMARK    1  A    between atoms: C_1  and  O_2
REMARK    2  A    between atoms: O_2  and  C_3
REMARK    3  A    between atoms: N_21  and  C_22
REMARK    4  A    between atoms: N_25  and  C_26
REMARK                            x       y       z     vdW  Elec       q    Type
REMARK                         _______ _______ _______ _____ _____    ______ ____
ROOT
ATOM      1  C   UNL     1      11.506  12.278  18.489  0.00  0.00    +0.000 C 
ATOM      2  C   UNL     1      11.804  12.505  19.976  0.00  0.00    +0.000 C 
ATOM      3  C   UNL     1      10.791  13.437  20.678  0.00  0.00    +0.000 C 
ATOM      4  C   UNL     1       9.316  13.007  20.496  0.00  0.00    +0.000 C 
ATOM      5  C   UNL     1       9.076  12.409  19.004  0.00  0.00    +0.000 C 
ATOM      6  C   UNL     1      10.167  11.563  18.384  0.00  0.00    +0.000 C 
ATOM      7  C   UNL     1       9.022  11.715  21.346  0.00  0.00    +0.000 C 
ATOM      8  C   UNL     1       8.559  12.241  22.649  0.00  0.00    +0.000 A 
ATOM      9  C   UNL     1       8.713  11.548  23.852  0.00  0.00    +0.000 A 
ATOM     10  C   UNL     1       8.446  12.207  25.037  0.00  0.00    +0.000 A 
ATOM     11  C   UNL     1       8.023  13.540  24.986  0.00  0.00    +0.000 A 
ATOM     12 BR   UNL     1       7.821  14.473  26.626  0.00  0.00    +0.000 Br
ATOM     13  C   UNL     1       7.830  14.207  23.760  0.00  0.00    +0.000 A 
ATOM     14  C   UNL     1       8.057  13.542  22.555  0.00  0.00    +0.000 A 
ATOM     15  C   UNL     1       8.191  14.114  21.127  0.00  0.00    +0.000 C 
ATOM     16  N   UNL     1       7.321  13.759  20.048  0.00  0.00    +0.000 N 
ATOM     17  C   UNL     1       7.441  14.895  19.196  0.00  0.00    +0.000 C 
ATOM     18  S   UNL     1       8.703  15.605  18.292  0.00  0.00    +0.000 S 
ATOM     19  N   UNL     1       6.559  15.696  19.789  0.00  0.00    +0.000 N 
ATOM     20  C   UNL     1       7.226  15.654  20.998  0.00  0.00    +0.000 C 
ATOM     21  O   UNL     1       7.187  16.540  21.842  0.00  0.00    +0.000 OA
ATOM     22  H   UNL     1       6.378  13.554  20.355  0.00  0.00    +0.000 HD
ENDROOT
BRANCH  19  23
ATOM     23  C   UNL     1       5.682  16.414  18.826  0.00  0.00    +0.000 C 
ATOM     24  C   UNL     1       4.850  15.336  18.033  0.00  0.00    +0.000 C 
ATOM     25  C   UNL     1       3.797  14.688  18.938  0.00  0.00    +0.000 C 
ATOM     26  N   UNL     1       2.851  15.641  19.480  0.00  0.00    +0.000 NA
ATOM     27  C   UNL     1       1.774  15.926  18.543  0.00  0.00    +0.000 C 
ATOM     28  C   UNL     1       3.490  16.831  20.064  0.00  0.00    +0.000 C 
ATOM     29  C   UNL     1       4.676  17.438  19.325  0.00  0.00    +0.000 C 
ENDBRANCH  19  23
BRANCH   1  31
ATOM     30  C   UNL     1      11.601  13.364  16.350  0.00  0.00    +0.000 C 
ATOM     31  O   UNL     1      11.415  13.493  17.745  0.00  0.00    +0.000 OA
ENDBRANCH   1  31
TORSDOF 2
ENDMDL
MODEL 6
REMARK VINA RESULT:      -5.9      1.168      1.270
REMARK  Name = 
REMARK  4 active torsions:
REMARK  status: ('A' for Active; 'I' for Inactive)
REMARK    1  A    between atoms: C_1  and  O_2
REMARK    2  A    between atoms: O_2  and  C_3
REMARK    3  A    between atoms: N_21  and  C_22
REMARK    4  A    between atoms: N_25  and  C_26
REMARK                            x       y       z     vdW  Elec       q    Type
REMARK                         _______ _______ _______ _____ _____    ______ ____
ROOT
ATOM      1  C   UNL     1       3.796  16.398  18.804  0.00  0.00    +0.000 C 
ATOM      2  C   UNL     1       4.210  14.961  19.142  0.00  0.00    +0.000 C 
ATOM      3  C   UNL     1       3.223  14.233  20.083  0.00  0.00    +0.000 C 
ATOM      4  C   UNL     1       1.758  14.257  19.588  0.00  0.00    +0.000 C 
ATOM      5  C   UNL     1       1.416  15.680  18.882  0.00  0.00    +0.000 C 
ATOM      6  C   UNL     1       2.484  16.338  18.036  0.00  0.00    +0.000 C 
ATOM      7  C   UNL     1       1.592  13.303  18.347  0.00  0.00    +0.000 C 
ATOM      8  C   UNL     1       1.220  12.000  18.943  0.00  0.00    +0.000 A 
ATOM      9  C   UNL     1       1.506  10.774  18.340  0.00  0.00    +0.000 A 
ATOM     10  C   UNL     1       1.314   9.614  19.067  0.00  0.00    +0.000 A 
ATOM     11  C   UNL     1       0.833   9.714  20.378  0.00  0.00    +0.000 A 
ATOM     12 BR   UNL     1       0.733   8.126  21.412  0.00  0.00    +0.000 Br
ATOM     13  C   UNL     1       0.508  10.959  20.953  0.00  0.00    +0.000 A 
ATOM     14  C   UNL     1       0.658  12.133  20.216  0.00  0.00    +0.000 A 
ATOM     15  C   UNL     1       0.646  13.602  20.694  0.00  0.00    +0.000 C 
ATOM     16  N   UNL     1      -0.298  14.575  20.236  0.00  0.00    +0.000 N 
ATOM     17  C   UNL     1      -0.299  15.505  21.316  0.00  0.00    +0.000 C 
ATOM     18  S   UNL     1       0.850  16.561  22.007  0.00  0.00    +0.000 S 
ATOM     19  N   UNL     1      -1.160  14.890  22.123  0.00  0.00    +0.000 N 
ATOM     20  C   UNL     1      -0.390  13.744  22.187  0.00  0.00    +0.000 C 
ATOM     21  O   UNL     1      -0.394  12.958  23.126  0.00  0.00    +0.000 OA
ATOM     22  H   UNL     1      -1.202  14.173  20.019  0.00  0.00    +0.000 HD
ENDROOT
BRANCH  19  23
ATOM     23  C   UNL     1      -2.145  15.816  22.742  0.00  0.00    +0.000 C 
ATOM     24  C   UNL     1      -3.472  15.746  21.895  0.00  0.00    +0.000 C 
ATOM     25  C   UNL     1      -4.182  14.405  22.105  0.00  0.00    +0.000 C 
ATOM     26  N   UNL     1      -4.545  14.165  23.486  0.00  0.00    +0.000 NA
ATOM     27  C   UNL     1      -5.804  14.810  23.832  0.00  0.00    +0.000 C 
ATOM     28  C   UNL     1      -3.446  14.414  24.432  0.00  0.00    +0.000 C 
ATOM     29  C   UNL     1      -2.561  15.631  24.192  0.00  0.00    +0.000 C 
ENDBRANCH  19  23
BRANCH   1  31
ATOM     30  C   UNL     1       4.766  17.616  20.631  0.00  0.00    +0.000 C 
ATOM     31  O   UNL     1       3.591  17.208  19.962  0.00  0.00    +0.000 OA
ENDBRANCH   1  31
TORSDOF 2
ENDMDL
MODEL 7
REMARK VINA RESULT:      -5.8      6.138      8.770
REMARK  Name = 
REMARK  4 active torsions:
REMARK  status: ('A' for Active; 'I' for Inactive)
REMARK    1  A    between atoms: C_1  and  O_2
REMARK    2  A    between atoms: O_2  and  C_3
REMARK    3  A    between atoms: N_21  and  C_22
REMARK    4  A    between atoms: N_25  and  C_26
REMARK                            x       y       z     vdW  Elec       q    Type
REMARK                         _______ _______ _______ _____ _____    ______ ____
ROOT
ATOM      1  C   UNL     1      11.270  13.789  18.075  0.00  0.00    +0.000 C 
ATOM      2  C   UNL     1      11.588  13.780  19.575  0.00  0.00    +0.000 C 
ATOM      3  C   UNL     1      10.480  14.410  20.450  0.00  0.00    +0.000 C 
ATOM      4  C   UNL     1       9.076  13.810  20.205  0.00  0.00    +0.000 C 
ATOM      5  C   UNL     1       8.867  13.468  18.631  0.00  0.00    +0.000 C 
ATOM      6  C   UNL     1      10.042  12.919  17.852  0.00  0.00    +0.000 C 
ATOM      7  C   UNL     1       8.999  12.356  20.802  0.00  0.00    +0.000 C 
ATOM      8  C   UNL     1       8.514  12.560  22.185  0.00  0.00    +0.000 A 
ATOM      9  C   UNL     1       8.810  11.689  23.235  0.00  0.00    +0.000 A 
ATOM     10  C   UNL     1       8.496  12.072  24.526  0.00  0.00    +0.000 A 
ATOM     11  C   UNL     1       7.888  13.317  24.729  0.00  0.00    +0.000 A 
ATOM     12 BR   UNL     1       7.617  13.892  26.517  0.00  0.00    +0.000 Br
ATOM     13  C   UNL     1       7.557  14.162  23.651  0.00  0.00    +0.000 A 
ATOM     14  C   UNL     1       7.831  13.769  22.341  0.00  0.00    +0.000 A 
ATOM     15  C   UNL     1       7.830  14.607  21.044  0.00  0.00    +0.000 C 
ATOM     16  N   UNL     1       6.979  14.333  19.926  0.00  0.00    +0.000 N 
ATOM     17  C   UNL     1       6.906  15.612  19.301  0.00  0.00    +0.000 C 
ATOM     18  S   UNL     1       8.020  16.651  18.533  0.00  0.00    +0.000 S 
ATOM     19  N   UNL     1       5.942  16.153  20.042  0.00  0.00    +0.000 N 
ATOM     20  C   UNL     1       6.652  15.987  21.216  0.00  0.00    +0.000 C 
ATOM     21  O   UNL     1       6.520  16.688  22.211  0.00  0.00    +0.000 OA
ATOM     22  H   UNL     1       6.086  13.940  20.199  0.00  0.00    +0.000 HD
ENDROOT
BRANCH  19  23
ATOM     23  C   UNL     1       4.937  16.900  19.240  0.00  0.00    +0.000 C 
ATOM     24  C   UNL     1       4.277  15.887  18.228  0.00  0.00    +0.000 C 
ATOM     25  C   UNL     1       3.365  14.900  18.964  0.00  0.00    +0.000 C 
ATOM     26  N   UNL     1       2.288  15.548  19.682  0.00  0.00    +0.000 NA
ATOM     27  C   UNL     1       1.158  15.839  18.811  0.00  0.00    +0.000 C 
ATOM     28  C   UNL     1       2.734  16.680  20.510  0.00  0.00    +0.000 C 
ATOM     29  C   UNL     1       3.787  17.616  19.929  0.00  0.00    +0.000 C 
ENDBRANCH  19  23
BRANCH   1  31
ATOM     30  C   UNL     1      12.107  15.904  17.306  0.00  0.00    +0.000 C 
ATOM     31  O   UNL     1      10.981  15.094  17.572  0.00  0.00    +0.000 OA
ENDBRANCH   1  31
TORSDOF 2
ENDMDL
MODEL 8
REMARK VINA RESULT:      -5.8      1.947      2.258
REMARK  Name = 
REMARK  4 active torsions:
REMARK  status: ('A' for Active; 'I' for Inactive)
REMARK    1  A    between atoms: C_1  and  O_2
REMARK    2  A    between atoms: O_2  and  C_3
REMARK    3  A    between atoms: N_21  and  C_22
REMARK    4  A    between atoms: N_25  and  C_26
REMARK                            x       y       z     vdW  Elec       q    Type
REMARK                         _______ _______ _______ _____ _____    ______ ____
ROOT
ATOM      1  C   UNL     1       4.173  16.287  18.389  0.00  0.00    +0.000 C 
ATOM      2  C   UNL     1       4.385  14.849  18.877  0.00  0.00    +0.000 C 
ATOM      3  C   UNL     1       3.330  14.380  19.905  0.00  0.00    +0.000 C 
ATOM      4  C   UNL     1       1.870  14.565  19.429  0.00  0.00    +0.000 C 
ATOM      5  C   UNL     1       1.718  15.939  18.575  0.00  0.00    +0.000 C 
ATOM      6  C   UNL     1       2.846  16.339  17.648  0.00  0.00    +0.000 C 
ATOM      7  C   UNL     1       1.533  13.518  18.303  0.00  0.00    +0.000 C 
ATOM      8  C   UNL     1       0.994  12.356  19.043  0.00  0.00    +0.000 A 
ATOM      9  C   UNL     1       1.082  11.043  18.576  0.00  0.00    +0.000 A 
ATOM     10  C   UNL     1       0.745  10.009  19.429  0.00  0.00    +0.000 A 
ATOM     11  C   UNL     1       0.321  10.319  20.727  0.00  0.00    +0.000 A 
ATOM     12 BR   UNL     1       0.022   8.883  21.930  0.00  0.00    +0.000 Br
ATOM     13  C   UNL     1       0.196  11.652  21.164  0.00  0.00    +0.000 A 
ATOM     14  C   UNL     1       0.493  12.706  20.301  0.00  0.00    +0.000 A 
ATOM     15  C   UNL     1       0.707  14.203  20.614  0.00  0.00    +0.000 C 
ATOM     16  N   UNL     1      -0.099  15.249  20.063  0.00  0.00    +0.000 N 
ATOM     17  C   UNL     1       0.065  16.280  21.033  0.00  0.00    +0.000 C 
ATOM     18  S   UNL     1       1.374  17.223  21.590  0.00  0.00    +0.000 S 
ATOM     19  N   UNL     1      -0.852  15.888  21.914  0.00  0.00    +0.000 N 
ATOM     20  C   UNL     1      -0.256  14.655  22.094  0.00  0.00    +0.000 C 
ATOM     21  O   UNL     1      -0.346  13.984  23.115  0.00  0.00    +0.000 OA
ATOM     22  H   UNL     1      -1.058  14.964  19.902  0.00  0.00    +0.000 HD
ENDROOT
BRANCH  19  23
ATOM     23  C   UNL     1      -1.675  17.010  22.439  0.00  0.00    +0.000 C 
ATOM     24  C   UNL     1      -3.163  16.777  21.973  0.00  0.00    +0.000 C 
ATOM     25  C   UNL     1      -3.790  15.598  22.723  0.00  0.00    +0.000 C 
ATOM     26  N   UNL     1      -3.819  15.788  24.158  0.00  0.00    +0.000 NA
ATOM     27  C   UNL     1      -4.968  16.579  24.575  0.00  0.00    +0.000 C 
ATOM     28  C   UNL     1      -2.531  16.234  24.715  0.00  0.00    +0.000 C 
ATOM     29  C   UNL     1      -1.740  17.276  23.934  0.00  0.00    +0.000 C 
ENDBRANCH  19  23
BRANCH   1  31
ATOM     30  C   UNL     1       5.354  17.507  20.086  0.00  0.00    +0.000 C 
ATOM     31  O   UNL     1       4.121  17.238  19.452  0.00  0.00    +0.000 OA
ENDBRANCH   1  31
TORSDOF 2
ENDMDL
MODEL 9
REMARK VINA RESULT:      -5.8      6.735      8.843
REMARK  Name = 
REMARK  4 active torsions:
REMARK  status: ('A' for Active; 'I' for Inactive)
REMARK    1  A    between atoms: C_1  and  O_2
REMARK    2  A    between atoms: O_2  and  C_3
REMARK    3  A    between atoms: N_21  and  C_22
REMARK    4  A    between atoms: N_25  and  C_26
REMARK                            x       y       z     vdW  Elec       q    Type
REMARK                         _______ _______ _______ _____ _____    ______ ____
ROOT
ATOM      1  C   UNL     1      10.851  13.778  18.877  0.00  0.00    +0.000 C 
ATOM      2  C   UNL     1       9.517  13.798  18.122  0.00  0.00    +0.000 C 
ATOM      3  C   UNL     1       8.280  13.672  19.040  0.00  0.00    +0.000 C 
ATOM      4  C   UNL     1       8.250  14.705  20.191  0.00  0.00    +0.000 C 
ATOM      5  C   UNL     1       9.749  14.968  20.762  0.00  0.00    +0.000 C 
ATOM      6  C   UNL     1      10.898  15.004  19.778  0.00  0.00    +0.000 C 
ATOM      7  C   UNL     1       7.932  16.138  19.622  0.00  0.00    +0.000 C 
ATOM      8  C   UNL     1       6.457  16.232  19.690  0.00  0.00    +0.000 A 
ATOM      9  C   UNL     1       5.700  17.027  18.827  0.00  0.00    +0.000 A 
ATOM     10  C   UNL     1       4.325  16.885  18.826  0.00  0.00    +0.000 A 
ATOM     11  C   UNL     1       3.744  15.955  19.696  0.00  0.00    +0.000 A 
ATOM     12 BR   UNL     1       1.874  15.661  19.562  0.00  0.00    +0.000 Br
ATOM     13  C   UNL     1       4.522  15.195  20.591  0.00  0.00    +0.000 A 
ATOM     14  C   UNL     1       5.906  15.357  20.632  0.00  0.00    +0.000 A 
ATOM     15  C   UNL     1       6.981  14.470  21.297  0.00  0.00    +0.000 C 
ATOM     16  N   UNL     1       7.864  14.932  22.323  0.00  0.00    +0.000 N 
ATOM     17  C   UNL     1       8.202  13.714  22.982  0.00  0.00    +0.000 C 
ATOM     18  S   UNL     1       9.033  12.290  22.543  0.00  0.00    +0.000 S 
ATOM     19  N   UNL     1       7.146  13.609  23.785  0.00  0.00    +0.000 N 
ATOM     20  C   UNL     1       6.254  13.610  22.730  0.00  0.00    +0.000 C 
ATOM     21  O   UNL     1       5.148  13.085  22.757  0.00  0.00    +0.000 OA
ATOM     22  H   UNL     1       7.441  15.635  22.918  0.00  0.00    +0.000 HD
ENDROOT
BRANCH  19  23
ATOM     23  C   UNL     1       7.503  13.199  25.169  0.00  0.00    +0.000 C 
ATOM     24  C   UNL     1       7.005  14.328  26.151  0.00  0.00    +0.000 C 
ATOM     25  C   UNL     1       5.476  14.329  26.248  0.00  0.00    +0.000 C 
ATOM     26  N   UNL     1       4.937  13.076  26.732  0.00  0.00    +0.000 NA
ATOM     27  C   UNL     1       4.963  13.003  28.185  0.00  0.00    +0.000 C 
ATOM     28  C   UNL     1       5.491  11.897  26.046  0.00  0.00    +0.000 C 
ATOM     29  C   UNL     1       6.983  11.889  25.737  0.00  0.00    +0.000 C 
ENDBRANCH  19  23
BRANCH   1  31
ATOM     30  C   UNL     1      11.985  11.697  19.260  0.00  0.00    +0.000 C 
ATOM     31  O   UNL     1      11.012  12.622  19.699  0.00  0.00    +0.000 OA
ENDBRANCH   1  31
TORSDOF 2
ENDMDL
