MODEL 1
REMARK VINA RESULT:      -7.2      0.000      0.000
REMARK  Name = 
REMARK  10 active torsions:
REMARK  status: ('A' for Active; 'I' for Inactive)
REMARK    1  A    between atoms: C_1  and  O_2
REMARK    2  A    between atoms: O_2  and  C_3
REMARK    3  A    between atoms: C_6  and  C_7
REMARK    4  A    between atoms: C_7  and  N_8
REMARK    5  A    between atoms: C_10  and  C_11
REMARK    6  A    between atoms: C_11  and  N_12
REMARK    7  A    between atoms: N_12  and  C_13
REMARK    8  A    between atoms: N_12  and  C_14
REMARK    9  A    between atoms: N_12  and  C_15
REMARK   10  A    between atoms: C_23  and  O_24
REMARK                            x       y       z     vdW  Elec       q    Type
REMARK                         _______ _______ _______ _____ _____    ______ ____
ROOT
ATOM      1  N   UNL     1       3.007   5.440  19.928  0.00  0.00    +0.000 N 
ATOM      2  C   UNL     1       4.282   5.676  19.523  0.00  0.00    +0.000 A 
ATOM      3  C   UNL     1       4.679   4.725  18.589  0.00  0.00    +0.000 A 
ATOM      4  C   UNL     1       3.600   3.869  18.449  0.00  0.00    +0.000 A 
ATOM      5  C   UNL     1       3.443   2.720  17.673  0.00  0.00    +0.000 A 
ATOM      6  C   UNL     1       2.215   2.042  17.739  0.00  0.00    +0.000 A 
ATOM      7  C   UNL     1       1.179   2.519  18.569  0.00  0.00    +0.000 A 
ATOM      8  C   UNL     1       1.362   3.678  19.345  0.00  0.00    +0.000 A 
ATOM      9  C   UNL     1       2.595   4.337  19.265  0.00  0.00    +0.000 A 
ENDROOT
BRANCH   1  10
ATOM     10  C   UNL     1       2.270   6.233  20.921  0.00  0.00    +0.000 C 
BRANCH  10  14
ATOM     11  C   UNL     1       0.978   9.993  19.232  0.00  0.00    +0.000 A 
ATOM     12  C   UNL     1       0.628   9.631  20.548  0.00  0.00    +0.000 A 
ATOM     13  C   UNL     1       1.031   8.408  21.074  0.00  0.00    +0.000 A 
ATOM     14  C   UNL     1       1.796   7.521  20.307  0.00  0.00    +0.000 A 
ATOM     15  C   UNL     1       2.135   7.863  18.991  0.00  0.00    +0.000 A 
ATOM     16  C   UNL     1       1.724   9.093  18.450  0.00  0.00    +0.000 A 
BRANCH  11  18
ATOM     17  C   UNL     1      -0.670  11.641  18.533  0.00  0.00    +0.000 C 
ATOM     18  O   UNL     1       0.626  11.193  18.700  0.00  0.00    +0.000 OA
ENDBRANCH  11  18
BRANCH  16  19
ATOM     19  O   UNL     1       2.053   9.426  17.184  0.00  0.00    +0.000 OA
ATOM     20  H   UNL     1       1.475   9.969  16.627  0.00  0.00    +0.000 HD
ENDBRANCH  16  19
ENDBRANCH  10  14
ENDBRANCH   1  10
BRANCH   3  21
ATOM     21  C   UNL     1       6.041   4.613  17.933  0.00  0.00    +0.000 C 
BRANCH  21  22
ATOM     22  N   UNL     1       6.319   5.623  16.864  0.00  0.00    +0.000 N 
ATOM     23  C   UNL     1       5.061   6.137  16.273  0.00  0.00    +0.000 C 
ATOM     24  C   UNL     1       7.119   6.753  17.391  0.00  0.00    +0.000 C 
ATOM     25  C   UNL     1       7.099   4.960  15.791  0.00  0.00    +0.000 C 
ENDBRANCH  21  22
ENDBRANCH   3  21
TORSDOF 6
ENDMDL
MODEL 2
REMARK VINA RESULT:      -7.1      0.915      1.189
REMARK  Name = 
REMARK  10 active torsions:
REMARK  status: ('A' for Active; 'I' for Inactive)
REMARK    1  A    between atoms: C_1  and  O_2
REMARK    2  A    between atoms: O_2  and  C_3
REMARK    3  A    between atoms: C_6  and  C_7
REMARK    4  A    between atoms: C_7  and  N_8
REMARK    5  A    between atoms: C_10  and  C_11
REMARK    6  A    between atoms: C_11  and  N_12
REMARK    7  A    between atoms: N_12  and  C_13
REMARK    8  A    between atoms: N_12  and  C_14
REMARK    9  A    between atoms: N_12  and  C_15
REMARK   10  A    between atoms: C_23  and  O_24
REMARK                            x       y       z     vdW  Elec       q    Type
REMARK                         _______ _______ _______ _____ _____    ______ ____
ROOT
ATOM      1  N   UNL     1       2.382   6.057  19.684  0.00  0.00    +0.000 N 
ATOM      2  C   UNL     1       3.347   6.369  18.779  0.00  0.00    +0.000 A 
ATOM      3  C   UNL     1       3.542   5.313  17.896  0.00  0.00    +0.000 A 
ATOM      4  C   UNL     1       2.672   4.318  18.306  0.00  0.00    +0.000 A 
ATOM      5  C   UNL     1       2.460   3.031  17.811  0.00  0.00    +0.000 A 
ATOM      6  C   UNL     1       1.497   2.231  18.445  0.00  0.00    +0.000 A 
ATOM      7  C   UNL     1       0.771   2.725  19.549  0.00  0.00    +0.000 A 
ATOM      8  C   UNL     1       1.004   4.025  20.033  0.00  0.00    +0.000 A 
ATOM      9  C   UNL     1       1.971   4.805  19.387  0.00  0.00    +0.000 A 
ENDROOT
BRANCH   1  10
ATOM     10  C   UNL     1       1.929   6.928  20.778  0.00  0.00    +0.000 C 
BRANCH  10  14
ATOM     11  C   UNL     1       0.397  10.677  19.275  0.00  0.00    +0.000 A 
ATOM     12  C   UNL     1      -0.113  10.108  20.458  0.00  0.00    +0.000 A 
ATOM     13  C   UNL     1       0.372   8.889  20.921  0.00  0.00    +0.000 A 
ATOM     14  C   UNL     1       1.380   8.213  20.223  0.00  0.00    +0.000 A 
ATOM     15  C   UNL     1       1.883   8.762  19.034  0.00  0.00    +0.000 A 
ATOM     16  C   UNL     1       1.391   9.989  18.557  0.00  0.00    +0.000 A 
BRANCH  11  18
ATOM     17  C   UNL     1      -1.310  12.149  18.359  0.00  0.00    +0.000 C 
ATOM     18  O   UNL     1      -0.034  11.881  18.814  0.00  0.00    +0.000 OA
ENDBRANCH  11  18
BRANCH  16  19
ATOM     19  O   UNL     1       1.877  10.521  17.416  0.00  0.00    +0.000 OA
ATOM     20  H   UNL     1       2.781  10.351  17.113  0.00  0.00    +0.000 HD
ENDBRANCH  16  19
ENDBRANCH  10  14
ENDBRANCH   1  10
BRANCH   3  21
ATOM     21  C   UNL     1       4.559   5.248  16.773  0.00  0.00    +0.000 C 
BRANCH  21  22
ATOM     22  N   UNL     1       5.990   5.247  17.208  0.00  0.00    +0.000 N 
ATOM     23  C   UNL     1       6.541   6.623  17.243  0.00  0.00    +0.000 C 
ATOM     24  C   UNL     1       6.145   4.615  18.539  0.00  0.00    +0.000 C 
ATOM     25  C   UNL     1       6.774   4.459  16.225  0.00  0.00    +0.000 C 
ENDBRANCH  21  22
ENDBRANCH   3  21
TORSDOF 6
ENDMDL
MODEL 3
REMARK VINA RESULT:      -6.9      0.855      1.519
REMARK  Name = 
REMARK  10 active torsions:
REMARK  status: ('A' for Active; 'I' for Inactive)
REMARK    1  A    between atoms: C_1  and  O_2
REMARK    2  A    between atoms: O_2  and  C_3
REMARK    3  A    between atoms: C_6  and  C_7
REMARK    4  A    between atoms: C_7  and  N_8
REMARK    5  A    between atoms: C_10  and  C_11
REMARK    6  A    between atoms: C_11  and  N_12
REMARK    7  A    between atoms: N_12  and  C_13
REMARK    8  A    between atoms: N_12  and  C_14
REMARK    9  A    between atoms: N_12  and  C_15
REMARK   10  A    between atoms: C_23  and  O_24
REMARK                            x       y       z     vdW  Elec       q    Type
REMARK                         _______ _______ _______ _____ _____    ______ ____
ROOT
ATOM      1  N   UNL     1       2.735   5.488  19.880  0.00  0.00    +0.000 N 
ATOM      2  C   UNL     1       4.028   5.820  19.624  0.00  0.00    +0.000 A 
ATOM      3  C   UNL     1       4.613   4.876  18.788  0.00  0.00    +0.000 A 
ATOM      4  C   UNL     1       3.634   3.926  18.554  0.00  0.00    +0.000 A 
ATOM      5  C   UNL     1       3.669   2.742  17.816  0.00  0.00    +0.000 A 
ATOM      6  C   UNL     1       2.502   1.964  17.762  0.00  0.00    +0.000 A 
ATOM      7  C   UNL     1       1.335   2.377  18.438  0.00  0.00    +0.000 A 
ATOM      8  C   UNL     1       1.324   3.573  19.179  0.00  0.00    +0.000 A 
ATOM      9  C   UNL     1       2.500   4.332  19.221  0.00  0.00    +0.000 A 
ENDROOT
BRANCH   1  10
ATOM     10  C   UNL     1       1.817   6.247  20.742  0.00  0.00    +0.000 C 
BRANCH  10  14
ATOM     11  C   UNL     1       1.311  10.255  19.213  0.00  0.00    +0.000 A 
ATOM     12  C   UNL     1       1.699   9.200  18.365  0.00  0.00    +0.000 A 
ATOM     13  C   UNL     1       1.880   7.917  18.872  0.00  0.00    +0.000 A 
ATOM     14  C   UNL     1       1.674   7.654  20.231  0.00  0.00    +0.000 A 
ATOM     15  C   UNL     1       1.305   8.701  21.088  0.00  0.00    +0.000 A 
ATOM     16  C   UNL     1       1.128  10.001  20.584  0.00  0.00    +0.000 A 
BRANCH  11  18
ATOM     17  C   UNL     1       2.084  12.422  18.421  0.00  0.00    +0.000 C 
ATOM     18  O   UNL     1       1.096  11.512  18.743  0.00  0.00    +0.000 OA
ENDBRANCH  11  18
BRANCH  16  19
ATOM     19  O   UNL     1       0.769  11.009  21.406  0.00  0.00    +0.000 OA
ATOM     20  H   UNL     1      -0.155  11.274  21.522  0.00  0.00    +0.000 HD
ENDBRANCH  16  19
ENDBRANCH  10  14
ENDBRANCH   1  10
BRANCH   3  21
ATOM     21  C   UNL     1       6.052   4.860  18.308  0.00  0.00    +0.000 C 
BRANCH  21  22
ATOM     22  N   UNL     1       6.315   5.638  17.058  0.00  0.00    +0.000 N 
ATOM     23  C   UNL     1       5.053   6.130  16.457  0.00  0.00    +0.000 C 
ATOM     24  C   UNL     1       7.221   6.781  17.319  0.00  0.00    +0.000 C 
ATOM     25  C   UNL     1       6.974   4.737  16.080  0.00  0.00    +0.000 C 
ENDBRANCH  21  22
ENDBRANCH   3  21
TORSDOF 6
ENDMDL
MODEL 4
REMARK VINA RESULT:      -6.9      1.735      4.142
REMARK  Name = 
REMARK  10 active torsions:
REMARK  status: ('A' for Active; 'I' for Inactive)
REMARK    1  A    between atoms: C_1  and  O_2
REMARK    2  A    between atoms: O_2  and  C_3
REMARK    3  A    between atoms: C_6  and  C_7
REMARK    4  A    between atoms: C_7  and  N_8
REMARK    5  A    between atoms: C_10  and  C_11
REMARK    6  A    between atoms: C_11  and  N_12
REMARK    7  A    between atoms: N_12  and  C_13
REMARK    8  A    between atoms: N_12  and  C_14
REMARK    9  A    between atoms: N_12  and  C_15
REMARK   10  A    between atoms: C_23  and  O_24
REMARK                            x       y       z     vdW  Elec       q    Type
REMARK                         _______ _______ _______ _____ _____    ______ ____
ROOT
ATOM      1  N   UNL     1       3.318   6.901  17.640  0.00  0.00    +0.000 N 
ATOM      2  C   UNL     1       2.452   5.859  17.741  0.00  0.00    +0.000 A 
ATOM      3  C   UNL     1       3.124   4.653  17.580  0.00  0.00    +0.000 A 
ATOM      4  C   UNL     1       4.447   4.991  17.350  0.00  0.00    +0.000 A 
ATOM      5  C   UNL     1       5.561   4.192  17.090  0.00  0.00    +0.000 A 
ATOM      6  C   UNL     1       6.796   4.828  16.889  0.00  0.00    +0.000 A 
ATOM      7  C   UNL     1       6.895   6.234  16.950  0.00  0.00    +0.000 A 
ATOM      8  C   UNL     1       5.757   7.019  17.209  0.00  0.00    +0.000 A 
ATOM      9  C   UNL     1       4.535   6.364  17.405  0.00  0.00    +0.000 A 
ENDROOT
BRANCH   1  10
ATOM     10  C   UNL     1       2.954   8.322  17.738  0.00  0.00    +0.000 C 
BRANCH  10  14
ATOM     11  C   UNL     1       0.269   8.958  21.062  0.00  0.00    +0.000 A 
ATOM     12  C   UNL     1       1.228   7.927  21.092  0.00  0.00    +0.000 A 
ATOM     13  C   UNL     1       2.073   7.717  20.007  0.00  0.00    +0.000 A 
ATOM     14  C   UNL     1       1.988   8.532  18.871  0.00  0.00    +0.000 A 
ATOM     15  C   UNL     1       1.025   9.550  18.823  0.00  0.00    +0.000 A 
ATOM     16  C   UNL     1       0.163   9.762  19.912  0.00  0.00    +0.000 A 
BRANCH  11  18
ATOM     17  C   UNL     1      -0.130   9.582  23.380  0.00  0.00    +0.000 C 
ATOM     18  O   UNL     1      -0.550   9.209  22.117  0.00  0.00    +0.000 OA
ENDBRANCH  11  18
BRANCH  16  19
ATOM     19  O   UNL     1      -0.762  10.744  19.869  0.00  0.00    +0.000 OA
ATOM     20  H   UNL     1      -0.538  11.651  19.616  0.00  0.00    +0.000 HD
ENDBRANCH  16  19
ENDBRANCH  10  14
ENDBRANCH   1  10
BRANCH   3  21
ATOM     21  C   UNL     1       2.510   3.267  17.578  0.00  0.00    +0.000 C 
BRANCH  21  22
ATOM     22  N   UNL     1       2.662   2.500  18.853  0.00  0.00    +0.000 N 
ATOM     23  C   UNL     1       3.230   3.350  19.926  0.00  0.00    +0.000 C 
ATOM     24  C   UNL     1       1.366   1.937  19.298  0.00  0.00    +0.000 C 
ATOM     25  C   UNL     1       3.598   1.375  18.610  0.00  0.00    +0.000 C 
ENDBRANCH  21  22
ENDBRANCH   3  21
TORSDOF 6
ENDMDL
MODEL 5
REMARK VINA RESULT:      -6.9      3.389      6.888
REMARK  Name = 
REMARK  10 active torsions:
REMARK  status: ('A' for Active; 'I' for Inactive)
REMARK    1  A    between atoms: C_1  and  O_2
REMARK    2  A    between atoms: O_2  and  C_3
REMARK    3  A    between atoms: C_6  and  C_7
REMARK    4  A    between atoms: C_7  and  N_8
REMARK    5  A    between atoms: C_10  and  C_11
REMARK    6  A    between atoms: C_11  and  N_12
REMARK    7  A    between atoms: N_12  and  C_13
REMARK    8  A    between atoms: N_12  and  C_14
REMARK    9  A    between atoms: N_12  and  C_15
REMARK   10  A    between atoms: C_23  and  O_24
REMARK                            x       y       z     vdW  Elec       q    Type
REMARK                         _______ _______ _______ _____ _____    ______ ____
ROOT
ATOM      1  N   UNL     1       5.350   5.365  18.437  0.00  0.00    +0.000 N 
ATOM      2  C   UNL     1       4.893   4.533  19.409  0.00  0.00    +0.000 A 
ATOM      3  C   UNL     1       3.609   4.901  19.797  0.00  0.00    +0.000 A 
ATOM      4  C   UNL     1       3.297   6.018  19.041  0.00  0.00    +0.000 A 
ATOM      5  C   UNL     1       2.158   6.824  19.033  0.00  0.00    +0.000 A 
ATOM      6  C   UNL     1       2.126   7.911  18.145  0.00  0.00    +0.000 A 
ATOM      7  C   UNL     1       3.218   8.169  17.291  0.00  0.00    +0.000 A 
ATOM      8  C   UNL     1       4.358   7.344  17.320  0.00  0.00    +0.000 A 
ATOM      9  C   UNL     1       4.369   6.268  18.215  0.00  0.00    +0.000 A 
ENDROOT
BRANCH   1  10
ATOM     10  C   UNL     1       6.674   5.287  17.804  0.00  0.00    +0.000 C 
BRANCH  10  14
ATOM     11  C   UNL     1       6.185   3.949  13.726  0.00  0.00    +0.000 A 
ATOM     12  C   UNL     1       5.425   3.386  14.769  0.00  0.00    +0.000 A 
ATOM     13  C   UNL     1       5.607   3.808  16.082  0.00  0.00    +0.000 A 
ATOM     14  C   UNL     1       6.542   4.805  16.386  0.00  0.00    +0.000 A 
ATOM     15  C   UNL     1       7.316   5.361  15.357  0.00  0.00    +0.000 A 
ATOM     16  C   UNL     1       7.144   4.932  14.030  0.00  0.00    +0.000 A 
BRANCH  11  18
ATOM     17  C   UNL     1       4.793   3.305  11.838  0.00  0.00    +0.000 C 
ATOM     18  O   UNL     1       6.010   3.580  12.430  0.00  0.00    +0.000 OA
ENDBRANCH  11  18
BRANCH  16  19
ATOM     19  O   UNL     1       7.886   5.469  13.038  0.00  0.00    +0.000 OA
ATOM     20  H   UNL     1       8.592   4.974  12.598  0.00  0.00    +0.000 HD
ENDBRANCH  16  19
ENDBRANCH  10  14
ENDBRANCH   1  10
BRANCH   3  21
ATOM     21  C   UNL     1       2.772   4.255  20.884  0.00  0.00    +0.000 C 
BRANCH  21  22
ATOM     22  N   UNL     1       1.936   3.097  20.440  0.00  0.00    +0.000 N 
ATOM     23  C   UNL     1       0.763   3.551  19.657  0.00  0.00    +0.000 C 
ATOM     24  C   UNL     1       2.731   2.140  19.635  0.00  0.00    +0.000 C 
ATOM     25  C   UNL     1       1.442   2.391  21.648  0.00  0.00    +0.000 C 
ENDBRANCH  21  22
ENDBRANCH   3  21
TORSDOF 6
ENDMDL
MODEL 6
REMARK VINA RESULT:      -6.9      1.202      1.909
REMARK  Name = 
REMARK  10 active torsions:
REMARK  status: ('A' for Active; 'I' for Inactive)
REMARK    1  A    between atoms: C_1  and  O_2
REMARK    2  A    between atoms: O_2  and  C_3
REMARK    3  A    between atoms: C_6  and  C_7
REMARK    4  A    between atoms: C_7  and  N_8
REMARK    5  A    between atoms: C_10  and  C_11
REMARK    6  A    between atoms: C_11  and  N_12
REMARK    7  A    between atoms: N_12  and  C_13
REMARK    8  A    between atoms: N_12  and  C_14
REMARK    9  A    between atoms: N_12  and  C_15
REMARK   10  A    between atoms: C_23  and  O_24
REMARK                            x       y       z     vdW  Elec       q    Type
REMARK                         _______ _______ _______ _____ _____    ______ ____
ROOT
ATOM      1  N   UNL     1       2.544   6.262  19.503  0.00  0.00    +0.000 N 
ATOM      2  C   UNL     1       3.500   6.521  18.572  0.00  0.00    +0.000 A 
ATOM      3  C   UNL     1       3.657   5.430  17.724  0.00  0.00    +0.000 A 
ATOM      4  C   UNL     1       2.772   4.470  18.183  0.00  0.00    +0.000 A 
ATOM      5  C   UNL     1       2.524   3.171  17.738  0.00  0.00    +0.000 A 
ATOM      6  C   UNL     1       1.554   2.415  18.416  0.00  0.00    +0.000 A 
ATOM      7  C   UNL     1       0.859   2.964  19.514  0.00  0.00    +0.000 A 
ATOM      8  C   UNL     1       1.129   4.275  19.947  0.00  0.00    +0.000 A 
ATOM      9  C   UNL     1       2.101   5.010  19.258  0.00  0.00    +0.000 A 
ENDROOT
BRANCH   1  10
ATOM     10  C   UNL     1       2.129   7.181  20.573  0.00  0.00    +0.000 C 
BRANCH  10  14
ATOM     11  C   UNL     1       0.011  10.517  18.827  0.00  0.00    +0.000 A 
ATOM     12  C   UNL     1       0.868   9.714  18.048  0.00  0.00    +0.000 A 
ATOM     13  C   UNL     1       1.562   8.656  18.626  0.00  0.00    +0.000 A 
ATOM     14  C   UNL     1       1.414   8.368  19.988  0.00  0.00    +0.000 A 
ATOM     15  C   UNL     1       0.578   9.170  20.776  0.00  0.00    +0.000 A 
ATOM     16  C   UNL     1      -0.120  10.246  20.201  0.00  0.00    +0.000 A 
BRANCH  11  18
ATOM     17  C   UNL     1      -1.940  11.411  17.681  0.00  0.00    +0.000 C 
ATOM     18  O   UNL     1      -0.705  11.538  18.287  0.00  0.00    +0.000 OA
ENDBRANCH  11  18
BRANCH  16  19
ATOM     19  O   UNL     1      -0.929  11.017  20.958  0.00  0.00    +0.000 OA
ATOM     20  H   UNL     1      -1.689  10.652  21.435  0.00  0.00    +0.000 HD
ENDBRANCH  16  19
ENDBRANCH  10  14
ENDBRANCH   1  10
BRANCH   3  21
ATOM     21  C   UNL     1       4.652   5.303  16.587  0.00  0.00    +0.000 C 
BRANCH  21  22
ATOM     22  N   UNL     1       6.089   5.252  17.000  0.00  0.00    +0.000 N 
ATOM     23  C   UNL     1       6.656   6.614  17.135  0.00  0.00    +0.000 C 
ATOM     24  C   UNL     1       6.254   4.516  18.276  0.00  0.00    +0.000 C 
ATOM     25  C   UNL     1       6.850   4.535  15.948  0.00  0.00    +0.000 C 
ENDBRANCH  21  22
ENDBRANCH   3  21
TORSDOF 6
ENDMDL
MODEL 7
REMARK VINA RESULT:      -6.8      1.156      1.939
REMARK  Name = 
REMARK  10 active torsions:
REMARK  status: ('A' for Active; 'I' for Inactive)
REMARK    1  A    between atoms: C_1  and  O_2
REMARK    2  A    between atoms: O_2  and  C_3
REMARK    3  A    between atoms: C_6  and  C_7
REMARK    4  A    between atoms: C_7  and  N_8
REMARK    5  A    between atoms: C_10  and  C_11
REMARK    6  A    between atoms: C_11  and  N_12
REMARK    7  A    between atoms: N_12  and  C_13
REMARK    8  A    between atoms: N_12  and  C_14
REMARK    9  A    between atoms: N_12  and  C_15
REMARK   10  A    between atoms: C_23  and  O_24
REMARK                            x       y       z     vdW  Elec       q    Type
REMARK                         _______ _______ _______ _____ _____    ______ ____
ROOT
ATOM      1  N   UNL     1       2.456   6.091  19.530  0.00  0.00    +0.000 N 
ATOM      2  C   UNL     1       3.519   6.621  18.868  0.00  0.00    +0.000 A 
ATOM      3  C   UNL     1       3.996   5.722  17.920  0.00  0.00    +0.000 A 
ATOM      4  C   UNL     1       3.197   4.598  18.037  0.00  0.00    +0.000 A 
ATOM      5  C   UNL     1       3.237   3.377  17.363  0.00  0.00    +0.000 A 
ATOM      6  C   UNL     1       2.284   2.404  17.704  0.00  0.00    +0.000 A 
ATOM      7  C   UNL     1       1.320   2.665  18.701  0.00  0.00    +0.000 A 
ATOM      8  C   UNL     1       1.302   3.903  19.369  0.00  0.00    +0.000 A 
ATOM      9  C   UNL     1       2.262   4.857  19.015  0.00  0.00    +0.000 A 
ENDROOT
BRANCH   1  10
ATOM     10  C   UNL     1       1.714   6.752  20.612  0.00  0.00    +0.000 C 
BRANCH  10  14
ATOM     11  C   UNL     1       0.868  10.850  19.538  0.00  0.00    +0.000 A 
ATOM     12  C   UNL     1       1.221   9.902  18.558  0.00  0.00    +0.000 A 
ATOM     13  C   UNL     1       1.513   8.590  18.918  0.00  0.00    +0.000 A 
ATOM     14  C   UNL     1       1.453   8.190  20.258  0.00  0.00    +0.000 A 
ATOM     15  C   UNL     1       1.120   9.130  21.244  0.00  0.00    +0.000 A 
ATOM     16  C   UNL     1       0.832  10.459  20.889  0.00  0.00    +0.000 A 
BRANCH  11  18
ATOM     17  C   UNL     1      -0.634  12.530  18.620  0.00  0.00    +0.000 C 
ATOM     18  O   UNL     1       0.547  12.131  19.216  0.00  0.00    +0.000 OA
ENDBRANCH  11  18
BRANCH  16  19
ATOM     19  O   UNL     1       0.507  11.363  21.836  0.00  0.00    +0.000 OA
ATOM     20  H   UNL     1       1.154  11.988  22.195  0.00  0.00    +0.000 HD
ENDBRANCH  16  19
ENDBRANCH  10  14
ENDBRANCH   1  10
BRANCH   3  21
ATOM     21  C   UNL     1       5.194   5.916  17.011  0.00  0.00    +0.000 C 
BRANCH  21  22
ATOM     22  N   UNL     1       6.524   5.676  17.651  0.00  0.00    +0.000 N 
ATOM     23  C   UNL     1       6.378   5.363  19.092  0.00  0.00    +0.000 C 
ATOM     24  C   UNL     1       7.253   4.577  16.975  0.00  0.00    +0.000 C 
ATOM     25  C   UNL     1       7.331   6.915  17.524  0.00  0.00    +0.000 C 
ENDBRANCH  21  22
ENDBRANCH   3  21
TORSDOF 6
ENDMDL
MODEL 8
REMARK VINA RESULT:      -6.6      1.003      1.356
REMARK  Name = 
REMARK  10 active torsions:
REMARK  status: ('A' for Active; 'I' for Inactive)
REMARK    1  A    between atoms: C_1  and  O_2
REMARK    2  A    between atoms: O_2  and  C_3
REMARK    3  A    between atoms: C_6  and  C_7
REMARK    4  A    between atoms: C_7  and  N_8
REMARK    5  A    between atoms: C_10  and  C_11
REMARK    6  A    between atoms: C_11  and  N_12
REMARK    7  A    between atoms: N_12  and  C_13
REMARK    8  A    between atoms: N_12  and  C_14
REMARK    9  A    between atoms: N_12  and  C_15
REMARK   10  A    between atoms: C_23  and  O_24
REMARK                            x       y       z     vdW  Elec       q    Type
REMARK                         _______ _______ _______ _____ _____    ______ ____
ROOT
ATOM      1  N   UNL     1       2.358   6.082  19.675  0.00  0.00    +0.000 N 
ATOM      2  C   UNL     1       3.368   6.668  18.982  0.00  0.00    +0.000 A 
ATOM      3  C   UNL     1       3.824   5.819  17.979  0.00  0.00    +0.000 A 
ATOM      4  C   UNL     1       3.068   4.665  18.095  0.00  0.00    +0.000 A 
ATOM      5  C   UNL     1       3.112   3.470  17.377  0.00  0.00    +0.000 A 
ATOM      6  C   UNL     1       2.208   2.455  17.729  0.00  0.00    +0.000 A 
ATOM      7  C   UNL     1       1.288   2.650  18.781  0.00  0.00    +0.000 A 
ATOM      8  C   UNL     1       1.265   3.863  19.494  0.00  0.00    +0.000 A 
ATOM      9  C   UNL     1       2.177   4.860  19.127  0.00  0.00    +0.000 A 
ENDROOT
BRANCH   1  10
ATOM     10  C   UNL     1       1.651   6.680  20.816  0.00  0.00    +0.000 C 
BRANCH  10  14
ATOM     11  C   UNL     1       0.857  10.859  20.060  0.00  0.00    +0.000 A 
ATOM     12  C   UNL     1       0.804  10.335  21.367  0.00  0.00    +0.000 A 
ATOM     13  C   UNL     1       1.039   8.984  21.596  0.00  0.00    +0.000 A 
ATOM     14  C   UNL     1       1.340   8.124  20.533  0.00  0.00    +0.000 A 
ATOM     15  C   UNL     1       1.379   8.630  19.226  0.00  0.00    +0.000 A 
ATOM     16  C   UNL     1       1.134   9.993  18.986  0.00  0.00    +0.000 A 
BRANCH  11  18
ATOM     17  C   UNL     1      -0.563  12.816  19.797  0.00  0.00    +0.000 C 
ATOM     18  O   UNL     1       0.663  12.179  19.806  0.00  0.00    +0.000 OA
ENDBRANCH  11  18
BRANCH  16  19
ATOM     19  O   UNL     1       1.175  10.483  17.730  0.00  0.00    +0.000 OA
ATOM     20  H   UNL     1       2.010  10.633  17.263  0.00  0.00    +0.000 HD
ENDBRANCH  16  19
ENDBRANCH  10  14
ENDBRANCH   1  10
BRANCH   3  21
ATOM     21  C   UNL     1       4.968   6.083  17.020  0.00  0.00    +0.000 C 
BRANCH  21  22
ATOM     22  N   UNL     1       6.323   5.695  17.521  0.00  0.00    +0.000 N 
ATOM     23  C   UNL     1       6.838   4.502  16.808  0.00  0.00    +0.000 C 
ATOM     24  C   UNL     1       7.287   6.812  17.380  0.00  0.00    +0.000 C 
ATOM     25  C   UNL     1       6.208   5.361  18.962  0.00  0.00    +0.000 C 
ENDBRANCH  21  22
ENDBRANCH   3  21
TORSDOF 6
ENDMDL
MODEL 9
REMARK VINA RESULT:      -6.5      1.620      4.009
REMARK  Name = 
REMARK  10 active torsions:
REMARK  status: ('A' for Active; 'I' for Inactive)
REMARK    1  A    between atoms: C_1  and  O_2
REMARK    2  A    between atoms: O_2  and  C_3
REMARK    3  A    between atoms: C_6  and  C_7
REMARK    4  A    between atoms: C_7  and  N_8
REMARK    5  A    between atoms: C_10  and  C_11
REMARK    6  A    between atoms: C_11  and  N_12
REMARK    7  A    between atoms: N_12  and  C_13
REMARK    8  A    between atoms: N_12  and  C_14
REMARK    9  A    between atoms: N_12  and  C_15
REMARK   10  A    between atoms: C_23  and  O_24
REMARK                            x       y       z     vdW  Elec       q    Type
REMARK                         _______ _______ _______ _____ _____    ______ ____
ROOT
ATOM      1  N   UNL     1       3.365   6.928  18.027  0.00  0.00    +0.000 N 
ATOM      2  C   UNL     1       2.716   5.916  18.661  0.00  0.00    +0.000 A 
ATOM      3  C   UNL     1       3.584   4.854  18.893  0.00  0.00    +0.000 A 
ATOM      4  C   UNL     1       4.799   5.241  18.353  0.00  0.00    +0.000 A 
ATOM      5  C   UNL     1       6.016   4.564  18.268  0.00  0.00    +0.000 A 
ATOM      6  C   UNL     1       7.093   5.218  17.650  0.00  0.00    +0.000 A 
ATOM      7  C   UNL     1       6.937   6.521  17.133  0.00  0.00    +0.000 A 
ATOM      8  C   UNL     1       5.699   7.183  17.227  0.00  0.00    +0.000 A 
ATOM      9  C   UNL     1       4.638   6.511  17.846  0.00  0.00    +0.000 A 
ENDROOT
BRANCH   1  10
ATOM     10  C   UNL     1       2.756   8.197  17.607  0.00  0.00    +0.000 C 
BRANCH  10  14
ATOM     11  C   UNL     1       0.132   9.671  20.707  0.00  0.00    +0.000 A 
ATOM     12  C   UNL     1       1.089   8.674  20.980  0.00  0.00    +0.000 A 
ATOM     13  C   UNL     1       1.914   8.190  19.970  0.00  0.00    +0.000 A 
ATOM     14  C   UNL     1       1.811   8.693  18.667  0.00  0.00    +0.000 A 
ATOM     15  C   UNL     1       0.850   9.673  18.379  0.00  0.00    +0.000 A 
ATOM     16  C   UNL     1       0.008  10.159  19.394  0.00  0.00    +0.000 A 
BRANCH  11  18
ATOM     17  C   UNL     1      -0.514   9.966  23.034  0.00  0.00    +0.000 C 
ATOM     18  O   UNL     1      -0.666  10.185  21.679  0.00  0.00    +0.000 OA
ENDBRANCH  11  18
BRANCH  16  19
ATOM     19  O   UNL     1      -0.914  11.105  19.120  0.00  0.00    +0.000 OA
ATOM     20  H   UNL     1      -1.581  11.378  19.768  0.00  0.00    +0.000 HD
ENDBRANCH  16  19
ENDBRANCH  10  14
ENDBRANCH   1  10
BRANCH   3  21
ATOM     21  C   UNL     1       3.237   3.524  19.532  0.00  0.00    +0.000 C 
BRANCH  21  22
ATOM     22  N   UNL     1       2.668   2.499  18.602  0.00  0.00    +0.000 N 
ATOM     23  C   UNL     1       1.346   2.024  19.072  0.00  0.00    +0.000 C 
ATOM     24  C   UNL     1       2.544   3.034  17.226  0.00  0.00    +0.000 C 
ATOM     25  C   UNL     1       3.593   1.339  18.568  0.00  0.00    +0.000 C 
ENDBRANCH  21  22
ENDBRANCH   3  21
TORSDOF 6
ENDMDL
