MODEL 1
REMARK VINA RESULT:      -9.3      0.000      0.000
REMARK  Name = 
REMARK  6 active torsions:
REMARK  status: ('A' for Active; 'I' for Inactive)
REMARK    1  A    between atoms: C_1  and  C_2
REMARK    2  A    between atoms: C_2  and  C_3
REMARK    3  A    between atoms: N_7  and  C_8
REMARK    4  A    between atoms: C_11  and  N_12
REMARK    5  A    between atoms: C_13  and  C_15
REMARK    6  A    between atoms: C_28  and  C_29
REMARK                            x       y       z     vdW  Elec       q    Type
REMARK                         _______ _______ _______ _____ _____    ______ ____
ROOT
ATOM      1  C   UNL     1       2.516   6.526  19.543  0.00  0.00    +0.000 C 
ATOM      2  C   UNL     1       2.178   7.081  18.154  0.00  0.00    +0.000 C 
ATOM      3  C   UNL     1       2.112   8.606  18.198  0.00  0.00    +0.000 C 
ATOM      4  C   UNL     1       1.125   9.115  19.258  0.00  0.00    +0.000 C 
ATOM      5  C   UNL     1       1.312   8.462  20.633  0.00  0.00    +0.000 C 
ATOM      6  C   UNL     1       1.422   6.940  20.539  0.00  0.00    +0.000 C 
ENDROOT
BRANCH   1  13
ATOM      7  C   UNL     1       3.555   1.814  18.056  0.00  0.00    +0.000 C 
ATOM      8  C   UNL     1       2.716   2.923  18.692  0.00  0.00    +0.000 C 
ATOM      9  C   UNL     1       1.229   2.594  18.469  0.00  0.00    +0.000 C 
ATOM     10  O   UNL     1       2.917   2.928  20.120  0.00  0.00    +0.000 OA
ATOM     11  C   UNL     1       2.699   4.209  20.565  0.00  0.00    +0.000 C 
ATOM     12  O   UNL     1       2.497   4.476  21.737  0.00  0.00    +0.000 OA
ATOM     13  N   UNL     1       2.757   5.083  19.508  0.00  0.00    +0.000 N 
ATOM     14  C   UNL     1       3.054   4.374  18.280  0.00  0.00    +0.000 C 
BRANCH  14  15
ATOM     15  C   UNL     1       4.484   4.652  17.838  0.00  0.00    +0.000 A 
ATOM     16  C   UNL     1       5.526   4.815  18.772  0.00  0.00    +0.000 A 
ATOM     17  C   UNL     1       6.831   5.074  18.356  0.00  0.00    +0.000 A 
ATOM     18  C   UNL     1       7.117   5.199  17.003  0.00  0.00    +0.000 A 
ATOM     19  C   UNL     1       6.099   5.062  16.062  0.00  0.00    +0.000 A 
ATOM     20  C   UNL     1       4.793   4.787  16.474  0.00  0.00    +0.000 A 
ENDBRANCH  14  15
ENDBRANCH   1  13
BRANCH   4  21
ATOM     21  N   UNL     1       1.126  10.566  19.340  0.00  0.00    +0.000 N 
ATOM     22  C   UNL     1       0.149  11.406  18.854  0.00  0.00    +0.000 C 
ATOM     23  O   UNL     1      -0.829  11.012  18.226  0.00  0.00    +0.000 OA
ATOM     24  H   UNL     1       1.899  11.004  19.841  0.00  0.00    +0.000 HD
BRANCH  22  25
ATOM     25  C   UNL     1       0.300  12.867  19.145  0.00  0.00    +0.000 A 
ATOM     26  C   UNL     1      -0.793  13.503  19.753  0.00  0.00    +0.000 A 
ATOM     27  C   UNL     1      -0.680  14.836  20.069  0.00  0.00    +0.000 A 
ATOM     28  N   UNL     1       0.430  15.557  19.826  0.00  0.00    +0.000 NA
ATOM     29  C   UNL     1       1.473  14.938  19.241  0.00  0.00    +0.000 A 
ATOM     30  C   UNL     1       2.621  15.676  19.002  0.00  0.00    +0.000 A 
ATOM     31  C   UNL     1       3.725  15.090  18.405  0.00  0.00    +0.000 A 
ATOM     32  F   UNL     1       4.835  15.802  18.180  0.00  0.00    +0.000 F 
ATOM     33  C   UNL     1       3.660  13.765  18.050  0.00  0.00    +0.000 A 
ATOM     34  N   UNL     1       2.566  13.003  18.265  0.00  0.00    +0.000 NA
ATOM     35  C   UNL     1       1.477  13.576  18.861  0.00  0.00    +0.000 A 
ENDBRANCH  22  25
ENDBRANCH   4  21
TORSDOF 4
ENDMDL
MODEL 2
REMARK VINA RESULT:      -9.3      2.233      2.930
REMARK  Name = 
REMARK  6 active torsions:
REMARK  status: ('A' for Active; 'I' for Inactive)
REMARK    1  A    between atoms: C_1  and  C_2
REMARK    2  A    between atoms: C_2  and  C_3
REMARK    3  A    between atoms: N_7  and  C_8
REMARK    4  A    between atoms: C_11  and  N_12
REMARK    5  A    between atoms: C_13  and  C_15
REMARK    6  A    between atoms: C_28  and  C_29
REMARK                            x       y       z     vdW  Elec       q    Type
REMARK                         _______ _______ _______ _____ _____    ______ ____
ROOT
ATOM      1  C   UNL     1       2.500   7.172  19.495  0.00  0.00    +0.000 C 
ATOM      2  C   UNL     1       2.062   7.827  18.180  0.00  0.00    +0.000 C 
ATOM      3  C   UNL     1       1.827   9.321  18.388  0.00  0.00    +0.000 C 
ATOM      4  C   UNL     1       0.821   9.600  19.514  0.00  0.00    +0.000 C 
ATOM      5  C   UNL     1       1.121   8.833  20.808  0.00  0.00    +0.000 C 
ATOM      6  C   UNL     1       1.397   7.352  20.548  0.00  0.00    +0.000 C 
ENDROOT
BRANCH   1  13
ATOM      7  C   UNL     1       4.422   2.887  17.638  0.00  0.00    +0.000 C 
ATOM      8  C   UNL     1       3.323   3.806  18.174  0.00  0.00    +0.000 C 
ATOM      9  C   UNL     1       1.999   3.435  17.481  0.00  0.00    +0.000 C 
ATOM     10  O   UNL     1       3.123   3.561  19.580  0.00  0.00    +0.000 OA
ATOM     11  C   UNL     1       2.651   4.721  20.141  0.00  0.00    +0.000 C 
ATOM     12  O   UNL     1       2.108   4.755  21.232  0.00  0.00    +0.000 OA
ATOM     13  N   UNL     1       2.900   5.778  19.300  0.00  0.00    +0.000 N 
ATOM     14  C   UNL     1       3.598   5.326  18.114  0.00  0.00    +0.000 C 
BRANCH  14  15
ATOM     15  C   UNL     1       5.055   5.768  18.155  0.00  0.00    +0.000 A 
ATOM     16  C   UNL     1       5.934   5.318  19.159  0.00  0.00    +0.000 A 
ATOM     17  C   UNL     1       7.265   5.731  19.189  0.00  0.00    +0.000 A 
ATOM     18  C   UNL     1       7.737   6.621  18.233  0.00  0.00    +0.000 A 
ATOM     19  C   UNL     1       6.880   7.095  17.243  0.00  0.00    +0.000 A 
ATOM     20  C   UNL     1       5.550   6.671  17.199  0.00  0.00    +0.000 A 
ENDBRANCH  14  15
ENDBRANCH   1  13
BRANCH   4  21
ATOM     21  N   UNL     1       0.662  11.025  19.751  0.00  0.00    +0.000 N 
ATOM     22  C   UNL     1      -0.274  11.845  19.163  0.00  0.00    +0.000 C 
ATOM     23  O   UNL     1      -1.062  11.463  18.304  0.00  0.00    +0.000 OA
ATOM     24  H   UNL     1       1.271  11.452  20.450  0.00  0.00    +0.000 HD
BRANCH  22  25
ATOM     25  C   UNL     1      -0.331  13.266  19.637  0.00  0.00    +0.000 A 
ATOM     26  C   UNL     1      -0.099  14.259  18.674  0.00  0.00    +0.000 A 
ATOM     27  C   UNL     1      -0.178  15.575  19.062  0.00  0.00    +0.000 A 
ATOM     28  N   UNL     1      -0.470  15.954  20.320  0.00  0.00    +0.000 NA
ATOM     29  C   UNL     1      -0.688  14.993  21.237  0.00  0.00    +0.000 A 
ATOM     30  C   UNL     1      -1.002  15.381  22.530  0.00  0.00    +0.000 A 
ATOM     31  C   UNL     1      -1.239  14.436  23.513  0.00  0.00    +0.000 A 
ATOM     32  F   UNL     1      -1.547  14.813  24.759  0.00  0.00    +0.000 F 
ATOM     33  C   UNL     1      -1.154  13.105  23.185  0.00  0.00    +0.000 A 
ATOM     34  N   UNL     1      -0.857  12.676  21.940  0.00  0.00    +0.000 NA
ATOM     35  C   UNL     1      -0.628  13.607  20.965  0.00  0.00    +0.000 A 
ENDBRANCH  22  25
ENDBRANCH   4  21
TORSDOF 4
ENDMDL
MODEL 3
REMARK VINA RESULT:      -9.3      1.871      2.603
REMARK  Name = 
REMARK  6 active torsions:
REMARK  status: ('A' for Active; 'I' for Inactive)
REMARK    1  A    between atoms: C_1  and  C_2
REMARK    2  A    between atoms: C_2  and  C_3
REMARK    3  A    between atoms: N_7  and  C_8
REMARK    4  A    between atoms: C_11  and  N_12
REMARK    5  A    between atoms: C_13  and  C_15
REMARK    6  A    between atoms: C_28  and  C_29
REMARK                            x       y       z     vdW  Elec       q    Type
REMARK                         _______ _______ _______ _____ _____    ______ ____
ROOT
ATOM      1  C   UNL     1       2.523   6.240  19.738  0.00  0.00    +0.000 C 
ATOM      2  C   UNL     1       2.252   6.883  18.373  0.00  0.00    +0.000 C 
ATOM      3  C   UNL     1       2.193   8.404  18.509  0.00  0.00    +0.000 C 
ATOM      4  C   UNL     1       1.161   8.854  19.554  0.00  0.00    +0.000 C 
ATOM      5  C   UNL     1       1.282   8.115  20.893  0.00  0.00    +0.000 C 
ATOM      6  C   UNL     1       1.388   6.601  20.708  0.00  0.00    +0.000 C 
ENDROOT
BRANCH   1  13
ATOM      7  C   UNL     1       3.537   1.612  17.993  0.00  0.00    +0.000 C 
ATOM      8  C   UNL     1       2.705   2.688  18.692  0.00  0.00    +0.000 C 
ATOM      9  C   UNL     1       1.215   2.379  18.455  0.00  0.00    +0.000 C 
ATOM     10  O   UNL     1       2.909   2.615  20.117  0.00  0.00    +0.000 OA
ATOM     11  C   UNL     1       2.698   3.870  20.631  0.00  0.00    +0.000 C 
ATOM     12  O   UNL     1       2.500   4.074  21.817  0.00  0.00    +0.000 OA
ATOM     13  N   UNL     1       2.758   4.801  19.624  0.00  0.00    +0.000 N 
ATOM     14  C   UNL     1       3.048   4.158  18.358  0.00  0.00    +0.000 C 
BRANCH  14  15
ATOM     15  C   UNL     1       4.479   4.454  17.929  0.00  0.00    +0.000 A 
ATOM     16  C   UNL     1       5.502   4.672  18.872  0.00  0.00    +0.000 A 
ATOM     17  C   UNL     1       6.807   4.946  18.467  0.00  0.00    +0.000 A 
ATOM     18  C   UNL     1       7.112   5.031  17.115  0.00  0.00    +0.000 A 
ATOM     19  C   UNL     1       6.112   4.839  16.165  0.00  0.00    +0.000 A 
ATOM     20  C   UNL     1       4.806   4.549  16.565  0.00  0.00    +0.000 A 
ENDBRANCH  14  15
ENDBRANCH   1  13
BRANCH   4  21
ATOM     21  N   UNL     1       1.167  10.297  19.727  0.00  0.00    +0.000 N 
ATOM     22  C   UNL     1       0.334  11.192  19.094  0.00  0.00    +0.000 C 
ATOM     23  O   UNL     1      -0.488  10.864  18.244  0.00  0.00    +0.000 OA
ATOM     24  H   UNL     1       1.817  10.682  20.412  0.00  0.00    +0.000 HD
BRANCH  22  25
ATOM     25  C   UNL     1       0.439  12.629  19.504  0.00  0.00    +0.000 A 
ATOM     26  C   UNL     1       0.989  13.512  18.563  0.00  0.00    +0.000 A 
ATOM     27  C   UNL     1       1.069  14.846  18.889  0.00  0.00    +0.000 A 
ATOM     28  N   UNL     1       0.642  15.342  20.064  0.00  0.00    +0.000 NA
ATOM     29  C   UNL     1       0.118  14.485  20.961  0.00  0.00    +0.000 A 
ATOM     30  C   UNL     1      -0.334  14.996  22.167  0.00  0.00    +0.000 A 
ATOM     31  C   UNL     1      -0.884  14.163  23.125  0.00  0.00    +0.000 A 
ATOM     32  F   UNL     1      -1.325  14.659  24.287  0.00  0.00    +0.000 F 
ATOM     33  C   UNL     1      -0.971  12.818  22.861  0.00  0.00    +0.000 A 
ATOM     34  N   UNL     1      -0.549  12.271  21.700  0.00  0.00    +0.000 NA
ATOM     35  C   UNL     1      -0.011  13.093  20.749  0.00  0.00    +0.000 A 
ENDBRANCH  22  25
ENDBRANCH   4  21
TORSDOF 4
ENDMDL
MODEL 4
REMARK VINA RESULT:      -9.2      0.821      1.170
REMARK  Name = 
REMARK  6 active torsions:
REMARK  status: ('A' for Active; 'I' for Inactive)
REMARK    1  A    between atoms: C_1  and  C_2
REMARK    2  A    between atoms: C_2  and  C_3
REMARK    3  A    between atoms: N_7  and  C_8
REMARK    4  A    between atoms: C_11  and  N_12
REMARK    5  A    between atoms: C_13  and  C_15
REMARK    6  A    between atoms: C_28  and  C_29
REMARK                            x       y       z     vdW  Elec       q    Type
REMARK                         _______ _______ _______ _____ _____    ______ ____
ROOT
ATOM      1  C   UNL     1       2.479   7.127  19.487  0.00  0.00    +0.000 C 
ATOM      2  C   UNL     1       2.087   7.719  18.128  0.00  0.00    +0.000 C 
ATOM      3  C   UNL     1       1.934   9.235  18.237  0.00  0.00    +0.000 C 
ATOM      4  C   UNL     1       0.937   9.641  19.333  0.00  0.00    +0.000 C 
ATOM      5  C   UNL     1       1.184   8.943  20.676  0.00  0.00    +0.000 C 
ATOM      6  C   UNL     1       1.380   7.436  20.515  0.00  0.00    +0.000 C 
ENDROOT
BRANCH   1  13
ATOM      7  C   UNL     1       4.052   2.609  17.872  0.00  0.00    +0.000 C 
ATOM      8  C   UNL     1       3.043   3.625  18.410  0.00  0.00    +0.000 C 
ATOM      9  C   UNL     1       1.650   3.261  17.863  0.00  0.00    +0.000 C 
ATOM     10  O   UNL     1       2.953   3.511  19.845  0.00  0.00    +0.000 OA
ATOM     11  C   UNL     1       2.580   4.737  20.336  0.00  0.00    +0.000 C 
ATOM     12  O   UNL     1       2.134   4.891  21.460  0.00  0.00    +0.000 OA
ATOM     13  N   UNL     1       2.801   5.704  19.386  0.00  0.00    +0.000 N 
ATOM     14  C   UNL     1       3.375   5.118  18.192  0.00  0.00    +0.000 C 
BRANCH  14  15
ATOM     15  C   UNL     1       4.848   5.489  18.075  0.00  0.00    +0.000 A 
ATOM     16  C   UNL     1       5.397   5.959  16.866  0.00  0.00    +0.000 A 
ATOM     17  C   UNL     1       6.746   6.292  16.770  0.00  0.00    +0.000 A 
ATOM     18  C   UNL     1       7.580   6.139  17.870  0.00  0.00    +0.000 A 
ATOM     19  C   UNL     1       7.064   5.656  19.070  0.00  0.00    +0.000 A 
ATOM     20  C   UNL     1       5.708   5.336  19.176  0.00  0.00    +0.000 A 
ENDBRANCH  14  15
ENDBRANCH   1  13
BRANCH   4  21
ATOM     21  N   UNL     1       0.857  11.086  19.476  0.00  0.00    +0.000 N 
ATOM     22  C   UNL     1      -0.111  11.901  18.935  0.00  0.00    +0.000 C 
ATOM     23  O   UNL     1      -1.004  11.493  18.199  0.00  0.00    +0.000 OA
ATOM     24  H   UNL     1       1.556  11.534  20.068  0.00  0.00    +0.000 HD
BRANCH  22  25
ATOM     25  C   UNL     1      -0.063  13.353  19.302  0.00  0.00    +0.000 A 
ATOM     26  C   UNL     1      -1.144  13.849  20.044  0.00  0.00    +0.000 A 
ATOM     27  C   UNL     1      -1.119  15.169  20.431  0.00  0.00    +0.000 A 
ATOM     28  N   UNL     1      -0.106  16.002  20.134  0.00  0.00    +0.000 NA
ATOM     29  C   UNL     1       0.927  15.516  19.420  0.00  0.00    +0.000 A 
ATOM     30  C   UNL     1       1.977  16.370  19.124  0.00  0.00    +0.000 A 
ATOM     31  C   UNL     1       3.066  15.924  18.395  0.00  0.00    +0.000 A 
ATOM     32  F   UNL     1       4.082  16.748  18.115  0.00  0.00    +0.000 F 
ATOM     33  C   UNL     1       3.085  14.619  17.965  0.00  0.00    +0.000 A 
ATOM     34  N   UNL     1       2.088  13.747  18.231  0.00  0.00    +0.000 NA
ATOM     35  C   UNL     1       1.015  14.183  18.957  0.00  0.00    +0.000 A 
ENDBRANCH  22  25
ENDBRANCH   4  21
TORSDOF 4
ENDMDL
MODEL 5
REMARK VINA RESULT:      -9.1      0.866      1.197
REMARK  Name = 
REMARK  6 active torsions:
REMARK  status: ('A' for Active; 'I' for Inactive)
REMARK    1  A    between atoms: C_1  and  C_2
REMARK    2  A    between atoms: C_2  and  C_3
REMARK    3  A    between atoms: N_7  and  C_8
REMARK    4  A    between atoms: C_11  and  N_12
REMARK    5  A    between atoms: C_13  and  C_15
REMARK    6  A    between atoms: C_28  and  C_29
REMARK                            x       y       z     vdW  Elec       q    Type
REMARK                         _______ _______ _______ _____ _____    ______ ____
ROOT
ATOM      1  C   UNL     1       2.534   6.261  19.770  0.00  0.00    +0.000 C 
ATOM      2  C   UNL     1       2.239   6.924  18.419  0.00  0.00    +0.000 C 
ATOM      3  C   UNL     1       2.215   8.443  18.572  0.00  0.00    +0.000 C 
ATOM      4  C   UNL     1       1.221   8.903  19.649  0.00  0.00    +0.000 C 
ATOM      5  C   UNL     1       1.364   8.148  20.976  0.00  0.00    +0.000 C 
ATOM      6  C   UNL     1       1.434   6.635  20.774  0.00  0.00    +0.000 C 
ENDROOT
BRANCH   1  13
ATOM      7  C   UNL     1       3.420   1.633  17.955  0.00  0.00    +0.000 C 
ATOM      8  C   UNL     1       2.622   2.719  18.680  0.00  0.00    +0.000 C 
ATOM      9  C   UNL     1       1.123   2.444  18.464  0.00  0.00    +0.000 C 
ATOM     10  O   UNL     1       2.848   2.624  20.101  0.00  0.00    +0.000 OA
ATOM     11  C   UNL     1       2.673   3.877  20.633  0.00  0.00    +0.000 C 
ATOM     12  O   UNL     1       2.499   4.071  21.824  0.00  0.00    +0.000 OA
ATOM     13  N   UNL     1       2.736   4.819  19.635  0.00  0.00    +0.000 N 
ATOM     14  C   UNL     1       2.991   4.184  18.358  0.00  0.00    +0.000 C 
BRANCH  14  15
ATOM     15  C   UNL     1       4.421   4.455  17.907  0.00  0.00    +0.000 A 
ATOM     16  C   UNL     1       4.764   4.525  16.543  0.00  0.00    +0.000 A 
ATOM     17  C   UNL     1       6.076   4.769  16.143  0.00  0.00    +0.000 A 
ATOM     18  C   UNL     1       7.076   4.924  17.095  0.00  0.00    +0.000 A 
ATOM     19  C   UNL     1       6.763   4.839  18.450  0.00  0.00    +0.000 A 
ATOM     20  C   UNL     1       5.447   4.610  18.856  0.00  0.00    +0.000 A 
ENDBRANCH  14  15
ENDBRANCH   1  13
BRANCH   4  21
ATOM     21  N   UNL     1       1.261  10.344  19.835  0.00  0.00    +0.000 N 
ATOM     22  C   UNL     1       0.198  11.146  20.185  0.00  0.00    +0.000 C 
ATOM     23  O   UNL     1      -0.946  10.727  20.322  0.00  0.00    +0.000 OA
ATOM     24  H   UNL     1       2.169  10.801  19.742  0.00  0.00    +0.000 HD
BRANCH  22  25
ATOM     25  C   UNL     1       0.489  12.595  20.431  0.00  0.00    +0.000 A 
ATOM     26  C   UNL     1      -0.106  13.171  21.563  0.00  0.00    +0.000 A 
ATOM     27  C   UNL     1       0.167  14.490  21.843  0.00  0.00    +0.000 A 
ATOM     28  N   UNL     1       0.978  15.250  21.085  0.00  0.00    +0.000 NA
ATOM     29  C   UNL     1       1.542  14.687  20.000  0.00  0.00    +0.000 A 
ATOM     30  C   UNL     1       2.388  15.465  19.225  0.00  0.00    +0.000 A 
ATOM     31  C   UNL     1       2.998  14.938  18.100  0.00  0.00    +0.000 A 
ATOM     32  F   UNL     1       3.819  15.688  17.356  0.00  0.00    +0.000 F 
ATOM     33  C   UNL     1       2.747  13.630  17.762  0.00  0.00    +0.000 A 
ATOM     34  N   UNL     1       1.934  12.831  18.485  0.00  0.00    +0.000 NA
ATOM     35  C   UNL     1       1.335  13.346  19.602  0.00  0.00    +0.000 A 
ENDBRANCH  22  25
ENDBRANCH   4  21
TORSDOF 4
ENDMDL
MODEL 6
REMARK VINA RESULT:      -9.0      1.684      2.556
REMARK  Name = 
REMARK  6 active torsions:
REMARK  status: ('A' for Active; 'I' for Inactive)
REMARK    1  A    between atoms: C_1  and  C_2
REMARK    2  A    between atoms: C_2  and  C_3
REMARK    3  A    between atoms: N_7  and  C_8
REMARK    4  A    between atoms: C_11  and  N_12
REMARK    5  A    between atoms: C_13  and  C_15
REMARK    6  A    between atoms: C_28  and  C_29
REMARK                            x       y       z     vdW  Elec       q    Type
REMARK                         _______ _______ _______ _____ _____    ______ ____
ROOT
ATOM      1  C   UNL     1       2.580   6.374  19.548  0.00  0.00    +0.000 C 
ATOM      2  C   UNL     1       2.242   6.897  18.147  0.00  0.00    +0.000 C 
ATOM      3  C   UNL     1       2.214   8.424  18.148  0.00  0.00    +0.000 C 
ATOM      4  C   UNL     1       1.251   8.988  19.203  0.00  0.00    +0.000 C 
ATOM      5  C   UNL     1       1.436   8.370  20.594  0.00  0.00    +0.000 C 
ATOM      6  C   UNL     1       1.507   6.844  20.542  0.00  0.00    +0.000 C 
ENDROOT
BRANCH   1  13
ATOM      7  C   UNL     1       3.492   1.597  18.187  0.00  0.00    +0.000 C 
ATOM      8  C   UNL     1       2.684   2.744  18.797  0.00  0.00    +0.000 C 
ATOM      9  C   UNL     1       1.188   2.448  18.590  0.00  0.00    +0.000 C 
ATOM     10  O   UNL     1       2.893   2.785  20.223  0.00  0.00    +0.000 OA
ATOM     11  C   UNL     1       2.710   4.082  20.633  0.00  0.00    +0.000 C 
ATOM     12  O   UNL     1       2.521   4.387  21.798  0.00  0.00    +0.000 OA
ATOM     13  N   UNL     1       2.784   4.925  19.552  0.00  0.00    +0.000 N 
ATOM     14  C   UNL     1       3.056   4.174  18.343  0.00  0.00    +0.000 C 
BRANCH  14  15
ATOM     15  C   UNL     1       4.491   4.404  17.887  0.00  0.00    +0.000 A 
ATOM     16  C   UNL     1       5.526   4.660  18.807  0.00  0.00    +0.000 A 
ATOM     17  C   UNL     1       6.834   4.873  18.378  0.00  0.00    +0.000 A 
ATOM     18  C   UNL     1       7.132   4.859  17.021  0.00  0.00    +0.000 A 
ATOM     19  C   UNL     1       6.121   4.628  16.092  0.00  0.00    +0.000 A 
ATOM     20  C   UNL     1       4.810   4.399  16.518  0.00  0.00    +0.000 A 
ENDBRANCH  14  15
ENDBRANCH   1  13
BRANCH   4  21
ATOM     21  N   UNL     1       1.289  10.440  19.243  0.00  0.00    +0.000 N 
ATOM     22  C   UNL     1       0.327  11.290  18.746  0.00  0.00    +0.000 C 
ATOM     23  O   UNL     1      -0.669  10.904  18.144  0.00  0.00    +0.000 OA
ATOM     24  H   UNL     1       2.080  10.872  19.721  0.00  0.00    +0.000 HD
BRANCH  22  25
ATOM     25  C   UNL     1       0.518  12.755  18.994  0.00  0.00    +0.000 A 
ATOM     26  C   UNL     1       1.676  13.337  18.457  0.00  0.00    +0.000 A 
ATOM     27  C   UNL     1       1.868  14.688  18.632  0.00  0.00    +0.000 A 
ATOM     28  N   UNL     1       0.998  15.475  19.290  0.00  0.00    +0.000 NA
ATOM     29  C   UNL     1      -0.109  14.906  19.803  0.00  0.00    +0.000 A 
ATOM     30  C   UNL     1      -1.013  15.718  20.469  0.00  0.00    +0.000 A 
ATOM     31  C   UNL     1      -2.170  15.187  21.014  0.00  0.00    +0.000 A 
ATOM     32  F   UNL     1      -3.044  15.973  21.653  0.00  0.00    +0.000 F 
ATOM     33  C   UNL     1      -2.404  13.840  20.886  0.00  0.00    +0.000 A 
ATOM     34  N   UNL     1      -1.557  13.008  20.243  0.00  0.00    +0.000 NA
ATOM     35  C   UNL     1      -0.417  13.530  19.697  0.00  0.00    +0.000 A 
ENDBRANCH  22  25
ENDBRANCH   4  21
TORSDOF 4
ENDMDL
MODEL 7
REMARK VINA RESULT:      -8.8      3.277      4.367
REMARK  Name = 
REMARK  6 active torsions:
REMARK  status: ('A' for Active; 'I' for Inactive)
REMARK    1  A    between atoms: C_1  and  C_2
REMARK    2  A    between atoms: C_2  and  C_3
REMARK    3  A    between atoms: N_7  and  C_8
REMARK    4  A    between atoms: C_11  and  N_12
REMARK    5  A    between atoms: C_13  and  C_15
REMARK    6  A    between atoms: C_28  and  C_29
REMARK                            x       y       z     vdW  Elec       q    Type
REMARK                         _______ _______ _______ _____ _____    ______ ____
ROOT
ATOM      1  C   UNL     1       3.186   6.227  17.713  0.00  0.00    +0.000 C 
ATOM      2  C   UNL     1       3.277   6.277  19.242  0.00  0.00    +0.000 C 
ATOM      3  C   UNL     1       2.146   7.131  19.810  0.00  0.00    +0.000 C 
ATOM      4  C   UNL     1       2.122   8.542  19.205  0.00  0.00    +0.000 C 
ATOM      5  C   UNL     1       2.200   8.554  17.673  0.00  0.00    +0.000 C 
ATOM      6  C   UNL     1       3.313   7.649  17.146  0.00  0.00    +0.000 C 
ENDROOT
BRANCH   1  13
ATOM      7  C   UNL     1       7.133   4.159  15.338  0.00  0.00    +0.000 C 
ATOM      8  C   UNL     1       5.652   4.413  15.621  0.00  0.00    +0.000 C 
ATOM      9  C   UNL     1       4.878   4.297  14.295  0.00  0.00    +0.000 C 
ATOM     10  O   UNL     1       5.134   3.377  16.481  0.00  0.00    +0.000 OA
ATOM     11  C   UNL     1       4.089   3.912  17.191  0.00  0.00    +0.000 C 
ATOM     12  O   UNL     1       3.263   3.226  17.770  0.00  0.00    +0.000 OA
ATOM     13  N   UNL     1       4.147   5.283  17.142  0.00  0.00    +0.000 N 
ATOM     14  C   UNL     1       5.302   5.713  16.380  0.00  0.00    +0.000 C 
BRANCH  14  15
ATOM     15  C   UNL     1       6.368   6.280  17.308  0.00  0.00    +0.000 A 
ATOM     16  C   UNL     1       6.956   7.539  17.074  0.00  0.00    +0.000 A 
ATOM     17  C   UNL     1       7.933   8.046  17.928  0.00  0.00    +0.000 A 
ATOM     18  C   UNL     1       8.361   7.298  19.018  0.00  0.00    +0.000 A 
ATOM     19  C   UNL     1       7.808   6.043  19.257  0.00  0.00    +0.000 A 
ATOM     20  C   UNL     1       6.817   5.537  18.413  0.00  0.00    +0.000 A 
ENDBRANCH  14  15
ENDBRANCH   1  13
BRANCH   4  21
ATOM     21  N   UNL     1       0.998   9.319  19.699  0.00  0.00    +0.000 N 
ATOM     22  C   UNL     1       0.888  10.691  19.675  0.00  0.00    +0.000 C 
ATOM     23  O   UNL     1       1.780  11.433  19.277  0.00  0.00    +0.000 OA
ATOM     24  H   UNL     1       0.195   8.801  20.057  0.00  0.00    +0.000 HD
BRANCH  22  25
ATOM     25  C   UNL     1      -0.410  11.279  20.138  0.00  0.00    +0.000 A 
ATOM     26  C   UNL     1      -0.437  11.796  21.441  0.00  0.00    +0.000 A 
ATOM     27  C   UNL     1      -1.600  12.377  21.889  0.00  0.00    +0.000 A 
ATOM     28  N   UNL     1      -2.710  12.476  21.136  0.00  0.00    +0.000 NA
ATOM     29  C   UNL     1      -2.674  11.975  19.886  0.00  0.00    +0.000 A 
ATOM     30  C   UNL     1      -3.813  12.088  19.104  0.00  0.00    +0.000 A 
ATOM     31  C   UNL     1      -3.832  11.594  17.811  0.00  0.00    +0.000 A 
ATOM     32  F   UNL     1      -4.930  11.708  17.055  0.00  0.00    +0.000 F 
ATOM     33  C   UNL     1      -2.704  10.985  17.318  0.00  0.00    +0.000 A 
ATOM     34  N   UNL     1      -1.569  10.855  18.039  0.00  0.00    +0.000 NA
ATOM     35  C   UNL     1      -1.544  11.348  19.314  0.00  0.00    +0.000 A 
ENDBRANCH  22  25
ENDBRANCH   4  21
TORSDOF 4
ENDMDL
MODEL 8
REMARK VINA RESULT:      -8.7      1.399      1.459
REMARK  Name = 
REMARK  6 active torsions:
REMARK  status: ('A' for Active; 'I' for Inactive)
REMARK    1  A    between atoms: C_1  and  C_2
REMARK    2  A    between atoms: C_2  and  C_3
REMARK    3  A    between atoms: N_7  and  C_8
REMARK    4  A    between atoms: C_11  and  N_12
REMARK    5  A    between atoms: C_13  and  C_15
REMARK    6  A    between atoms: C_28  and  C_29
REMARK                            x       y       z     vdW  Elec       q    Type
REMARK                         _______ _______ _______ _____ _____    ______ ____
ROOT
ATOM      1  C   UNL     1       2.503   7.213  19.447  0.00  0.00    +0.000 C 
ATOM      2  C   UNL     1       2.075   7.850  18.120  0.00  0.00    +0.000 C 
ATOM      3  C   UNL     1       1.862   9.352  18.301  0.00  0.00    +0.000 C 
ATOM      4  C   UNL     1       0.860   9.666  19.421  0.00  0.00    +0.000 C 
ATOM      5  C   UNL     1       1.147   8.917  20.729  0.00  0.00    +0.000 C 
ATOM      6  C   UNL     1       1.403   7.429  20.497  0.00  0.00    +0.000 C 
ENDROOT
BRANCH   1  13
ATOM      7  C   UNL     1       4.371   2.869  17.675  0.00  0.00    +0.000 C 
ATOM      8  C   UNL     1       3.283   3.814  18.187  0.00  0.00    +0.000 C 
ATOM      9  C   UNL     1       1.958   3.452  17.490  0.00  0.00    +0.000 C 
ATOM     10  O   UNL     1       3.069   3.594  19.596  0.00  0.00    +0.000 OA
ATOM     11  C   UNL     1       2.611   4.771  20.134  0.00  0.00    +0.000 C 
ATOM     12  O   UNL     1       2.060   4.831  21.220  0.00  0.00    +0.000 OA
ATOM     13  N   UNL     1       2.882   5.810  19.278  0.00  0.00    +0.000 N 
ATOM     14  C   UNL     1       3.582   5.328  18.105  0.00  0.00    +0.000 C 
BRANCH  14  15
ATOM     15  C   UNL     1       5.045   5.748  18.150  0.00  0.00    +0.000 A 
ATOM     16  C   UNL     1       5.907   5.311  19.175  0.00  0.00    +0.000 A 
ATOM     17  C   UNL     1       7.243   5.704  19.209  0.00  0.00    +0.000 A 
ATOM     18  C   UNL     1       7.740   6.560  18.234  0.00  0.00    +0.000 A 
ATOM     19  C   UNL     1       6.901   7.021  17.222  0.00  0.00    +0.000 A 
ATOM     20  C   UNL     1       5.565   6.617  17.176  0.00  0.00    +0.000 A 
ENDBRANCH  14  15
ENDBRANCH   1  13
BRANCH   4  21
ATOM     21  N   UNL     1       0.722  11.097  19.632  0.00  0.00    +0.000 N 
ATOM     22  C   UNL     1       0.792  11.748  20.843  0.00  0.00    +0.000 C 
ATOM     23  O   UNL     1       0.921  11.167  21.916  0.00  0.00    +0.000 OA
ATOM     24  H   UNL     1       0.607  11.681  18.804  0.00  0.00    +0.000 HD
BRANCH  22  25
ATOM     25  C   UNL     1       0.733  13.245  20.817  0.00  0.00    +0.000 A 
ATOM     26  C   UNL     1      -0.064  13.859  21.795  0.00  0.00    +0.000 A 
ATOM     27  C   UNL     1      -0.115  15.233  21.826  0.00  0.00    +0.000 A 
ATOM     28  N   UNL     1       0.564  16.014  20.966  0.00  0.00    +0.000 NA
ATOM     29  C   UNL     1       1.325  15.414  20.031  0.00  0.00    +0.000 A 
ATOM     30  C   UNL     1       2.036  16.216  19.152  0.00  0.00    +0.000 A 
ATOM     31  C   UNL     1       2.836  15.654  18.173  0.00  0.00    +0.000 A 
ATOM     32  F   UNL     1       3.526  16.430  17.329  0.00  0.00    +0.000 F 
ATOM     33  C   UNL     1       2.909  14.285  18.083  0.00  0.00    +0.000 A 
ATOM     34  N   UNL     1       2.239  13.461  18.917  0.00  0.00    +0.000 NA
ATOM     35  C   UNL     1       1.454  14.013  19.890  0.00  0.00    +0.000 A 
ENDBRANCH  22  25
ENDBRANCH   4  21
TORSDOF 4
ENDMDL
MODEL 9
REMARK VINA RESULT:      -8.7      1.352      1.391
REMARK  Name = 
REMARK  6 active torsions:
REMARK  status: ('A' for Active; 'I' for Inactive)
REMARK    1  A    between atoms: C_1  and  C_2
REMARK    2  A    between atoms: C_2  and  C_3
REMARK    3  A    between atoms: N_7  and  C_8
REMARK    4  A    between atoms: C_11  and  N_12
REMARK    5  A    between atoms: C_13  and  C_15
REMARK    6  A    between atoms: C_28  and  C_29
REMARK                            x       y       z     vdW  Elec       q    Type
REMARK                         _______ _______ _______ _____ _____    ______ ____
ROOT
ATOM      1  C   UNL     1       2.546   7.006  19.313  0.00  0.00    +0.000 C 
ATOM      2  C   UNL     1       2.131   7.498  17.921  0.00  0.00    +0.000 C 
ATOM      3  C   UNL     1       2.089   9.025  17.893  0.00  0.00    +0.000 C 
ATOM      4  C   UNL     1       1.177   9.601  18.986  0.00  0.00    +0.000 C 
ATOM      5  C   UNL     1       1.440   9.013  20.377  0.00  0.00    +0.000 C 
ATOM      6  C   UNL     1       1.523   7.487  20.352  0.00  0.00    +0.000 C 
ENDROOT
BRANCH   1  13
ATOM      7  C   UNL     1       3.607   2.238  18.033  0.00  0.00    +0.000 C 
ATOM      8  C   UNL     1       2.744   3.377  18.578  0.00  0.00    +0.000 C 
ATOM      9  C   UNL     1       1.270   3.065  18.259  0.00  0.00    +0.000 C 
ATOM     10  O   UNL     1       2.844   3.421  20.015  0.00  0.00    +0.000 OA
ATOM     11  C   UNL     1       2.617   4.717  20.408  0.00  0.00    +0.000 C 
ATOM     12  O   UNL     1       2.337   5.021  21.555  0.00  0.00    +0.000 OA
ATOM     13  N   UNL     1       2.764   5.560  19.334  0.00  0.00    +0.000 N 
ATOM     14  C   UNL     1       3.134   4.810  18.151  0.00  0.00    +0.000 C 
BRANCH  14  15
ATOM     15  C   UNL     1       4.598   5.054  17.804  0.00  0.00    +0.000 A 
ATOM     16  C   UNL     1       5.582   5.178  18.804  0.00  0.00    +0.000 A 
ATOM     17  C   UNL     1       6.917   5.405  18.475  0.00  0.00    +0.000 A 
ATOM     18  C   UNL     1       7.292   5.538  17.144  0.00  0.00    +0.000 A 
ATOM     19  C   UNL     1       6.332   5.440  16.140  0.00  0.00    +0.000 A 
ATOM     20  C   UNL     1       4.995   5.197  16.464  0.00  0.00    +0.000 A 
ENDBRANCH  14  15
ENDBRANCH   1  13
BRANCH   4  21
ATOM     21  N   UNL     1       1.203  11.055  18.995  0.00  0.00    +0.000 N 
ATOM     22  C   UNL     1       0.227  11.880  19.506  0.00  0.00    +0.000 C 
ATOM     23  O   UNL     1      -0.831  11.467  19.969  0.00  0.00    +0.000 OA
ATOM     24  H   UNL     1       2.041  11.507  18.630  0.00  0.00    +0.000 HD
BRANCH  22  25
ATOM     25  C   UNL     1       0.511  13.351  19.510  0.00  0.00    +0.000 A 
ATOM     26  C   UNL     1      -0.386  14.166  18.805  0.00  0.00    +0.000 A 
ATOM     27  C   UNL     1      -0.179  15.525  18.816  0.00  0.00    +0.000 A 
ATOM     28  N   UNL     1       0.840  16.109  19.473  0.00  0.00    +0.000 NA
ATOM     29  C   UNL     1       1.696  15.317  20.145  0.00  0.00    +0.000 A 
ATOM     30  C   UNL     1       2.739  15.917  20.833  0.00  0.00    +0.000 A 
ATOM     31  C   UNL     1       3.648  15.153  21.544  0.00  0.00    +0.000 A 
ATOM     32  F   UNL     1       4.651  15.734  22.212  0.00  0.00    +0.000 F 
ATOM     33  C   UNL     1       3.500  13.787  21.552  0.00  0.00    +0.000 A 
ATOM     34  N   UNL     1       2.500  13.155  20.901  0.00  0.00    +0.000 NA
ATOM     35  C   UNL     1       1.596  13.908  20.204  0.00  0.00    +0.000 A 
ENDBRANCH  22  25
ENDBRANCH   4  21
TORSDOF 4
ENDMDL
