MODEL 1
REMARK VINA RESULT:      -6.2      0.000      0.000
REMARK  Name = 
REMARK  8 active torsions:
REMARK  status: ('A' for Active; 'I' for Inactive)
REMARK    1  A    between atoms: C_2  and  C_3
REMARK    2  A    between atoms: C_3  and  N_4
REMARK    3  A    between atoms: C_5  and  S_6
REMARK    4  A    between atoms: S_6  and  C_7
REMARK    5  A    between atoms: C_7  and  C_8
REMARK    6  A    between atoms: N_10  and  C_11
REMARK    7  A    between atoms: N_10  and  C_12
REMARK    8  A    between atoms: C_20  and  C_21
REMARK                            x       y       z     vdW  Elec       q    Type
REMARK                         _______ _______ _______ _____ _____    ______ ____
ROOT
ATOM      1  S   UNL     1       1.386   8.325  20.250  0.00  0.00    +0.000 S 
ENDROOT
BRANCH   1   3
ATOM      2  N   UNL     1       2.779   6.041  19.512  0.00  0.00    +0.000 N 
ATOM      3  C   UNL     1       2.405   7.336  19.248  0.00  0.00    +0.000 A 
ATOM      4  N   UNL     1       2.920   7.720  18.104  0.00  0.00    +0.000 NA
ATOM      5  N   UNL     1       3.640   6.673  17.592  0.00  0.00    +0.000 NA
ATOM      6  C   UNL     1       3.537   5.658  18.425  0.00  0.00    +0.000 A 
BRANCH   6   7
ATOM      7  C   UNL     1       4.152   4.287  18.151  0.00  0.00    +0.000 C 
ATOM      8  C   UNL     1       3.264   3.264  17.458  0.00  0.00    +0.000 C 
ATOM      9  C   UNL     1       4.403   3.871  16.714  0.00  0.00    +0.000 C 
ENDBRANCH   6   7
BRANCH   2  10
ATOM     10  C   UNL     1       2.416   5.191  20.631  0.00  0.00    +0.000 C 
BRANCH  10  12
ATOM     11  C   UNL     1       1.057   3.056  20.578  0.00  0.00    +0.000 C 
ATOM     12  C   UNL     1       1.174   4.380  20.370  0.00  0.00    +0.000 C 
ENDBRANCH  10  12
ENDBRANCH   2  10
ENDBRANCH   1   3
BRANCH   1  13
ATOM     13  C   UNL     1       1.037   9.697  19.085  0.00  0.00    +0.000 C 
BRANCH  13  14
ATOM     14  C   UNL     1      -0.245  10.447  19.452  0.00  0.00    +0.000 C 
ATOM     15  O   UNL     1      -1.328  10.018  19.031  0.00  0.00    +0.000 OA
ATOM     16  N   UNL     1      -0.204  11.538  20.342  0.00  0.00    +0.000 N 
ATOM     17  C   UNL     1       1.016  12.188  20.804  0.00  0.00    +0.000 C 
BRANCH  16  18
ATOM     18  C   UNL     1      -1.465  11.839  21.054  0.00  0.00    +0.000 C 
ATOM     19  C   UNL     1      -2.303  13.032  20.564  0.00  0.00    +0.000 C 
ATOM     20  C   UNL     1      -3.669  13.013  21.271  0.00  0.00    +0.000 C 
ATOM     21  C   UNL     1      -3.560  12.963  22.799  0.00  0.00    +0.000 C 
ATOM     22  C   UNL     1      -2.541  11.946  23.312  0.00  0.00    +0.000 C 
ATOM     23  C   UNL     1      -1.215  12.030  22.560  0.00  0.00    +0.000 C 
ENDBRANCH  16  18
ENDBRANCH  13  14
ENDBRANCH   1  13
TORSDOF 7
ENDMDL
MODEL 2
REMARK VINA RESULT:      -6.0      2.281      3.318
REMARK  Name = 
REMARK  8 active torsions:
REMARK  status: ('A' for Active; 'I' for Inactive)
REMARK    1  A    between atoms: C_2  and  C_3
REMARK    2  A    between atoms: C_3  and  N_4
REMARK    3  A    between atoms: C_5  and  S_6
REMARK    4  A    between atoms: S_6  and  C_7
REMARK    5  A    between atoms: C_7  and  C_8
REMARK    6  A    between atoms: N_10  and  C_11
REMARK    7  A    between atoms: N_10  and  C_12
REMARK    8  A    between atoms: C_20  and  C_21
REMARK                            x       y       z     vdW  Elec       q    Type
REMARK                         _______ _______ _______ _____ _____    ______ ____
ROOT
ATOM      1  S   UNL     1       3.009   5.670  19.476  0.00  0.00    +0.000 S 
ENDROOT
BRANCH   1   3
ATOM      2  N   UNL     1       4.319   4.412  17.379  0.00  0.00    +0.000 N 
ATOM      3  C   UNL     1       4.295   5.390  18.342  0.00  0.00    +0.000 A 
ATOM      4  N   UNL     1       5.392   6.107  18.270  0.00  0.00    +0.000 NA
ATOM      5  N   UNL     1       6.156   5.609  17.248  0.00  0.00    +0.000 NA
ATOM      6  C   UNL     1       5.502   4.608  16.697  0.00  0.00    +0.000 A 
BRANCH   6   7
ATOM      7  C   UNL     1       6.012   3.849  15.473  0.00  0.00    +0.000 C 
ATOM      8  C   UNL     1       5.471   4.289  14.120  0.00  0.00    +0.000 C 
ATOM      9  C   UNL     1       6.889   4.578  14.473  0.00  0.00    +0.000 C 
ENDBRANCH   6   7
BRANCH   2  10
ATOM     10  C   UNL     1       3.310   3.420  17.054  0.00  0.00    +0.000 C 
BRANCH  10  12
ATOM     11  C   UNL     1       2.619   1.890  18.949  0.00  0.00    +0.000 C 
ATOM     12  C   UNL     1       3.414   2.180  17.903  0.00  0.00    +0.000 C 
ENDBRANCH  10  12
ENDBRANCH   2  10
ENDBRANCH   1   3
BRANCH   1  13
ATOM     13  C   UNL     1       2.620   7.418  19.083  0.00  0.00    +0.000 C 
BRANCH  13  14
ATOM     14  C   UNL     1       1.627   8.022  20.080  0.00  0.00    +0.000 C 
ATOM     15  O   UNL     1       1.489   7.481  21.186  0.00  0.00    +0.000 OA
ATOM     16  N   UNL     1       0.969   9.233  19.788  0.00  0.00    +0.000 N 
ATOM     17  C   UNL     1       0.975   9.889  18.487  0.00  0.00    +0.000 C 
BRANCH  16  18
ATOM     18  C   UNL     1       0.491  10.006  20.955  0.00  0.00    +0.000 C 
ATOM     19  C   UNL     1      -0.512   9.330  21.905  0.00  0.00    +0.000 C 
ATOM     20  C   UNL     1      -0.681  10.201  23.161  0.00  0.00    +0.000 C 
ATOM     21  C   UNL     1      -1.061  11.653  22.846  0.00  0.00    +0.000 C 
ATOM     22  C   UNL     1      -0.235  12.276  21.721  0.00  0.00    +0.000 C 
ATOM     23  C   UNL     1      -0.115  11.350  20.513  0.00  0.00    +0.000 C 
ENDBRANCH  16  18
ENDBRANCH  13  14
ENDBRANCH   1  13
TORSDOF 7
ENDMDL
MODEL 3
REMARK VINA RESULT:      -6.0      2.737      3.601
REMARK  Name = 
REMARK  8 active torsions:
REMARK  status: ('A' for Active; 'I' for Inactive)
REMARK    1  A    between atoms: C_2  and  C_3
REMARK    2  A    between atoms: C_3  and  N_4
REMARK    3  A    between atoms: C_5  and  S_6
REMARK    4  A    between atoms: S_6  and  C_7
REMARK    5  A    between atoms: C_7  and  C_8
REMARK    6  A    between atoms: N_10  and  C_11
REMARK    7  A    between atoms: N_10  and  C_12
REMARK    8  A    between atoms: C_20  and  C_21
REMARK                            x       y       z     vdW  Elec       q    Type
REMARK                         _______ _______ _______ _____ _____    ______ ____
ROOT
ATOM      1  S   UNL     1       2.128   5.904  18.445  0.00  0.00    +0.000 S 
ENDROOT
BRANCH   1   3
ATOM      2  N   UNL     1       4.072   4.579  16.974  0.00  0.00    +0.000 N 
ATOM      3  C   UNL     1       3.643   5.714  17.616  0.00  0.00    +0.000 A 
ATOM      4  N   UNL     1       4.547   6.658  17.495  0.00  0.00    +0.000 NA
ATOM      5  N   UNL     1       5.589   6.153  16.762  0.00  0.00    +0.000 NA
ATOM      6  C   UNL     1       5.294   4.914  16.429  0.00  0.00    +0.000 A 
BRANCH   6   7
ATOM      7  C   UNL     1       6.191   4.051  15.544  0.00  0.00    +0.000 C 
ATOM      8  C   UNL     1       5.872   4.033  14.056  0.00  0.00    +0.000 C 
ATOM      9  C   UNL     1       7.097   4.731  14.536  0.00  0.00    +0.000 C 
ENDBRANCH   6   7
BRANCH   2  10
ATOM     10  C   UNL     1       3.392   3.307  16.806  0.00  0.00    +0.000 C 
BRANCH  10  12
ATOM     11  C   UNL     1       2.835   2.108  18.965  0.00  0.00    +0.000 C 
ATOM     12  C   UNL     1       3.664   2.345  17.933  0.00  0.00    +0.000 C 
ENDBRANCH  10  12
ENDBRANCH   2  10
ENDBRANCH   1   3
BRANCH   1  13
ATOM     13  C   UNL     1       2.473   7.442  19.381  0.00  0.00    +0.000 C 
BRANCH  13  14
ATOM     14  C   UNL     1       1.855   8.671  18.710  0.00  0.00    +0.000 C 
ATOM     15  O   UNL     1       2.023   8.834  17.494  0.00  0.00    +0.000 OA
ATOM     16  N   UNL     1       1.018   9.538  19.441  0.00  0.00    +0.000 N 
ATOM     17  C   UNL     1       0.844   9.502  20.887  0.00  0.00    +0.000 C 
BRANCH  16  18
ATOM     18  C   UNL     1       0.058  10.333  18.643  0.00  0.00    +0.000 C 
ATOM     19  C   UNL     1      -0.208  11.785  19.074  0.00  0.00    +0.000 C 
ATOM     20  C   UNL     1      -1.030  12.492  17.982  0.00  0.00    +0.000 C 
ATOM     21  C   UNL     1      -2.318  11.745  17.615  0.00  0.00    +0.000 C 
ATOM     22  C   UNL     1      -2.125  10.241  17.422  0.00  0.00    +0.000 C 
ATOM     23  C   UNL     1      -1.300   9.617  18.545  0.00  0.00    +0.000 C 
ENDBRANCH  16  18
ENDBRANCH  13  14
ENDBRANCH   1  13
TORSDOF 7
ENDMDL
MODEL 4
REMARK VINA RESULT:      -5.9      2.572      4.111
REMARK  Name = 
REMARK  8 active torsions:
REMARK  status: ('A' for Active; 'I' for Inactive)
REMARK    1  A    between atoms: C_2  and  C_3
REMARK    2  A    between atoms: C_3  and  N_4
REMARK    3  A    between atoms: C_5  and  S_6
REMARK    4  A    between atoms: S_6  and  C_7
REMARK    5  A    between atoms: C_7  and  C_8
REMARK    6  A    between atoms: N_10  and  C_11
REMARK    7  A    between atoms: N_10  and  C_12
REMARK    8  A    between atoms: C_20  and  C_21
REMARK                            x       y       z     vdW  Elec       q    Type
REMARK                         _______ _______ _______ _____ _____    ______ ____
ROOT
ATOM      1  S   UNL     1       3.349   5.438  19.694  0.00  0.00    +0.000 S 
ENDROOT
BRANCH   1   3
ATOM      2  N   UNL     1       5.176   4.929  17.668  0.00  0.00    +0.000 N 
ATOM      3  C   UNL     1       3.917   4.770  18.193  0.00  0.00    +0.000 A 
ATOM      4  N   UNL     1       3.198   4.014  17.398  0.00  0.00    +0.000 NA
ATOM      5  N   UNL     1       3.982   3.658  16.332  0.00  0.00    +0.000 NA
ATOM      6  C   UNL     1       5.176   4.187  16.506  0.00  0.00    +0.000 A 
BRANCH   6   7
ATOM      7  C   UNL     1       6.343   3.945  15.551  0.00  0.00    +0.000 C 
ATOM      8  C   UNL     1       6.010   3.858  14.069  0.00  0.00    +0.000 C 
ATOM      9  C   UNL     1       6.741   5.047  14.588  0.00  0.00    +0.000 C 
ENDBRANCH   6   7
BRANCH   2  10
ATOM     10  C   UNL     1       6.316   5.641  18.217  0.00  0.00    +0.000 C 
BRANCH  10  12
ATOM     11  C   UNL     1       7.676   7.673  17.561  0.00  0.00    +0.000 C 
ATOM     12  C   UNL     1       6.512   6.998  17.593  0.00  0.00    +0.000 C 
ENDBRANCH  10  12
ENDBRANCH   2  10
ENDBRANCH   1   3
BRANCH   1  13
ATOM     13  C   UNL     1       2.800   7.089  19.115  0.00  0.00    +0.000 C 
BRANCH  13  14
ATOM     14  C   UNL     1       1.788   7.724  20.071  0.00  0.00    +0.000 C 
ATOM     15  O   UNL     1       1.607   7.203  21.179  0.00  0.00    +0.000 OA
ATOM     16  N   UNL     1       1.160   8.941  19.739  0.00  0.00    +0.000 N 
ATOM     17  C   UNL     1       1.217   9.576  18.429  0.00  0.00    +0.000 C 
BRANCH  16  18
ATOM     18  C   UNL     1       0.659   9.740  20.879  0.00  0.00    +0.000 C 
ATOM     19  C   UNL     1      -0.417   9.112  21.782  0.00  0.00    +0.000 C 
ATOM     20  C   UNL     1      -0.610   9.997  23.026  0.00  0.00    +0.000 C 
ATOM     21  C   UNL     1      -0.912  11.461  22.687  0.00  0.00    +0.000 C 
ATOM     22  C   UNL     1      -0.007  12.043  21.602  0.00  0.00    +0.000 C 
ATOM     23  C   UNL     1       0.132  11.105  20.404  0.00  0.00    +0.000 C 
ENDBRANCH  16  18
ENDBRANCH  13  14
ENDBRANCH   1  13
TORSDOF 7
ENDMDL
MODEL 5
REMARK VINA RESULT:      -5.9      2.811      4.225
REMARK  Name = 
REMARK  8 active torsions:
REMARK  status: ('A' for Active; 'I' for Inactive)
REMARK    1  A    between atoms: C_2  and  C_3
REMARK    2  A    between atoms: C_3  and  N_4
REMARK    3  A    between atoms: C_5  and  S_6
REMARK    4  A    between atoms: S_6  and  C_7
REMARK    5  A    between atoms: C_7  and  C_8
REMARK    6  A    between atoms: N_10  and  C_11
REMARK    7  A    between atoms: N_10  and  C_12
REMARK    8  A    between atoms: C_20  and  C_21
REMARK                            x       y       z     vdW  Elec       q    Type
REMARK                         _______ _______ _______ _____ _____    ______ ____
ROOT
ATOM      1  S   UNL     1       3.701   6.507  19.117  0.00  0.00    +0.000 S 
ENDROOT
BRANCH   1   3
ATOM      2  N   UNL     1       5.330   5.535  17.092  0.00  0.00    +0.000 N 
ATOM      3  C   UNL     1       4.269   5.357  17.946  0.00  0.00    +0.000 A 
ATOM      4  N   UNL     1       3.750   4.166  17.761  0.00  0.00    +0.000 NA
ATOM      5  N   UNL     1       4.470   3.538  16.780  0.00  0.00    +0.000 NA
ATOM      6  C   UNL     1       5.433   4.350  16.395  0.00  0.00    +0.000 A 
BRANCH   6   7
ATOM      7  C   UNL     1       6.488   3.963  15.360  0.00  0.00    +0.000 C 
ATOM      8  C   UNL     1       6.020   3.839  13.918  0.00  0.00    +0.000 C 
ATOM      9  C   UNL     1       6.892   4.981  14.310  0.00  0.00    +0.000 C 
ENDBRANCH   6   7
BRANCH   2  10
ATOM     10  C   UNL     1       6.228   6.669  16.970  0.00  0.00    +0.000 C 
BRANCH  10  12
ATOM     11  C   UNL     1       7.741   5.541  18.658  0.00  0.00    +0.000 C 
ATOM     12  C   UNL     1       7.359   6.629  17.965  0.00  0.00    +0.000 C 
ENDBRANCH  10  12
ENDBRANCH   2  10
ENDBRANCH   1   3
BRANCH   1  13
ATOM     13  C   UNL     1       2.128   7.014  18.323  0.00  0.00    +0.000 C 
BRANCH  13  14
ATOM     14  C   UNL     1       1.951   8.534  18.321  0.00  0.00    +0.000 C 
ATOM     15  O   UNL     1       2.243   9.167  17.297  0.00  0.00    +0.000 OA
ATOM     16  N   UNL     1       1.361   9.185  19.422  0.00  0.00    +0.000 N 
ATOM     17  C   UNL     1       1.085   8.558  20.708  0.00  0.00    +0.000 C 
BRANCH  16  18
ATOM     18  C   UNL     1       0.738  10.497  19.139  0.00  0.00    +0.000 C 
ATOM     19  C   UNL     1       0.944  11.628  20.160  0.00  0.00    +0.000 C 
ATOM     20  C   UNL     1       0.432  12.948  19.559  0.00  0.00    +0.000 C 
ATOM     21  C   UNL     1      -1.016  12.866  19.061  0.00  0.00    +0.000 C 
ATOM     22  C   UNL     1      -1.316  11.612  18.241  0.00  0.00    +0.000 C 
ATOM     23  C   UNL     1      -0.775  10.347  18.904  0.00  0.00    +0.000 C 
ENDBRANCH  16  18
ENDBRANCH  13  14
ENDBRANCH   1  13
TORSDOF 7
ENDMDL
MODEL 6
REMARK VINA RESULT:      -5.9      2.183      8.967
REMARK  Name = 
REMARK  8 active torsions:
REMARK  status: ('A' for Active; 'I' for Inactive)
REMARK    1  A    between atoms: C_2  and  C_3
REMARK    2  A    between atoms: C_3  and  N_4
REMARK    3  A    between atoms: C_5  and  S_6
REMARK    4  A    between atoms: S_6  and  C_7
REMARK    5  A    between atoms: C_7  and  C_8
REMARK    6  A    between atoms: N_10  and  C_11
REMARK    7  A    between atoms: N_10  and  C_12
REMARK    8  A    between atoms: C_20  and  C_21
REMARK                            x       y       z     vdW  Elec       q    Type
REMARK                         _______ _______ _______ _____ _____    ______ ____
ROOT
ATOM      1  S   UNL     1       1.280   9.325  18.439  0.00  0.00    +0.000 S 
ENDROOT
BRANCH   1   3
ATOM      2  N   UNL     1      -0.101  11.290  19.828  0.00  0.00    +0.000 N 
ATOM      3  C   UNL     1       0.776  10.233  19.831  0.00  0.00    +0.000 A 
ATOM      4  N   UNL     1       1.171   9.991  21.059  0.00  0.00    +0.000 NA
ATOM      5  N   UNL     1       0.550  10.889  21.887  0.00  0.00    +0.000 NA
ATOM      6  C   UNL     1      -0.231  11.653  21.152  0.00  0.00    +0.000 A 
BRANCH   6   7
ATOM      7  C   UNL     1      -1.141  12.729  21.741  0.00  0.00    +0.000 C 
ATOM      8  C   UNL     1      -2.535  12.290  22.164  0.00  0.00    +0.000 C 
ATOM      9  C   UNL     1      -1.529  12.638  23.205  0.00  0.00    +0.000 C 
ENDBRANCH   6   7
BRANCH   2  10
ATOM     10  C   UNL     1      -0.822  11.880  18.715  0.00  0.00    +0.000 C 
BRANCH  10  12
ATOM     11  C   UNL     1      -2.230  10.393  17.226  0.00  0.00    +0.000 C 
ATOM     12  C   UNL     1      -2.066  11.111  18.352  0.00  0.00    +0.000 C 
ENDBRANCH  10  12
ENDBRANCH   2  10
ENDBRANCH   1   3
BRANCH   1  13
ATOM     13  C   UNL     1       2.052   7.883  19.267  0.00  0.00    +0.000 C 
BRANCH  13  14
ATOM     14  C   UNL     1       3.093   7.200  18.377  0.00  0.00    +0.000 C 
ATOM     15  O   UNL     1       3.461   7.774  17.342  0.00  0.00    +0.000 OA
ATOM     16  N   UNL     1       3.703   5.998  18.785  0.00  0.00    +0.000 N 
ATOM     17  C   UNL     1       3.271   5.190  19.917  0.00  0.00    +0.000 C 
BRANCH  16  18
ATOM     18  C   UNL     1       5.026   5.710  18.189  0.00  0.00    +0.000 C 
ATOM     19  C   UNL     1       5.108   4.617  17.109  0.00  0.00    +0.000 C 
ATOM     20  C   UNL     1       6.502   4.654  16.460  0.00  0.00    +0.000 C 
ATOM     21  C   UNL     1       7.647   4.560  17.476  0.00  0.00    +0.000 C 
ATOM     22  C   UNL     1       7.466   5.465  18.694  0.00  0.00    +0.000 C 
ATOM     23  C   UNL     1       6.058   5.370  19.278  0.00  0.00    +0.000 C 
ENDBRANCH  16  18
ENDBRANCH  13  14
ENDBRANCH   1  13
TORSDOF 7
ENDMDL
MODEL 7
REMARK VINA RESULT:      -5.9      2.627      3.709
REMARK  Name = 
REMARK  8 active torsions:
REMARK  status: ('A' for Active; 'I' for Inactive)
REMARK    1  A    between atoms: C_2  and  C_3
REMARK    2  A    between atoms: C_3  and  N_4
REMARK    3  A    between atoms: C_5  and  S_6
REMARK    4  A    between atoms: S_6  and  C_7
REMARK    5  A    between atoms: C_7  and  C_8
REMARK    6  A    between atoms: N_10  and  C_11
REMARK    7  A    between atoms: N_10  and  C_12
REMARK    8  A    between atoms: C_20  and  C_21
REMARK                            x       y       z     vdW  Elec       q    Type
REMARK                         _______ _______ _______ _____ _____    ______ ____
ROOT
ATOM      1  S   UNL     1       3.657   6.341  19.092  0.00  0.00    +0.000 S 
ENDROOT
BRANCH   1   3
ATOM      2  N   UNL     1       4.731   4.775  17.070  0.00  0.00    +0.000 N 
ATOM      3  C   UNL     1       4.765   5.924  17.820  0.00  0.00    +0.000 A 
ATOM      4  N   UNL     1       5.757   6.684  17.420  0.00  0.00    +0.000 NA
ATOM      5  N   UNL     1       6.392   6.043  16.390  0.00  0.00    +0.000 NA
ATOM      6  C   UNL     1       5.763   4.908  16.163  0.00  0.00    +0.000 A 
BRANCH   6   7
ATOM      7  C   UNL     1       6.143   3.954  15.033  0.00  0.00    +0.000 C 
ATOM      8  C   UNL     1       5.444   4.160  13.698  0.00  0.00    +0.000 C 
ATOM      9  C   UNL     1       6.887   4.502  13.831  0.00  0.00    +0.000 C 
ENDBRANCH   6   7
BRANCH   2  10
ATOM     10  C   UNL     1       3.789   3.671  17.122  0.00  0.00    +0.000 C 
BRANCH  10  12
ATOM     11  C   UNL     1       3.163   1.828  18.741  0.00  0.00    +0.000 C 
ATOM     12  C   UNL     1       4.032   2.751  18.290  0.00  0.00    +0.000 C 
ENDBRANCH  10  12
ENDBRANCH   2  10
ENDBRANCH   1   3
BRANCH   1  13
ATOM     13  C   UNL     1       2.262   6.988  18.094  0.00  0.00    +0.000 C 
BRANCH  13  14
ATOM     14  C   UNL     1       2.073   8.495  18.283  0.00  0.00    +0.000 C 
ATOM     15  O   UNL     1       2.341   9.252  17.340  0.00  0.00    +0.000 OA
ATOM     16  N   UNL     1       1.498   8.999  19.466  0.00  0.00    +0.000 N 
ATOM     17  C   UNL     1       1.251   8.216  20.669  0.00  0.00    +0.000 C 
BRANCH  16  18
ATOM     18  C   UNL     1       0.860  10.329  19.358  0.00  0.00    +0.000 C 
ATOM     19  C   UNL     1       0.873  11.238  20.598  0.00  0.00    +0.000 C 
ATOM     20  C   UNL     1       0.387  12.642  20.200  0.00  0.00    +0.000 C 
ATOM     21  C   UNL     1      -0.975  12.634  19.495  0.00  0.00    +0.000 C 
ATOM     22  C   UNL     1      -1.102  11.563  18.412  0.00  0.00    +0.000 C 
ATOM     23  C   UNL     1      -0.599  10.202  18.887  0.00  0.00    +0.000 C 
ENDBRANCH  16  18
ENDBRANCH  13  14
ENDBRANCH   1  13
TORSDOF 7
ENDMDL
MODEL 8
REMARK VINA RESULT:      -5.8      2.236      3.340
REMARK  Name = 
REMARK  8 active torsions:
REMARK  status: ('A' for Active; 'I' for Inactive)
REMARK    1  A    between atoms: C_2  and  C_3
REMARK    2  A    between atoms: C_3  and  N_4
REMARK    3  A    between atoms: C_5  and  S_6
REMARK    4  A    between atoms: S_6  and  C_7
REMARK    5  A    between atoms: C_7  and  C_8
REMARK    6  A    between atoms: N_10  and  C_11
REMARK    7  A    between atoms: N_10  and  C_12
REMARK    8  A    between atoms: C_20  and  C_21
REMARK                            x       y       z     vdW  Elec       q    Type
REMARK                         _______ _______ _______ _____ _____    ______ ____
ROOT
ATOM      1  S   UNL     1       1.255   8.377  21.474  0.00  0.00    +0.000 S 
ENDROOT
BRANCH   1   3
ATOM      2  N   UNL     1       2.347   6.458  19.795  0.00  0.00    +0.000 N 
ATOM      3  C   UNL     1       1.922   7.747  19.999  0.00  0.00    +0.000 A 
ATOM      4  N   UNL     1       2.074   8.442  18.896  0.00  0.00    +0.000 NA
ATOM      5  N   UNL     1       2.603   7.612  17.943  0.00  0.00    +0.000 NA
ATOM      6  C   UNL     1       2.744   6.415  18.474  0.00  0.00    +0.000 A 
BRANCH   6   7
ATOM      7  C   UNL     1       3.240   5.204  17.686  0.00  0.00    +0.000 C 
ATOM      8  C   UNL     1       4.579   5.350  16.977  0.00  0.00    +0.000 C 
ATOM      9  C   UNL     1       4.474   4.469  18.174  0.00  0.00    +0.000 C 
ENDBRANCH   6   7
BRANCH   2  10
ATOM     10  C   UNL     1       2.328   5.330  20.708  0.00  0.00    +0.000 C 
BRANCH  10  12
ATOM     11  C   UNL     1       1.114   3.111  20.808  0.00  0.00    +0.000 C 
ATOM     12  C   UNL     1       1.152   4.416  20.483  0.00  0.00    +0.000 C 
ENDBRANCH  10  12
ENDBRANCH   2  10
ENDBRANCH   1   3
BRANCH   1  13
ATOM     13  C   UNL     1      -0.047   9.471  20.789  0.00  0.00    +0.000 C 
BRANCH  13  14
ATOM     14  C   UNL     1       0.389  10.938  20.769  0.00  0.00    +0.000 C 
ATOM     15  O   UNL     1       1.050  11.376  21.721  0.00  0.00    +0.000 OA
ATOM     16  N   UNL     1       0.140  11.741  19.639  0.00  0.00    +0.000 N 
ATOM     17  C   UNL     1      -0.716  11.363  18.522  0.00  0.00    +0.000 C 
BRANCH  16  18
ATOM     18  C   UNL     1       1.033  12.908  19.467  0.00  0.00    +0.000 C 
ATOM     19  C   UNL     1       0.388  14.301  19.369  0.00  0.00    +0.000 C 
ATOM     20  C   UNL     1       1.489  15.373  19.443  0.00  0.00    +0.000 C 
ATOM     21  C   UNL     1       2.603  15.170  18.410  0.00  0.00    +0.000 C 
ATOM     22  C   UNL     1       3.097  13.727  18.311  0.00  0.00    +0.000 C 
ATOM     23  C   UNL     1       1.945  12.727  18.241  0.00  0.00    +0.000 C 
ENDBRANCH  16  18
ENDBRANCH  13  14
ENDBRANCH   1  13
TORSDOF 7
ENDMDL
MODEL 9
REMARK VINA RESULT:      -5.8      2.255      3.207
REMARK  Name = 
REMARK  8 active torsions:
REMARK  status: ('A' for Active; 'I' for Inactive)
REMARK    1  A    between atoms: C_2  and  C_3
REMARK    2  A    between atoms: C_3  and  N_4
REMARK    3  A    between atoms: C_5  and  S_6
REMARK    4  A    between atoms: S_6  and  C_7
REMARK    5  A    between atoms: C_7  and  C_8
REMARK    6  A    between atoms: N_10  and  C_11
REMARK    7  A    between atoms: N_10  and  C_12
REMARK    8  A    between atoms: C_20  and  C_21
REMARK                            x       y       z     vdW  Elec       q    Type
REMARK                         _______ _______ _______ _____ _____    ______ ____
ROOT
ATOM      1  S   UNL     1       2.941   5.449  19.790  0.00  0.00    +0.000 S 
ENDROOT
BRANCH   1   3
ATOM      2  N   UNL     1       4.187   4.321  17.582  0.00  0.00    +0.000 N 
ATOM      3  C   UNL     1       4.254   5.110  18.704  0.00  0.00    +0.000 A 
ATOM      4  N   UNL     1       5.467   5.596  18.830  0.00  0.00    +0.000 NA
ATOM      5  N   UNL     1       6.218   5.134  17.782  0.00  0.00    +0.000 NA
ATOM      6  C   UNL     1       5.445   4.388  17.020  0.00  0.00    +0.000 A 
BRANCH   6   7
ATOM      7  C   UNL     1       5.919   3.757  15.712  0.00  0.00    +0.000 C 
ATOM      8  C   UNL     1       5.481   4.439  14.425  0.00  0.00    +0.000 C 
ATOM      9  C   UNL     1       6.907   4.517  14.848  0.00  0.00    +0.000 C 
ENDBRANCH   6   7
BRANCH   2  10
ATOM     10  C   UNL     1       3.047   3.618  17.022  0.00  0.00    +0.000 C 
BRANCH  10  12
ATOM     11  C   UNL     1       3.511   1.506  18.340  0.00  0.00    +0.000 C 
ATOM     12  C   UNL     1       2.653   2.408  17.829  0.00  0.00    +0.000 C 
ENDBRANCH  10  12
ENDBRANCH   2  10
ENDBRANCH   1   3
BRANCH   1  13
ATOM     13  C   UNL     1       2.757   7.251  19.508  0.00  0.00    +0.000 C 
BRANCH  13  14
ATOM     14  C   UNL     1       1.465   7.798  20.120  0.00  0.00    +0.000 C 
ATOM     15  O   UNL     1       0.923   7.162  21.034  0.00  0.00    +0.000 OA
ATOM     16  N   UNL     1       0.967   9.056  19.729  0.00  0.00    +0.000 N 
ATOM     17  C   UNL     1       1.459   9.830  18.597  0.00  0.00    +0.000 C 
BRANCH  16  18
ATOM     18  C   UNL     1       0.088   9.735  20.706  0.00  0.00    +0.000 C 
ATOM     19  C   UNL     1      -0.287  11.203  20.440  0.00  0.00    +0.000 C 
ATOM     20  C   UNL     1      -1.387  11.629  21.428  0.00  0.00    +0.000 C 
ATOM     21  C   UNL     1      -1.016  11.376  22.894  0.00  0.00    +0.000 C 
ATOM     22  C   UNL     1      -0.404   9.999  23.146  0.00  0.00    +0.000 C 
ATOM     23  C   UNL     1       0.677   9.652  22.125  0.00  0.00    +0.000 C 
ENDBRANCH  16  18
ENDBRANCH  13  14
ENDBRANCH   1  13
TORSDOF 7
ENDMDL
