MODEL 1
REMARK VINA RESULT:      -5.5      0.000      0.000
REMARK  Name = 
REMARK  6 active torsions:
REMARK  status: ('A' for Active; 'I' for Inactive)
REMARK    1  A    between atoms: C_1  and  C_2
REMARK    2  A    between atoms: C_2  and  N_3
REMARK    3  A    between atoms: N_3  and  C_4
REMARK    4  A    between atoms: N_3  and  C_5
REMARK    5  A    between atoms: N_3  and  C_6
REMARK    6  A    between atoms: C_10  and  O_11
REMARK                            x       y       z     vdW  Elec       q    Type
REMARK                         _______ _______ _______ _____ _____    ______ ____
ROOT
ATOM      1  C   UNL     1       5.073   5.389  18.309  0.00  0.00    +0.000 A 
ATOM      2  C   UNL     1       5.522   6.210  17.261  0.00  0.00    +0.000 A 
ATOM      3  C   UNL     1       6.819   6.736  17.253  0.00  0.00    +0.000 A 
ATOM      4  C   UNL     1       7.689   6.473  18.304  0.00  0.00    +0.000 A 
ATOM      5  C   UNL     1       7.245   5.698  19.363  0.00  0.00    +0.000 A 
ATOM      6  C   UNL     1       5.952   5.171  19.380  0.00  0.00    +0.000 A 
ENDROOT
BRANCH   1   7
ATOM      7  N   UNL     1       3.638   4.819  18.335  0.00  0.00    +0.000 NA
ATOM      8  C   UNL     1       3.359   4.197  19.709  0.00  0.00    +0.000 C 
ATOM      9  C   UNL     1       2.699   5.994  18.092  0.00  0.00    +0.000 C 
BRANCH   7  11
ATOM     10  C   UNL     1       3.124   2.344  17.783  0.00  0.00    +0.000 C 
ATOM     11  C   UNL     1       3.486   3.726  17.251  0.00  0.00    +0.000 C 
ENDBRANCH   7  11
ENDBRANCH   1   7
BRANCH   5  12
ATOM     12  O   UNL     1       8.043   5.425  20.432  0.00  0.00    +0.000 OA
ATOM     13  H   UNL     1       8.633   4.679  20.220  0.00  0.00    +0.000 HD
ENDBRANCH   5  12
TORSDOF 3
ENDMDL
MODEL 2
REMARK VINA RESULT:      -5.5      0.508      1.706
REMARK  Name = 
REMARK  6 active torsions:
REMARK  status: ('A' for Active; 'I' for Inactive)
REMARK    1  A    between atoms: C_1  and  C_2
REMARK    2  A    between atoms: C_2  and  N_3
REMARK    3  A    between atoms: N_3  and  C_4
REMARK    4  A    between atoms: N_3  and  C_5
REMARK    5  A    between atoms: N_3  and  C_6
REMARK    6  A    between atoms: C_10  and  O_11
REMARK                            x       y       z     vdW  Elec       q    Type
REMARK                         _______ _______ _______ _____ _____    ______ ____
ROOT
ATOM      1  C   UNL     1       5.004   5.451  18.335  0.00  0.00    +0.000 A 
ATOM      2  C   UNL     1       5.458   6.243  17.268  0.00  0.00    +0.000 A 
ATOM      3  C   UNL     1       6.772   6.724  17.225  0.00  0.00    +0.000 A 
ATOM      4  C   UNL     1       7.656   6.444  18.261  0.00  0.00    +0.000 A 
ATOM      5  C   UNL     1       7.208   5.698  19.339  0.00  0.00    +0.000 A 
ATOM      6  C   UNL     1       5.899   5.216  19.390  0.00  0.00    +0.000 A 
ENDROOT
BRANCH   1   7
ATOM      7  N   UNL     1       3.552   4.931  18.399  0.00  0.00    +0.000 NA
ATOM      8  C   UNL     1       2.582   6.088  18.126  0.00  0.00    +0.000 C 
ATOM      9  C   UNL     1       3.422   3.872  17.313  0.00  0.00    +0.000 C 
BRANCH   7  11
ATOM     10  C   UNL     1       2.070   4.987  20.520  0.00  0.00    +0.000 C 
ATOM     11  C   UNL     1       3.260   4.356  19.805  0.00  0.00    +0.000 C 
ENDBRANCH   7  11
ENDBRANCH   1   7
BRANCH   5  12
ATOM     12  O   UNL     1       8.020   5.410  20.394  0.00  0.00    +0.000 OA
ATOM     13  H   UNL     1       7.853   4.500  20.699  0.00  0.00    +0.000 HD
ENDBRANCH   5  12
TORSDOF 3
ENDMDL
MODEL 3
REMARK VINA RESULT:      -5.4      0.803      1.326
REMARK  Name = 
REMARK  6 active torsions:
REMARK  status: ('A' for Active; 'I' for Inactive)
REMARK    1  A    between atoms: C_1  and  C_2
REMARK    2  A    between atoms: C_2  and  N_3
REMARK    3  A    between atoms: N_3  and  C_4
REMARK    4  A    between atoms: N_3  and  C_5
REMARK    5  A    between atoms: N_3  and  C_6
REMARK    6  A    between atoms: C_10  and  O_11
REMARK                            x       y       z     vdW  Elec       q    Type
REMARK                         _______ _______ _______ _____ _____    ______ ____
ROOT
ATOM      1  C   UNL     1       5.662   5.338  18.046  0.00  0.00    +0.000 A 
ATOM      2  C   UNL     1       6.135   6.357  17.204  0.00  0.00    +0.000 A 
ATOM      3  C   UNL     1       7.320   7.046  17.489  0.00  0.00    +0.000 A 
ATOM      4  C   UNL     1       8.046   6.748  18.637  0.00  0.00    +0.000 A 
ATOM      5  C   UNL     1       7.568   5.772  19.496  0.00  0.00    +0.000 A 
ATOM      6  C   UNL     1       6.387   5.082  19.220  0.00  0.00    +0.000 A 
ENDROOT
BRANCH   1   7
ATOM      7  N   UNL     1       4.347   4.585  17.748  0.00  0.00    +0.000 NA
ATOM      8  C   UNL     1       3.162   5.551  17.883  0.00  0.00    +0.000 C 
ATOM      9  C   UNL     1       4.450   4.081  16.314  0.00  0.00    +0.000 C 
BRANCH   7  11
ATOM     10  C   UNL     1       3.509   2.176  18.180  0.00  0.00    +0.000 C 
ATOM     11  C   UNL     1       4.164   3.426  18.756  0.00  0.00    +0.000 C 
ENDBRANCH   7  11
ENDBRANCH   1   7
BRANCH   5  12
ATOM     12  O   UNL     1       8.222   5.452  20.647  0.00  0.00    +0.000 OA
ATOM     13  H   UNL     1       7.773   5.864  21.407  0.00  0.00    +0.000 HD
ENDBRANCH   5  12
TORSDOF 3
ENDMDL
MODEL 4
REMARK VINA RESULT:      -5.3      1.473      2.505
REMARK  Name = 
REMARK  6 active torsions:
REMARK  status: ('A' for Active; 'I' for Inactive)
REMARK    1  A    between atoms: C_1  and  C_2
REMARK    2  A    between atoms: C_2  and  N_3
REMARK    3  A    between atoms: N_3  and  C_4
REMARK    4  A    between atoms: N_3  and  C_5
REMARK    5  A    between atoms: N_3  and  C_6
REMARK    6  A    between atoms: C_10  and  O_11
REMARK                            x       y       z     vdW  Elec       q    Type
REMARK                         _______ _______ _______ _____ _____    ______ ____
ROOT
ATOM      1  C   UNL     1       3.902   4.097  18.509  0.00  0.00    +0.000 A 
ATOM      2  C   UNL     1       3.761   4.943  17.398  0.00  0.00    +0.000 A 
ATOM      3  C   UNL     1       4.729   5.906  17.089  0.00  0.00    +0.000 A 
ATOM      4  C   UNL     1       5.849   6.060  17.897  0.00  0.00    +0.000 A 
ATOM      5  C   UNL     1       5.979   5.257  19.019  0.00  0.00    +0.000 A 
ATOM      6  C   UNL     1       5.018   4.297  19.336  0.00  0.00    +0.000 A 
ENDROOT
BRANCH   1   7
ATOM      7  N   UNL     1       2.830   3.044  18.868  0.00  0.00    +0.000 NA
ATOM      8  C   UNL     1       1.472   3.485  18.306  0.00  0.00    +0.000 C 
ATOM      9  C   UNL     1       3.267   1.739  18.216  0.00  0.00    +0.000 C 
BRANCH   7  11
ATOM     10  C   UNL     1       1.322   3.169  20.967  0.00  0.00    +0.000 C 
ATOM     11  C   UNL     1       2.715   2.913  20.405  0.00  0.00    +0.000 C 
ENDBRANCH   7  11
ENDBRANCH   1   7
BRANCH   5  12
ATOM     12  O   UNL     1       7.043   5.377  19.862  0.00  0.00    +0.000 OA
ATOM     13  H   UNL     1       7.741   5.907  19.438  0.00  0.00    +0.000 HD
ENDBRANCH   5  12
TORSDOF 3
ENDMDL
MODEL 5
REMARK VINA RESULT:      -5.3      2.921      5.107
REMARK  Name = 
REMARK  6 active torsions:
REMARK  status: ('A' for Active; 'I' for Inactive)
REMARK    1  A    between atoms: C_1  and  C_2
REMARK    2  A    between atoms: C_2  and  N_3
REMARK    3  A    between atoms: N_3  and  C_4
REMARK    4  A    between atoms: N_3  and  C_5
REMARK    5  A    between atoms: N_3  and  C_6
REMARK    6  A    between atoms: C_10  and  O_11
REMARK                            x       y       z     vdW  Elec       q    Type
REMARK                         _______ _______ _______ _____ _____    ______ ____
ROOT
ATOM      1  C   UNL     1       3.100   4.320  18.813  0.00  0.00    +0.000 A 
ATOM      2  C   UNL     1       2.705   4.920  20.020  0.00  0.00    +0.000 A 
ATOM      3  C   UNL     1       1.556   4.500  20.700  0.00  0.00    +0.000 A 
ATOM      4  C   UNL     1       0.761   3.487  20.176  0.00  0.00    +0.000 A 
ATOM      5  C   UNL     1       1.118   2.915  18.966  0.00  0.00    +0.000 A 
ATOM      6  C   UNL     1       2.261   3.328  18.281  0.00  0.00    +0.000 A 
ENDROOT
BRANCH   1   7
ATOM      7  N   UNL     1       4.357   4.788  18.048  0.00  0.00    +0.000 NA
ATOM      8  C   UNL     1       5.553   4.829  19.007  0.00  0.00    +0.000 C 
ATOM      9  C   UNL     1       4.602   3.763  16.949  0.00  0.00    +0.000 C 
BRANCH   7  11
ATOM     10  C   UNL     1       5.021   6.573  16.297  0.00  0.00    +0.000 C 
ATOM     11  C   UNL     1       4.126   6.206  17.475  0.00  0.00    +0.000 C 
ENDBRANCH   7  11
ENDBRANCH   1   7
BRANCH   5  12
ATOM     12  O   UNL     1       0.367   1.934  18.392  0.00  0.00    +0.000 OA
ATOM     13  H   UNL     1       0.531   1.915  17.431  0.00  0.00    +0.000 HD
ENDBRANCH   5  12
TORSDOF 3
ENDMDL
MODEL 6
REMARK VINA RESULT:      -5.3      2.826      4.625
REMARK  Name = 
REMARK  6 active torsions:
REMARK  status: ('A' for Active; 'I' for Inactive)
REMARK    1  A    between atoms: C_1  and  C_2
REMARK    2  A    between atoms: C_2  and  N_3
REMARK    3  A    between atoms: N_3  and  C_4
REMARK    4  A    between atoms: N_3  and  C_5
REMARK    5  A    between atoms: N_3  and  C_6
REMARK    6  A    between atoms: C_10  and  O_11
REMARK                            x       y       z     vdW  Elec       q    Type
REMARK                         _______ _______ _______ _____ _____    ______ ____
ROOT
ATOM      1  C   UNL     1       4.173   4.445  17.374  0.00  0.00    +0.000 A 
ATOM      2  C   UNL     1       3.255   5.448  17.727  0.00  0.00    +0.000 A 
ATOM      3  C   UNL     1       1.980   5.131  18.210  0.00  0.00    +0.000 A 
ATOM      4  C   UNL     1       1.585   3.803  18.330  0.00  0.00    +0.000 A 
ATOM      5  C   UNL     1       2.467   2.806  17.948  0.00  0.00    +0.000 A 
ATOM      6  C   UNL     1       3.740   3.113  17.464  0.00  0.00    +0.000 A 
ENDROOT
BRANCH   1   7
ATOM      7  N   UNL     1       5.575   4.786  16.824  0.00  0.00    +0.000 NA
ATOM      8  C   UNL     1       5.559   6.197  16.223  0.00  0.00    +0.000 C 
ATOM      9  C   UNL     1       6.531   4.732  18.008  0.00  0.00    +0.000 C 
BRANCH   7  11
ATOM     10  C   UNL     1       5.756   4.275  14.294  0.00  0.00    +0.000 C 
ATOM     11  C   UNL     1       5.966   3.776  15.719  0.00  0.00    +0.000 C 
ENDBRANCH   7  11
ENDBRANCH   1   7
BRANCH   5  12
ATOM     12  O   UNL     1       2.130   1.488  18.021  0.00  0.00    +0.000 OA
ATOM     13  H   UNL     1       1.223   1.400  18.367  0.00  0.00    +0.000 HD
ENDBRANCH   5  12
TORSDOF 3
ENDMDL
MODEL 7
REMARK VINA RESULT:      -5.3      2.653      4.736
REMARK  Name = 
REMARK  6 active torsions:
REMARK  status: ('A' for Active; 'I' for Inactive)
REMARK    1  A    between atoms: C_1  and  C_2
REMARK    2  A    between atoms: C_2  and  N_3
REMARK    3  A    between atoms: N_3  and  C_4
REMARK    4  A    between atoms: N_3  and  C_5
REMARK    5  A    between atoms: N_3  and  C_6
REMARK    6  A    between atoms: C_10  and  O_11
REMARK                            x       y       z     vdW  Elec       q    Type
REMARK                         _______ _______ _______ _____ _____    ______ ____
ROOT
ATOM      1  C   UNL     1       4.338   5.014  17.198  0.00  0.00    +0.000 A 
ATOM      2  C   UNL     1       3.444   5.944  17.753  0.00  0.00    +0.000 A 
ATOM      3  C   UNL     1       2.179   5.555  18.208  0.00  0.00    +0.000 A 
ATOM      4  C   UNL     1       1.769   4.232  18.098  0.00  0.00    +0.000 A 
ATOM      5  C   UNL     1       2.627   3.313  17.516  0.00  0.00    +0.000 A 
ATOM      6  C   UNL     1       3.890   3.692  17.057  0.00  0.00    +0.000 A 
ENDROOT
BRANCH   1   7
ATOM      7  N   UNL     1       5.729   5.438  16.677  0.00  0.00    +0.000 NA
ATOM      8  C   UNL     1       6.803   4.528  17.289  0.00  0.00    +0.000 C 
ATOM      9  C   UNL     1       5.697   5.265  15.164  0.00  0.00    +0.000 C 
BRANCH   7  11
ATOM     10  C   UNL     1       7.452   7.164  17.540  0.00  0.00    +0.000 C 
ATOM     11  C   UNL     1       6.021   6.901  17.086  0.00  0.00    +0.000 C 
ENDBRANCH   7  11
ENDBRANCH   1   7
BRANCH   5  12
ATOM     12  O   UNL     1       2.274   2.007  17.359  0.00  0.00    +0.000 OA
ATOM     13  H   UNL     1       2.903   1.565  16.760  0.00  0.00    +0.000 HD
ENDBRANCH   5  12
TORSDOF 3
ENDMDL
MODEL 8
REMARK VINA RESULT:      -5.3      2.977      4.947
REMARK  Name = 
REMARK  6 active torsions:
REMARK  status: ('A' for Active; 'I' for Inactive)
REMARK    1  A    between atoms: C_1  and  C_2
REMARK    2  A    between atoms: C_2  and  N_3
REMARK    3  A    between atoms: N_3  and  C_4
REMARK    4  A    between atoms: N_3  and  C_5
REMARK    5  A    between atoms: N_3  and  C_6
REMARK    6  A    between atoms: C_10  and  O_11
REMARK                            x       y       z     vdW  Elec       q    Type
REMARK                         _______ _______ _______ _____ _____    ______ ____
ROOT
ATOM      1  C   UNL     1       3.151   4.460  18.776  0.00  0.00    +0.000 A 
ATOM      2  C   UNL     1       2.892   5.000  20.046  0.00  0.00    +0.000 A 
ATOM      3  C   UNL     1       1.790   4.585  20.803  0.00  0.00    +0.000 A 
ATOM      4  C   UNL     1       0.909   3.636  20.298  0.00  0.00    +0.000 A 
ATOM      5  C   UNL     1       1.132   3.125  19.029  0.00  0.00    +0.000 A 
ATOM      6  C   UNL     1       2.226   3.535  18.267  0.00  0.00    +0.000 A 
ENDROOT
BRANCH   1   7
ATOM      7  N   UNL     1       4.354   4.926  17.927  0.00  0.00    +0.000 NA
ATOM      8  C   UNL     1       4.145   6.385  17.502  0.00  0.00    +0.000 C 
ATOM      9  C   UNL     1       5.584   4.811  18.817  0.00  0.00    +0.000 C 
BRANCH   7  11
ATOM     10  C   UNL     1       5.857   4.035  16.019  0.00  0.00    +0.000 C 
ATOM     11  C   UNL     1       4.474   4.048  16.659  0.00  0.00    +0.000 C 
ENDBRANCH   7  11
ENDBRANCH   1   7
BRANCH   5  12
ATOM     12  O   UNL     1       0.291   2.210  18.471  0.00  0.00    +0.000 OA
ATOM     13  H   UNL     1      -0.211   2.625  17.746  0.00  0.00    +0.000 HD
ENDBRANCH   5  12
TORSDOF 3
ENDMDL
MODEL 9
REMARK VINA RESULT:      -5.3      1.480      2.396
REMARK  Name = 
REMARK  6 active torsions:
REMARK  status: ('A' for Active; 'I' for Inactive)
REMARK    1  A    between atoms: C_1  and  C_2
REMARK    2  A    between atoms: C_2  and  N_3
REMARK    3  A    between atoms: N_3  and  C_4
REMARK    4  A    between atoms: N_3  and  C_5
REMARK    5  A    between atoms: N_3  and  C_6
REMARK    6  A    between atoms: C_10  and  O_11
REMARK                            x       y       z     vdW  Elec       q    Type
REMARK                         _______ _______ _______ _____ _____    ______ ____
ROOT
ATOM      1  C   UNL     1       4.193   3.998  18.126  0.00  0.00    +0.000 A 
ATOM      2  C   UNL     1       4.703   3.976  16.817  0.00  0.00    +0.000 A 
ATOM      3  C   UNL     1       6.008   4.397  16.538  0.00  0.00    +0.000 A 
ATOM      4  C   UNL     1       6.826   4.872  17.556  0.00  0.00    +0.000 A 
ATOM      5  C   UNL     1       6.321   4.937  18.844  0.00  0.00    +0.000 A 
ATOM      6  C   UNL     1       5.020   4.521  19.132  0.00  0.00    +0.000 A 
ENDROOT
BRANCH   1   7
ATOM      7  N   UNL     1       2.748   3.553  18.441  0.00  0.00    +0.000 NA
ATOM      8  C   UNL     1       1.759   4.532  17.796  0.00  0.00    +0.000 C 
ATOM      9  C   UNL     1       2.580   2.165  17.837  0.00  0.00    +0.000 C 
BRANCH   7  11
ATOM     10  C   UNL     1       1.135   4.003  20.413  0.00  0.00    +0.000 C 
ATOM     11  C   UNL     1       2.521   3.548  19.971  0.00  0.00    +0.000 C 
ENDBRANCH   7  11
ENDBRANCH   1   7
BRANCH   5  12
ATOM     12  O   UNL     1       7.066   5.414  19.880  0.00  0.00    +0.000 OA
ATOM     13  H   UNL     1       6.962   4.832  20.655  0.00  0.00    +0.000 HD
ENDBRANCH   5  12
TORSDOF 3
ENDMDL
