MODEL 1
REMARK VINA RESULT:      -7.9      0.000      0.000
REMARK  Name = 
REMARK  8 active torsions:
REMARK  status: ('A' for Active; 'I' for Inactive)
REMARK    1  A    between atoms: C_2  and  C_3
REMARK    2  A    between atoms: N_7  and  C_8
REMARK    3  A    between atoms: N_7  and  C_17
REMARK    4  A    between atoms: C_8  and  C_9
REMARK    5  A    between atoms: C_9  and  C_10
REMARK    6  A    between atoms: C_17  and  C_18
REMARK    7  A    between atoms: C_28  and  N_29
REMARK    8  A    between atoms: C_32  and  O_33
REMARK                            x       y       z     vdW  Elec       q    Type
REMARK                         _______ _______ _______ _____ _____    ______ ____
ROOT
ATOM      1  C   UNL     1      -0.071  10.793  18.343  0.00  0.00    +0.000 A 
ATOM      2  C   UNL     1      -1.114  10.005  17.848  0.00  0.00    +0.000 A 
ATOM      3  C   UNL     1      -2.434  10.445  17.913  0.00  0.00    +0.000 A 
ATOM      4  C   UNL     1      -3.495   9.632  17.469  0.00  0.00    +0.000 A 
ATOM      5  C   UNL     1      -4.809  10.062  17.611  0.00  0.00    +0.000 A 
ATOM      6  C   UNL     1      -5.062  11.303  18.178  0.00  0.00    +0.000 A 
ATOM      7 CL   UNL     1      -6.689  11.827  18.381  0.00  0.00    +0.000 Cl
ATOM      8  C   UNL     1      -4.004  12.122  18.593  0.00  0.00    +0.000 A 
ATOM      9  C   UNL     1      -2.681  11.710  18.468  0.00  0.00    +0.000 A 
ATOM     10  N   UNL     1      -1.673  12.508  18.884  0.00  0.00    +0.000 NA
ATOM     11  C   UNL     1      -0.385  12.089  18.809  0.00  0.00    +0.000 A 
ENDROOT
BRANCH  11  12
ATOM     12  N   UNL     1       0.599  12.936  19.289  0.00  0.00    +0.000 N 
ATOM     13  C   UNL     1       0.700  13.184  20.722  0.00  0.00    +0.000 C 
ATOM     14  C   UNL     1       2.192  13.094  21.066  0.00  0.00    +0.000 C 
ATOM     15  C   UNL     1       3.062  13.990  20.171  0.00  0.00    +0.000 C 
ATOM     16  C   UNL     1       2.692  13.955  18.685  0.00  0.00    +0.000 C 
ATOM     17  C   UNL     1       1.175  13.999  18.474  0.00  0.00    +0.000 C 
BRANCH  15  18
ATOM     18  O   UNL     1       3.026  15.338  20.642  0.00  0.00    +0.000 OA
ATOM     19  H   UNL     1       2.143  15.704  20.477  0.00  0.00    +0.000 HD
ENDBRANCH  15  18
ENDBRANCH  11  12
BRANCH   1  20
ATOM     20  C   UNL     1       1.352  10.278  18.409  0.00  0.00    +0.000 C 
BRANCH  20  23
ATOM     21  O   UNL     1       1.738   7.360  20.543  0.00  0.00    +0.000 OA
ATOM     22  C   UNL     1       1.446   8.506  20.186  0.00  0.00    +0.000 C 
ATOM     23  N   UNL     1       1.568   8.895  18.844  0.00  0.00    +0.000 N 
BRANCH  22  24
ATOM     24  C   UNL     1       0.976   9.566  21.223  0.00  0.00    +0.000 C 
ATOM     25  C   UNL     1      -0.523   9.606  21.639  0.00  0.00    +0.000 C 
ATOM     26  C   UNL     1      -0.046   9.967  23.061  0.00  0.00    +0.000 C 
ATOM     27  C   UNL     1       1.266   9.241  22.720  0.00  0.00    +0.000 C 
ENDBRANCH  22  24
BRANCH  23  28
ATOM     28  C   UNL     1       2.095   7.963  17.825  0.00  0.00    +0.000 C 
BRANCH  28  29
ATOM     29  C   UNL     1       3.472   7.334  18.107  0.00  0.00    +0.000 C 
BRANCH  29  30
ATOM     30  C   UNL     1       3.424   5.824  18.025  0.00  0.00    +0.000 A 
ATOM     31  C   UNL     1       4.618   5.087  18.096  0.00  0.00    +0.000 A 
ATOM     32  C   UNL     1       4.597   3.696  18.010  0.00  0.00    +0.000 A 
ATOM     33  C   UNL     1       3.384   3.040  17.849  0.00  0.00    +0.000 A 
ATOM     34  F   UNL     1       3.363   1.704  17.762  0.00  0.00    +0.000 F 
ATOM     35  C   UNL     1       2.190   3.750  17.778  0.00  0.00    +0.000 A 
ATOM     36  C   UNL     1       2.208   5.144  17.866  0.00  0.00    +0.000 A 
ENDBRANCH  29  30
ENDBRANCH  28  29
ENDBRANCH  23  28
ENDBRANCH  20  23
ENDBRANCH   1  20
TORSDOF 8
ENDMDL
MODEL 2
REMARK VINA RESULT:      -7.9      1.208      1.695
REMARK  Name = 
REMARK  8 active torsions:
REMARK  status: ('A' for Active; 'I' for Inactive)
REMARK    1  A    between atoms: C_2  and  C_3
REMARK    2  A    between atoms: N_7  and  C_8
REMARK    3  A    between atoms: N_7  and  C_17
REMARK    4  A    between atoms: C_8  and  C_9
REMARK    5  A    between atoms: C_9  and  C_10
REMARK    6  A    between atoms: C_17  and  C_18
REMARK    7  A    between atoms: C_28  and  N_29
REMARK    8  A    between atoms: C_32  and  O_33
REMARK                            x       y       z     vdW  Elec       q    Type
REMARK                         _______ _______ _______ _____ _____    ______ ____
ROOT
ATOM      1  C   UNL     1       0.268  10.535  18.386  0.00  0.00    +0.000 A 
ATOM      2  C   UNL     1      -0.845   9.825  17.927  0.00  0.00    +0.000 A 
ATOM      3  C   UNL     1      -2.125  10.373  18.006  0.00  0.00    +0.000 A 
ATOM      4  C   UNL     1      -3.256   9.640  17.598  0.00  0.00    +0.000 A 
ATOM      5  C   UNL     1      -4.528  10.179  17.754  0.00  0.00    +0.000 A 
ATOM      6  C   UNL     1      -4.668  11.447  18.299  0.00  0.00    +0.000 A 
ATOM      7 CL   UNL     1      -6.243  12.105  18.519  0.00  0.00    +0.000 Cl
ATOM      8  C   UNL     1      -3.539  12.184  18.678  0.00  0.00    +0.000 A 
ATOM      9  C   UNL     1      -2.257  11.664  18.538  0.00  0.00    +0.000 A 
ATOM     10  N   UNL     1      -1.180  12.385  18.920  0.00  0.00    +0.000 NA
ATOM     11  C   UNL     1       0.068  11.861  18.831  0.00  0.00    +0.000 A 
ENDROOT
BRANCH  11  12
ATOM     12  N   UNL     1       1.127  12.634  19.275  0.00  0.00    +0.000 N 
ATOM     13  C   UNL     1       2.177  13.023  18.341  0.00  0.00    +0.000 C 
ATOM     14  C   UNL     1       2.453  14.508  18.603  0.00  0.00    +0.000 C 
ATOM     15  C   UNL     1       2.734  14.807  20.084  0.00  0.00    +0.000 C 
ATOM     16  C   UNL     1       1.797  14.093  21.065  0.00  0.00    +0.000 C 
ATOM     17  C   UNL     1       1.560  12.633  20.666  0.00  0.00    +0.000 C 
BRANCH  15  18
ATOM     18  O   UNL     1       4.090  14.490  20.400  0.00  0.00    +0.000 OA
ATOM     19  H   UNL     1       4.242  13.550  20.219  0.00  0.00    +0.000 HD
ENDBRANCH  15  18
ENDBRANCH  11  12
BRANCH   1  20
ATOM     20  C   UNL     1       1.645   9.907  18.438  0.00  0.00    +0.000 C 
BRANCH  20  23
ATOM     21  O   UNL     1       1.669   6.956  20.562  0.00  0.00    +0.000 OA
ATOM     22  C   UNL     1       1.466   8.116  20.190  0.00  0.00    +0.000 C 
ATOM     23  N   UNL     1       1.753   8.512  18.876  0.00  0.00    +0.000 N 
BRANCH  22  24
ATOM     24  C   UNL     1       0.926   9.186  21.182  0.00  0.00    +0.000 C 
ATOM     25  C   UNL     1      -0.478   8.986  21.823  0.00  0.00    +0.000 C 
ATOM     26  C   UNL     1       0.099   9.609  23.111  0.00  0.00    +0.000 C 
ATOM     27  C   UNL     1       1.476   9.115  22.639  0.00  0.00    +0.000 C 
ENDBRANCH  22  24
BRANCH  23  28
ATOM     28  C   UNL     1       2.353   7.567  17.909  0.00  0.00    +0.000 C 
BRANCH  28  29
ATOM     29  C   UNL     1       3.872   7.681  17.681  0.00  0.00    +0.000 C 
BRANCH  29  30
ATOM     30  C   UNL     1       4.433   6.434  17.030  0.00  0.00    +0.000 A 
ATOM     31  C   UNL     1       4.164   5.177  17.598  0.00  0.00    +0.000 A 
ATOM     32  C   UNL     1       4.682   4.017  17.022  0.00  0.00    +0.000 A 
ATOM     33  C   UNL     1       5.470   4.113  15.883  0.00  0.00    +0.000 A 
ATOM     34  F   UNL     1       5.970   2.999  15.332  0.00  0.00    +0.000 F 
ATOM     35  C   UNL     1       5.745   5.347  15.304  0.00  0.00    +0.000 A 
ATOM     36  C   UNL     1       5.227   6.511  15.878  0.00  0.00    +0.000 A 
ENDBRANCH  29  30
ENDBRANCH  28  29
ENDBRANCH  23  28
ENDBRANCH  20  23
ENDBRANCH   1  20
TORSDOF 8
ENDMDL
MODEL 3
REMARK VINA RESULT:      -7.7      0.676      1.336
REMARK  Name = 
REMARK  8 active torsions:
REMARK  status: ('A' for Active; 'I' for Inactive)
REMARK    1  A    between atoms: C_2  and  C_3
REMARK    2  A    between atoms: N_7  and  C_8
REMARK    3  A    between atoms: N_7  and  C_17
REMARK    4  A    between atoms: C_8  and  C_9
REMARK    5  A    between atoms: C_9  and  C_10
REMARK    6  A    between atoms: C_17  and  C_18
REMARK    7  A    between atoms: C_28  and  N_29
REMARK    8  A    between atoms: C_32  and  O_33
REMARK                            x       y       z     vdW  Elec       q    Type
REMARK                         _______ _______ _______ _____ _____    ______ ____
ROOT
ATOM      1  C   UNL     1       0.301  10.536  18.373  0.00  0.00    +0.000 A 
ATOM      2  C   UNL     1      -0.814   9.831  17.913  0.00  0.00    +0.000 A 
ATOM      3  C   UNL     1      -2.091  10.383  17.991  0.00  0.00    +0.000 A 
ATOM      4  C   UNL     1      -3.225   9.654  17.583  0.00  0.00    +0.000 A 
ATOM      5  C   UNL     1      -4.495  10.198  17.737  0.00  0.00    +0.000 A 
ATOM      6  C   UNL     1      -4.631  11.466  18.283  0.00  0.00    +0.000 A 
ATOM      7 CL   UNL     1      -6.204  12.130  18.502  0.00  0.00    +0.000 Cl
ATOM      8  C   UNL     1      -3.499  12.200  18.662  0.00  0.00    +0.000 A 
ATOM      9  C   UNL     1      -2.219  11.675  18.523  0.00  0.00    +0.000 A 
ATOM     10  N   UNL     1      -1.140  12.392  18.905  0.00  0.00    +0.000 NA
ATOM     11  C   UNL     1       0.107  11.863  18.817  0.00  0.00    +0.000 A 
ENDROOT
BRANCH  11  12
ATOM     12  N   UNL     1       1.168  12.632  19.262  0.00  0.00    +0.000 N 
ATOM     13  C   UNL     1       2.219  13.020  18.328  0.00  0.00    +0.000 C 
ATOM     14  C   UNL     1       2.499  14.504  18.593  0.00  0.00    +0.000 C 
ATOM     15  C   UNL     1       2.782  14.798  20.074  0.00  0.00    +0.000 C 
ATOM     16  C   UNL     1       1.844  14.086  21.055  0.00  0.00    +0.000 C 
ATOM     17  C   UNL     1       1.602  12.627  20.653  0.00  0.00    +0.000 C 
BRANCH  15  18
ATOM     18  O   UNL     1       4.137  14.477  20.389  0.00  0.00    +0.000 OA
ATOM     19  H   UNL     1       4.424  15.026  21.136  0.00  0.00    +0.000 HD
ENDBRANCH  15  18
ENDBRANCH  11  12
BRANCH   1  20
ATOM     20  C   UNL     1       1.676   9.903  18.426  0.00  0.00    +0.000 C 
BRANCH  20  23
ATOM     21  O   UNL     1       1.685   6.924  20.509  0.00  0.00    +0.000 OA
ATOM     22  C   UNL     1       1.489   8.090  20.153  0.00  0.00    +0.000 C 
ATOM     23  N   UNL     1       1.777   8.502  18.844  0.00  0.00    +0.000 N 
BRANCH  22  24
ATOM     24  C   UNL     1       0.955   9.150  21.160  0.00  0.00    +0.000 C 
ATOM     25  C   UNL     1      -0.439   8.936  21.817  0.00  0.00    +0.000 C 
ATOM     26  C   UNL     1       0.151   9.553  23.103  0.00  0.00    +0.000 C 
ATOM     27  C   UNL     1       1.525   9.071  22.609  0.00  0.00    +0.000 C 
ENDBRANCH  22  24
BRANCH  23  28
ATOM     28  C   UNL     1       2.371   7.567  17.865  0.00  0.00    +0.000 C 
BRANCH  28  29
ATOM     29  C   UNL     1       3.735   6.953  18.231  0.00  0.00    +0.000 C 
BRANCH  29  30
ATOM     30  C   UNL     1       3.667   5.443  18.300  0.00  0.00    +0.000 A 
ATOM     31  C   UNL     1       2.579   4.771  17.716  0.00  0.00    +0.000 A 
ATOM     32  C   UNL     1       2.490   3.381  17.780  0.00  0.00    +0.000 A 
ATOM     33  C   UNL     1       3.485   2.662  18.428  0.00  0.00    +0.000 A 
ATOM     34  F   UNL     1       3.398   1.327  18.492  0.00  0.00    +0.000 F 
ATOM     35  C   UNL     1       4.571   3.307  19.009  0.00  0.00    +0.000 A 
ATOM     36  C   UNL     1       4.664   4.699  18.947  0.00  0.00    +0.000 A 
ENDBRANCH  29  30
ENDBRANCH  28  29
ENDBRANCH  23  28
ENDBRANCH  20  23
ENDBRANCH   1  20
TORSDOF 8
ENDMDL
MODEL 4
REMARK VINA RESULT:      -7.6      1.258      1.498
REMARK  Name = 
REMARK  8 active torsions:
REMARK  status: ('A' for Active; 'I' for Inactive)
REMARK    1  A    between atoms: C_2  and  C_3
REMARK    2  A    between atoms: N_7  and  C_8
REMARK    3  A    between atoms: N_7  and  C_17
REMARK    4  A    between atoms: C_8  and  C_9
REMARK    5  A    between atoms: C_9  and  C_10
REMARK    6  A    between atoms: C_17  and  C_18
REMARK    7  A    between atoms: C_28  and  N_29
REMARK    8  A    between atoms: C_32  and  O_33
REMARK                            x       y       z     vdW  Elec       q    Type
REMARK                         _______ _______ _______ _____ _____    ______ ____
ROOT
ATOM      1  C   UNL     1       0.094  10.822  18.463  0.00  0.00    +0.000 A 
ATOM      2  C   UNL     1      -0.918   9.993  17.972  0.00  0.00    +0.000 A 
ATOM      3  C   UNL     1      -2.253  10.389  18.019  0.00  0.00    +0.000 A 
ATOM      4  C   UNL     1      -3.282   9.534  17.579  0.00  0.00    +0.000 A 
ATOM      5  C   UNL     1      -4.611   9.922  17.703  0.00  0.00    +0.000 A 
ATOM      6  C   UNL     1      -4.911  11.162  18.249  0.00  0.00    +0.000 A 
ATOM      7 CL   UNL     1      -6.556  11.633  18.431  0.00  0.00    +0.000 Cl
ATOM      8  C   UNL     1      -3.884  12.022  18.661  0.00  0.00    +0.000 A 
ATOM      9  C   UNL     1      -2.547  11.653  18.553  0.00  0.00    +0.000 A 
ATOM     10  N   UNL     1      -1.570  12.490  18.966  0.00  0.00    +0.000 NA
ATOM     11  C   UNL     1      -0.268  12.114  18.908  0.00  0.00    +0.000 A 
ENDROOT
BRANCH  11  12
ATOM     12  N   UNL     1       0.683  13.000  19.383  0.00  0.00    +0.000 N 
ATOM     13  C   UNL     1       0.820  13.208  20.820  0.00  0.00    +0.000 C 
ATOM     14  C   UNL     1       2.326  13.192  21.110  0.00  0.00    +0.000 C 
ATOM     15  C   UNL     1       3.112  14.166  20.218  0.00  0.00    +0.000 C 
ATOM     16  C   UNL     1       2.692  14.157  18.744  0.00  0.00    +0.000 C 
ATOM     17  C   UNL     1       1.168  14.120  18.586  0.00  0.00    +0.000 C 
BRANCH  15  18
ATOM     18  O   UNL     1       3.016  15.494  20.736  0.00  0.00    +0.000 OA
ATOM     19  H   UNL     1       3.271  15.483  21.672  0.00  0.00    +0.000 HD
ENDBRANCH  15  18
ENDBRANCH  11  12
BRANCH   1  20
ATOM     20  C   UNL     1       1.532  10.357  18.549  0.00  0.00    +0.000 C 
BRANCH  20  23
ATOM     21  O   UNL     1       1.825   7.266  20.442  0.00  0.00    +0.000 OA
ATOM     22  C   UNL     1       1.503   8.423  20.151  0.00  0.00    +0.000 C 
ATOM     23  N   UNL     1       1.786   8.952  18.884  0.00  0.00    +0.000 N 
BRANCH  22  24
ATOM     24  C   UNL     1       0.811   9.342  21.198  0.00  0.00    +0.000 C 
ATOM     25  C   UNL     1      -0.535   8.888  21.834  0.00  0.00    +0.000 C 
ATOM     26  C   UNL     1      -0.049   9.532  23.149  0.00  0.00    +0.000 C 
ATOM     27  C   UNL     1       1.384   9.289  22.647  0.00  0.00    +0.000 C 
ENDBRANCH  22  24
BRANCH  23  28
ATOM     28  C   UNL     1       2.522   8.161  17.875  0.00  0.00    +0.000 C 
BRANCH  28  29
ATOM     29  C   UNL     1       2.541   6.634  18.069  0.00  0.00    +0.000 C 
BRANCH  29  30
ATOM     30  C   UNL     1       3.947   6.079  17.988  0.00  0.00    +0.000 A 
ATOM     31  C   UNL     1       4.679   6.220  16.797  0.00  0.00    +0.000 A 
ATOM     32  C   UNL     1       5.971   5.704  16.696  0.00  0.00    +0.000 A 
ATOM     33  C   UNL     1       6.529   5.045  17.783  0.00  0.00    +0.000 A 
ATOM     34  F   UNL     1       7.769   4.547  17.686  0.00  0.00    +0.000 F 
ATOM     35  C   UNL     1       5.823   4.896  18.971  0.00  0.00    +0.000 A 
ATOM     36  C   UNL     1       4.529   5.413  19.076  0.00  0.00    +0.000 A 
ENDBRANCH  29  30
ENDBRANCH  28  29
ENDBRANCH  23  28
ENDBRANCH  20  23
ENDBRANCH   1  20
TORSDOF 8
ENDMDL
MODEL 5
REMARK VINA RESULT:      -7.5      0.633      1.086
REMARK  Name = 
REMARK  8 active torsions:
REMARK  status: ('A' for Active; 'I' for Inactive)
REMARK    1  A    between atoms: C_2  and  C_3
REMARK    2  A    between atoms: N_7  and  C_8
REMARK    3  A    between atoms: N_7  and  C_17
REMARK    4  A    between atoms: C_8  and  C_9
REMARK    5  A    between atoms: C_9  and  C_10
REMARK    6  A    between atoms: C_17  and  C_18
REMARK    7  A    between atoms: C_28  and  N_29
REMARK    8  A    between atoms: C_32  and  O_33
REMARK                            x       y       z     vdW  Elec       q    Type
REMARK                         _______ _______ _______ _____ _____    ______ ____
ROOT
ATOM      1  C   UNL     1      -0.245  10.990  18.606  0.00  0.00    +0.000 A 
ATOM      2  C   UNL     1      -1.293  10.227  18.085  0.00  0.00    +0.000 A 
ATOM      3  C   UNL     1      -2.616  10.648  18.213  0.00  0.00    +0.000 A 
ATOM      4  C   UNL     1      -3.680   9.856  17.741  0.00  0.00    +0.000 A 
ATOM      5  C   UNL     1      -4.994  10.262  17.944  0.00  0.00    +0.000 A 
ATOM      6  C   UNL     1      -5.243  11.458  18.601  0.00  0.00    +0.000 A 
ATOM      7 CL   UNL     1      -6.869  11.950  18.879  0.00  0.00    +0.000 Cl
ATOM      8  C   UNL     1      -4.181  12.258  19.045  0.00  0.00    +0.000 A 
ATOM      9  C   UNL     1      -2.859  11.870  18.858  0.00  0.00    +0.000 A 
ATOM     10  N   UNL     1      -1.848  12.648  19.304  0.00  0.00    +0.000 NA
ATOM     11  C   UNL     1      -0.558  12.248  19.168  0.00  0.00    +0.000 A 
ENDROOT
BRANCH  11  12
ATOM     12  N   UNL     1       0.430  13.070  19.680  0.00  0.00    +0.000 N 
ATOM     13  C   UNL     1       1.420  13.653  18.781  0.00  0.00    +0.000 C 
ATOM     14  C   UNL     1       1.557  15.124  19.195  0.00  0.00    +0.000 C 
ATOM     15  C   UNL     1       1.838  15.293  20.696  0.00  0.00    +0.000 C 
ATOM     16  C   UNL     1       0.994  14.395  21.606  0.00  0.00    +0.000 C 
ATOM     17  C   UNL     1       0.889  12.968  21.060  0.00  0.00    +0.000 C 
BRANCH  15  18
ATOM     18  O   UNL     1       3.225  15.079  20.964  0.00  0.00    +0.000 OA
ATOM     19  H   UNL     1       3.732  15.274  20.161  0.00  0.00    +0.000 HD
ENDBRANCH  15  18
ENDBRANCH  11  12
BRANCH   1  20
ATOM     20  C   UNL     1       1.184  10.487  18.602  0.00  0.00    +0.000 C 
BRANCH  20  23
ATOM     21  O   UNL     1       1.639   7.399  20.467  0.00  0.00    +0.000 OA
ATOM     22  C   UNL     1       1.330   8.569  20.217  0.00  0.00    +0.000 C 
ATOM     23  N   UNL     1       1.420   9.073  18.911  0.00  0.00    +0.000 N 
BRANCH  22  24
ATOM     24  C   UNL     1       0.873   9.531  21.350  0.00  0.00    +0.000 C 
ATOM     25  C   UNL     1      -0.605   9.482  21.835  0.00  0.00    +0.000 C 
ATOM     26  C   UNL     1      -0.073   9.756  23.258  0.00  0.00    +0.000 C 
ATOM     27  C   UNL     1       1.245   9.108  22.804  0.00  0.00    +0.000 C 
ENDBRANCH  22  24
BRANCH  23  28
ATOM     28  C   UNL     1       1.934   8.238  17.805  0.00  0.00    +0.000 C 
BRANCH  28  29
ATOM     29  C   UNL     1       3.378   7.722  17.939  0.00  0.00    +0.000 C 
BRANCH  29  30
ATOM     30  C   UNL     1       3.448   6.216  17.807  0.00  0.00    +0.000 A 
ATOM     31  C   UNL     1       4.673   5.604  17.495  0.00  0.00    +0.000 A 
ATOM     32  C   UNL     1       4.757   4.219  17.356  0.00  0.00    +0.000 A 
ATOM     33  C   UNL     1       3.616   3.446  17.527  0.00  0.00    +0.000 A 
ATOM     34  F   UNL     1       3.695   2.116  17.391  0.00  0.00    +0.000 F 
ATOM     35  C   UNL     1       2.395   4.031  17.839  0.00  0.00    +0.000 A 
ATOM     36  C   UNL     1       2.308   5.419  17.980  0.00  0.00    +0.000 A 
ENDBRANCH  29  30
ENDBRANCH  28  29
ENDBRANCH  23  28
ENDBRANCH  20  23
ENDBRANCH   1  20
TORSDOF 8
ENDMDL
MODEL 6
REMARK VINA RESULT:      -7.3      3.084      5.431
REMARK  Name = 
REMARK  8 active torsions:
REMARK  status: ('A' for Active; 'I' for Inactive)
REMARK    1  A    between atoms: C_2  and  C_3
REMARK    2  A    between atoms: N_7  and  C_8
REMARK    3  A    between atoms: N_7  and  C_17
REMARK    4  A    between atoms: C_8  and  C_9
REMARK    5  A    between atoms: C_9  and  C_10
REMARK    6  A    between atoms: C_17  and  C_18
REMARK    7  A    between atoms: C_28  and  N_29
REMARK    8  A    between atoms: C_32  and  O_33
REMARK                            x       y       z     vdW  Elec       q    Type
REMARK                         _______ _______ _______ _____ _____    ______ ____
ROOT
ATOM      1  C   UNL     1      -0.140  11.509  19.787  0.00  0.00    +0.000 A 
ATOM      2  C   UNL     1       1.095  11.958  20.263  0.00  0.00    +0.000 A 
ATOM      3  C   UNL     1       1.661  13.137  19.782  0.00  0.00    +0.000 A 
ATOM      4  C   UNL     1       2.932  13.564  20.215  0.00  0.00    +0.000 A 
ATOM      5  C   UNL     1       3.507  14.705  19.668  0.00  0.00    +0.000 A 
ATOM      6  C   UNL     1       2.813  15.423  18.706  0.00  0.00    +0.000 A 
ATOM      7 CL   UNL     1       3.534  16.820  18.006  0.00  0.00    +0.000 Cl
ATOM      8  C   UNL     1       1.537  15.012  18.298  0.00  0.00    +0.000 A 
ATOM      9  C   UNL     1       0.944  13.871  18.826  0.00  0.00    +0.000 A 
ATOM     10  N   UNL     1      -0.282  13.482  18.411  0.00  0.00    +0.000 NA
ATOM     11  C   UNL     1      -0.843  12.342  18.888  0.00  0.00    +0.000 A 
ENDROOT
BRANCH  11  12
ATOM     12  N   UNL     1      -2.084  11.977  18.395  0.00  0.00    +0.000 N 
ATOM     13  C   UNL     1      -2.197  11.471  17.032  0.00  0.00    +0.000 C 
ATOM     14  C   UNL     1      -3.121  10.249  17.106  0.00  0.00    +0.000 C 
ATOM     15  C   UNL     1      -4.449  10.553  17.817  0.00  0.00    +0.000 C 
ATOM     16  C   UNL     1      -4.311  11.394  19.091  0.00  0.00    +0.000 C 
ATOM     17  C   UNL     1      -3.323  12.550  18.905  0.00  0.00    +0.000 C 
BRANCH  15  18
ATOM     18  O   UNL     1      -5.354  11.194  16.916  0.00  0.00    +0.000 OA
ATOM     19  H   UNL     1      -5.383  10.688  16.089  0.00  0.00    +0.000 HD
ENDBRANCH  15  18
ENDBRANCH  11  12
BRANCH   1  20
ATOM     20  C   UNL     1      -0.707  10.164  20.191  0.00  0.00    +0.000 C 
BRANCH  20  23
ATOM     21  O   UNL     1      -0.556  10.104  23.823  0.00  0.00    +0.000 OA
ATOM     22  C   UNL     1      -0.854  10.465  22.680  0.00  0.00    +0.000 C 
ATOM     23  N   UNL     1      -0.481   9.702  21.564  0.00  0.00    +0.000 N 
BRANCH  22  24
ATOM     24  C   UNL     1      -1.615  11.800  22.441  0.00  0.00    +0.000 C 
ATOM     25  C   UNL     1      -2.890  12.106  23.279  0.00  0.00    +0.000 C 
ATOM     26  C   UNL     1      -2.446  13.584  23.286  0.00  0.00    +0.000 C 
ATOM     27  C   UNL     1      -1.007  13.069  23.112  0.00  0.00    +0.000 C 
ENDBRANCH  22  24
BRANCH  23  28
ATOM     28  C   UNL     1       0.322   8.470  21.716  0.00  0.00    +0.000 C 
BRANCH  28  29
ATOM     29  C   UNL     1       1.752   8.501  21.148  0.00  0.00    +0.000 C 
BRANCH  29  30
ATOM     30  C   UNL     1       1.979   7.388  20.147  0.00  0.00    +0.000 A 
ATOM     31  C   UNL     1       2.308   7.708  18.819  0.00  0.00    +0.000 A 
ATOM     32  C   UNL     1       2.508   6.698  17.878  0.00  0.00    +0.000 A 
ATOM     33  C   UNL     1       2.377   5.371  18.262  0.00  0.00    +0.000 A 
ATOM     34  F   UNL     1       2.566   4.401  17.358  0.00  0.00    +0.000 F 
ATOM     35  C   UNL     1       2.055   5.033  19.572  0.00  0.00    +0.000 A 
ATOM     36  C   UNL     1       1.855   6.042  20.518  0.00  0.00    +0.000 A 
ENDBRANCH  29  30
ENDBRANCH  28  29
ENDBRANCH  23  28
ENDBRANCH  20  23
ENDBRANCH   1  20
TORSDOF 8
ENDMDL
MODEL 7
REMARK VINA RESULT:      -7.2      3.498      5.520
REMARK  Name = 
REMARK  8 active torsions:
REMARK  status: ('A' for Active; 'I' for Inactive)
REMARK    1  A    between atoms: C_2  and  C_3
REMARK    2  A    between atoms: N_7  and  C_8
REMARK    3  A    between atoms: N_7  and  C_17
REMARK    4  A    between atoms: C_8  and  C_9
REMARK    5  A    between atoms: C_9  and  C_10
REMARK    6  A    between atoms: C_17  and  C_18
REMARK    7  A    between atoms: C_28  and  N_29
REMARK    8  A    between atoms: C_32  and  O_33
REMARK                            x       y       z     vdW  Elec       q    Type
REMARK                         _______ _______ _______ _____ _____    ______ ____
ROOT
ATOM      1  C   UNL     1      -2.060  13.187  20.059  0.00  0.00    +0.000 A 
ATOM      2  C   UNL     1      -3.226  12.497  19.717  0.00  0.00    +0.000 A 
ATOM      3  C   UNL     1      -3.331  11.827  18.500  0.00  0.00    +0.000 A 
ATOM      4  C   UNL     1      -4.524  11.179  18.126  0.00  0.00    +0.000 A 
ATOM      5  C   UNL     1      -4.628  10.580  16.876  0.00  0.00    +0.000 A 
ATOM      6  C   UNL     1      -3.544  10.615  16.011  0.00  0.00    +0.000 A 
ATOM      7 CL   UNL     1      -3.680   9.898  14.452  0.00  0.00    +0.000 Cl
ATOM      8  C   UNL     1      -2.349  11.236  16.397  0.00  0.00    +0.000 A 
ATOM      9  C   UNL     1      -2.223  11.847  17.640  0.00  0.00    +0.000 A 
ATOM     10  N   UNL     1      -1.066  12.452  17.991  0.00  0.00    +0.000 NA
ATOM     11  C   UNL     1      -0.956  13.093  19.181  0.00  0.00    +0.000 A 
ENDROOT
BRANCH  11  12
ATOM     12  N   UNL     1       0.241  13.727  19.466  0.00  0.00    +0.000 N 
ATOM     13  C   UNL     1       0.549  15.003  18.830  0.00  0.00    +0.000 C 
ATOM     14  C   UNL     1       1.108  15.906  19.936  0.00  0.00    +0.000 C 
ATOM     15  C   UNL     1       2.262  15.251  20.710  0.00  0.00    +0.000 C 
ATOM     16  C   UNL     1       2.032  13.779  21.070  0.00  0.00    +0.000 C 
ATOM     17  C   UNL     1       1.424  12.996  19.902  0.00  0.00    +0.000 C 
BRANCH  15  18
ATOM     18  O   UNL     1       3.481  15.379  19.977  0.00  0.00    +0.000 OA
ATOM     19  H   UNL     1       3.467  14.756  19.234  0.00  0.00    +0.000 HD
ENDBRANCH  15  18
ENDBRANCH  11  12
BRANCH   1  20
ATOM     20  C   UNL     1      -1.974  14.035  21.311  0.00  0.00    +0.000 C 
BRANCH  20  23
ATOM     21  O   UNL     1      -3.574  13.238  24.477  0.00  0.00    +0.000 OA
ATOM     22  C   UNL     1      -3.408  13.708  23.346  0.00  0.00    +0.000 C 
ATOM     23  N   UNL     1      -2.263  13.397  22.599  0.00  0.00    +0.000 N 
BRANCH  22  24
ATOM     24  C   UNL     1      -4.445  14.692  22.734  0.00  0.00    +0.000 C 
ATOM     25  C   UNL     1      -5.757  14.126  22.118  0.00  0.00    +0.000 C 
ATOM     26  C   UNL     1      -6.474  15.374  22.673  0.00  0.00    +0.000 C 
ATOM     27  C   UNL     1      -5.373  15.432  23.745  0.00  0.00    +0.000 C 
ENDBRANCH  22  24
BRANCH  23  28
ATOM     28  C   UNL     1      -1.196  12.540  23.159  0.00  0.00    +0.000 C 
BRANCH  28  29
ATOM     29  C   UNL     1      -1.488  11.031  23.236  0.00  0.00    +0.000 C 
BRANCH  29  30
ATOM     30  C   UNL     1      -0.546  10.235  22.358  0.00  0.00    +0.000 A 
ATOM     31  C   UNL     1       0.490   9.492  22.949  0.00  0.00    +0.000 A 
ATOM     32  C   UNL     1       1.377   8.763  22.158  0.00  0.00    +0.000 A 
ATOM     33  C   UNL     1       1.231   8.778  20.777  0.00  0.00    +0.000 A 
ATOM     34  F   UNL     1       2.085   8.080  20.017  0.00  0.00    +0.000 F 
ATOM     35  C   UNL     1       0.212   9.504  20.172  0.00  0.00    +0.000 A 
ATOM     36  C   UNL     1      -0.679  10.236  20.962  0.00  0.00    +0.000 A 
ENDBRANCH  29  30
ENDBRANCH  28  29
ENDBRANCH  23  28
ENDBRANCH  20  23
ENDBRANCH   1  20
TORSDOF 8
ENDMDL
MODEL 8
REMARK VINA RESULT:      -7.2      2.969      5.707
REMARK  Name = 
REMARK  8 active torsions:
REMARK  status: ('A' for Active; 'I' for Inactive)
REMARK    1  A    between atoms: C_2  and  C_3
REMARK    2  A    between atoms: N_7  and  C_8
REMARK    3  A    between atoms: N_7  and  C_17
REMARK    4  A    between atoms: C_8  and  C_9
REMARK    5  A    between atoms: C_9  and  C_10
REMARK    6  A    between atoms: C_17  and  C_18
REMARK    7  A    between atoms: C_28  and  N_29
REMARK    8  A    between atoms: C_32  and  O_33
REMARK                            x       y       z     vdW  Elec       q    Type
REMARK                         _______ _______ _______ _____ _____    ______ ____
ROOT
ATOM      1  C   UNL     1      -2.293  12.423  19.948  0.00  0.00    +0.000 A 
ATOM      2  C   UNL     1      -2.429  13.062  21.184  0.00  0.00    +0.000 A 
ATOM      3  C   UNL     1      -3.688  13.289  21.736  0.00  0.00    +0.000 A 
ATOM      4  C   UNL     1      -3.834  13.984  22.953  0.00  0.00    +0.000 A 
ATOM      5  C   UNL     1      -5.102  14.262  23.448  0.00  0.00    +0.000 A 
ATOM      6  C   UNL     1      -6.218  13.836  22.742  0.00  0.00    +0.000 A 
ATOM      7 CL   UNL     1      -7.790  14.203  23.338  0.00  0.00    +0.000 Cl
ATOM      8  C   UNL     1      -6.069  13.121  21.546  0.00  0.00    +0.000 A 
ATOM      9  C   UNL     1      -4.811  12.836  21.028  0.00  0.00    +0.000 A 
ATOM     10  N   UNL     1      -4.686  12.155  19.867  0.00  0.00    +0.000 NA
ATOM     11  C   UNL     1      -3.462  11.919  19.333  0.00  0.00    +0.000 A 
ENDROOT
BRANCH  11  12
ATOM     12  N   UNL     1      -3.403  11.252  18.122  0.00  0.00    +0.000 N 
ATOM     13  C   UNL     1      -4.334  11.605  17.057  0.00  0.00    +0.000 C 
ATOM     14  C   UNL     1      -3.503  11.681  15.771  0.00  0.00    +0.000 C 
ATOM     15  C   UNL     1      -2.666  10.416  15.531  0.00  0.00    +0.000 C 
ATOM     16  C   UNL     1      -1.960   9.873  16.779  0.00  0.00    +0.000 C 
ATOM     17  C   UNL     1      -2.877   9.897  18.006  0.00  0.00    +0.000 C 
BRANCH  15  18
ATOM     18  O   UNL     1      -3.478   9.391  14.956  0.00  0.00    +0.000 OA
ATOM     19  H   UNL     1      -3.581   8.674  15.601  0.00  0.00    +0.000 HD
ENDBRANCH  15  18
ENDBRANCH  11  12
BRANCH   1  20
ATOM     20  C   UNL     1      -0.949  12.290  19.265  0.00  0.00    +0.000 C 
BRANCH  20  23
ATOM     21  O   UNL     1       2.221  13.554  20.520  0.00  0.00    +0.000 OA
ATOM     22  C   UNL     1       1.156  13.506  19.895  0.00  0.00    +0.000 C 
ATOM     23  N   UNL     1       0.260  12.443  20.080  0.00  0.00    +0.000 N 
BRANCH  22  24
ATOM     24  C   UNL     1       0.797  14.601  18.851  0.00  0.00    +0.000 C 
ATOM     25  C   UNL     1      -0.214  15.718  19.241  0.00  0.00    +0.000 C 
ATOM     26  C   UNL     1       0.642  16.689  18.402  0.00  0.00    +0.000 C 
ATOM     27  C   UNL     1       1.831  15.755  18.680  0.00  0.00    +0.000 C 
ENDBRANCH  22  24
BRANCH  23  28
ATOM     28  C   UNL     1       0.583  11.323  20.990  0.00  0.00    +0.000 C 
BRANCH  28  29
ATOM     29  C   UNL     1      -0.021   9.951  20.642  0.00  0.00    +0.000 C 
BRANCH  29  30
ATOM     30  C   UNL     1       0.938   9.109  19.828  0.00  0.00    +0.000 A 
ATOM     31  C   UNL     1       1.198   9.453  18.491  0.00  0.00    +0.000 A 
ATOM     32  C   UNL     1       2.069   8.683  17.719  0.00  0.00    +0.000 A 
ATOM     33  C   UNL     1       2.676   7.570  18.282  0.00  0.00    +0.000 A 
ATOM     34  F   UNL     1       3.510   6.828  17.541  0.00  0.00    +0.000 F 
ATOM     35  C   UNL     1       2.435   7.213  19.604  0.00  0.00    +0.000 A 
ATOM     36  C   UNL     1       1.564   7.983  20.380  0.00  0.00    +0.000 A 
ENDBRANCH  29  30
ENDBRANCH  28  29
ENDBRANCH  23  28
ENDBRANCH  20  23
ENDBRANCH   1  20
TORSDOF 8
ENDMDL
MODEL 9
REMARK VINA RESULT:      -7.2      2.903      4.799
REMARK  Name = 
REMARK  8 active torsions:
REMARK  status: ('A' for Active; 'I' for Inactive)
REMARK    1  A    between atoms: C_2  and  C_3
REMARK    2  A    between atoms: N_7  and  C_8
REMARK    3  A    between atoms: N_7  and  C_17
REMARK    4  A    between atoms: C_8  and  C_9
REMARK    5  A    between atoms: C_9  and  C_10
REMARK    6  A    between atoms: C_17  and  C_18
REMARK    7  A    between atoms: C_28  and  N_29
REMARK    8  A    between atoms: C_32  and  O_33
REMARK                            x       y       z     vdW  Elec       q    Type
REMARK                         _______ _______ _______ _____ _____    ______ ____
ROOT
ATOM      1  C   UNL     1      -0.661  13.527  19.816  0.00  0.00    +0.000 A 
ATOM      2  C   UNL     1      -1.833  13.298  20.541  0.00  0.00    +0.000 A 
ATOM      3  C   UNL     1      -1.982  13.794  21.835  0.00  0.00    +0.000 A 
ATOM      4  C   UNL     1      -3.137  13.517  22.592  0.00  0.00    +0.000 A 
ATOM      5  C   UNL     1      -3.232  13.961  23.905  0.00  0.00    +0.000 A 
ATOM      6  C   UNL     1      -2.188  14.689  24.455  0.00  0.00    +0.000 A 
ATOM      7 CL   UNL     1      -2.290  15.217  26.090  0.00  0.00    +0.000 Cl
ATOM      8  C   UNL     1      -1.051  14.987  23.691  0.00  0.00    +0.000 A 
ATOM      9  C   UNL     1      -0.931  14.548  22.377  0.00  0.00    +0.000 A 
ATOM     10  N   UNL     1       0.177  14.834  21.658  0.00  0.00    +0.000 NA
ATOM     11  C   UNL     1       0.320  14.366  20.393  0.00  0.00    +0.000 A 
ENDROOT
BRANCH  11  12
ATOM     12  N   UNL     1       1.494  14.660  19.723  0.00  0.00    +0.000 N 
ATOM     13  C   UNL     1       2.608  13.719  19.775  0.00  0.00    +0.000 C 
ATOM     14  C   UNL     1       3.142  13.612  18.341  0.00  0.00    +0.000 C 
ATOM     15  C   UNL     1       3.455  14.983  17.721  0.00  0.00    +0.000 C 
ATOM     16  C   UNL     1       2.395  16.057  17.985  0.00  0.00    +0.000 C 
ATOM     17  C   UNL     1       1.904  16.029  19.437  0.00  0.00    +0.000 C 
BRANCH  15  18
ATOM     18  O   UNL     1       4.729  15.446  18.171  0.00  0.00    +0.000 OA
ATOM     19  H   UNL     1       4.597  16.216  18.746  0.00  0.00    +0.000 HD
ENDBRANCH  15  18
ENDBRANCH  11  12
BRANCH   1  20
ATOM     20  C   UNL     1      -0.421  12.883  18.466  0.00  0.00    +0.000 C 
BRANCH  20  23
ATOM     21  O   UNL     1      -1.630   9.500  17.911  0.00  0.00    +0.000 OA
ATOM     22  C   UNL     1      -1.575  10.733  17.873  0.00  0.00    +0.000 C 
ATOM     23  N   UNL     1      -0.463  11.420  18.381  0.00  0.00    +0.000 N 
BRANCH  22  24
ATOM     24  C   UNL     1      -2.758  11.564  17.299  0.00  0.00    +0.000 C 
ATOM     25  C   UNL     1      -3.635  10.954  16.167  0.00  0.00    +0.000 C 
ATOM     26  C   UNL     1      -4.844  11.651  16.824  0.00  0.00    +0.000 C 
ATOM     27  C   UNL     1      -4.065  11.580  18.148  0.00  0.00    +0.000 C 
ENDBRANCH  22  24
BRANCH  23  28
ATOM     28  C   UNL     1       0.654  10.694  19.022  0.00  0.00    +0.000 C 
BRANCH  28  29
ATOM     29  C   UNL     1       1.700  10.064  18.085  0.00  0.00    +0.000 C 
BRANCH  29  30
ATOM     30  C   UNL     1       2.085   8.671  18.535  0.00  0.00    +0.000 A 
ATOM     31  C   UNL     1       2.830   7.846  17.675  0.00  0.00    +0.000 A 
ATOM     32  C   UNL     1       3.184   6.555  18.065  0.00  0.00    +0.000 A 
ATOM     33  C   UNL     1       2.792   6.087  19.312  0.00  0.00    +0.000 A 
ATOM     34  F   UNL     1       3.130   4.846  19.686  0.00  0.00    +0.000 F 
ATOM     35  C   UNL     1       2.057   6.887  20.179  0.00  0.00    +0.000 A 
ATOM     36  C   UNL     1       1.701   8.182  19.791  0.00  0.00    +0.000 A 
ENDBRANCH  29  30
ENDBRANCH  28  29
ENDBRANCH  23  28
ENDBRANCH  20  23
ENDBRANCH   1  20
TORSDOF 8
ENDMDL
