MODEL 1
REMARK VINA RESULT:      -7.4      0.000      0.000
REMARK  Name = 
REMARK  2 active torsions:
REMARK  status: ('A' for Active; 'I' for Inactive)
REMARK    1  A    between atoms: C_6  and  N_7
REMARK    2  A    between atoms: N_7  and  C_8
REMARK                            x       y       z     vdW  Elec       q    Type
REMARK                         _______ _______ _______ _____ _____    ______ ____
ROOT
ATOM      1  N   UNL     1       4.657   3.215  18.075  0.00  0.00    +0.000 N 
ATOM      2  H   UNL     1       5.069   2.291  17.991  0.00  0.00    +0.000 HD
ENDROOT
BRANCH   1   3
ATOM      3  C   UNL     1       5.250   4.154  17.208  0.00  0.00    +0.000 A 
ATOM      4  C   UNL     1       4.964   4.153  15.840  0.00  0.00    +0.000 A 
ATOM      5  C   UNL     1       5.592   5.050  15.001  0.00  0.00    +0.000 A 
ATOM      6  N   UNL     1       6.486   5.973  15.387  0.00  0.00    +0.000 NA
ATOM      7  C   UNL     1       6.776   5.988  16.715  0.00  0.00    +0.000 A 
ATOM      8  C   UNL     1       7.691   6.893  17.326  0.00  0.00    +0.000 A 
ATOM      9  C   UNL     1       7.798   6.698  18.683  0.00  0.00    +0.000 A 
ATOM     10  S   UNL     1       6.799   5.421  19.225  0.00  0.00    +0.000 S 
ATOM     11  C   UNL     1       6.201   5.107  17.634  0.00  0.00    +0.000 A 
ENDBRANCH   1   3
BRANCH   1  17
ATOM     12  F   UNL     1       0.039   1.950  18.555  0.00  0.00    +0.000 F 
ATOM     13  C   UNL     1       1.104   2.627  19.007  0.00  0.00    +0.000 A 
ATOM     14  C   UNL     1       1.000   3.344  20.189  0.00  0.00    +0.000 A 
ATOM     15  C   UNL     1       2.099   4.062  20.641  0.00  0.00    +0.000 A 
ATOM     16  C   UNL     1       3.313   4.022  19.924  0.00  0.00    +0.000 A 
ATOM     17  C   UNL     1       3.422   3.277  18.747  0.00  0.00    +0.000 A 
ATOM     18  C   UNL     1       2.292   2.590  18.285  0.00  0.00    +0.000 A 
ENDBRANCH   1  17
TORSDOF 2
ENDMDL
MODEL 2
REMARK VINA RESULT:      -7.3      1.071      1.567
REMARK  Name = 
REMARK  2 active torsions:
REMARK  status: ('A' for Active; 'I' for Inactive)
REMARK    1  A    between atoms: C_6  and  N_7
REMARK    2  A    between atoms: N_7  and  C_8
REMARK                            x       y       z     vdW  Elec       q    Type
REMARK                         _______ _______ _______ _____ _____    ______ ____
ROOT
ATOM      1  N   UNL     1       4.650   3.118  17.970  0.00  0.00    +0.000 N 
ATOM      2  H   UNL     1       5.082   2.204  17.873  0.00  0.00    +0.000 HD
ENDROOT
BRANCH   1   3
ATOM      3  C   UNL     1       5.239   4.088  17.133  0.00  0.00    +0.000 A 
ATOM      4  C   UNL     1       4.963   4.121  15.764  0.00  0.00    +0.000 A 
ATOM      5  C   UNL     1       5.588   5.047  14.955  0.00  0.00    +0.000 A 
ATOM      6  N   UNL     1       6.469   5.969  15.373  0.00  0.00    +0.000 NA
ATOM      7  C   UNL     1       6.748   5.951  16.703  0.00  0.00    +0.000 A 
ATOM      8  C   UNL     1       7.648   6.849  17.346  0.00  0.00    +0.000 A 
ATOM      9  C   UNL     1       7.746   6.619  18.698  0.00  0.00    +0.000 A 
ATOM     10  S   UNL     1       6.757   5.315  19.196  0.00  0.00    +0.000 S 
ATOM     11  C   UNL     1       6.176   5.039  17.593  0.00  0.00    +0.000 A 
ENDBRANCH   1   3
BRANCH   1  17
ATOM     12  F   UNL     1       1.567   5.036  21.127  0.00  0.00    +0.000 F 
ATOM     13  C   UNL     1       1.838   4.114  20.192  0.00  0.00    +0.000 A 
ATOM     14  C   UNL     1       0.853   3.215  19.820  0.00  0.00    +0.000 A 
ATOM     15  C   UNL     1       1.146   2.248  18.867  0.00  0.00    +0.000 A 
ATOM     16  C   UNL     1       2.420   2.217  18.262  0.00  0.00    +0.000 A 
ATOM     17  C   UNL     1       3.403   3.141  18.621  0.00  0.00    +0.000 A 
ATOM     18  C   UNL     1       3.101   4.085  19.612  0.00  0.00    +0.000 A 
ENDBRANCH   1  17
TORSDOF 2
ENDMDL
MODEL 3
REMARK VINA RESULT:      -7.3      1.772      2.691
REMARK  Name = 
REMARK  2 active torsions:
REMARK  status: ('A' for Active; 'I' for Inactive)
REMARK    1  A    between atoms: C_6  and  N_7
REMARK    2  A    between atoms: N_7  and  C_8
REMARK                            x       y       z     vdW  Elec       q    Type
REMARK                         _______ _______ _______ _____ _____    ______ ____
ROOT
ATOM      1  N   UNL     1       5.335   3.589  19.005  0.00  0.00    +0.000 N 
ATOM      2  H   UNL     1       5.802   2.691  19.093  0.00  0.00    +0.000 HD
ENDROOT
BRANCH   1   3
ATOM      3  C   UNL     1       6.084   4.518  18.255  0.00  0.00    +0.000 A 
ATOM      4  C   UNL     1       6.750   5.576  18.878  0.00  0.00    +0.000 A 
ATOM      5  C   UNL     1       7.438   6.502  18.121  0.00  0.00    +0.000 A 
ATOM      6  N   UNL     1       7.545   6.480  16.783  0.00  0.00    +0.000 NA
ATOM      7  C   UNL     1       6.903   5.456  16.161  0.00  0.00    +0.000 A 
ATOM      8  C   UNL     1       6.900   5.250  14.752  0.00  0.00    +0.000 A 
ATOM      9  C   UNL     1       6.180   4.137  14.384  0.00  0.00    +0.000 A 
ATOM     10  S   UNL     1       5.500   3.341  15.736  0.00  0.00    +0.000 S 
ATOM     11  C   UNL     1       6.169   4.484  16.846  0.00  0.00    +0.000 A 
ENDBRANCH   1   3
BRANCH   1  17
ATOM     12  F   UNL     1       1.639   2.247  21.778  0.00  0.00    +0.000 F 
ATOM     13  C   UNL     1       2.105   2.950  20.736  0.00  0.00    +0.000 A 
ATOM     14  C   UNL     1       1.235   3.751  20.014  0.00  0.00    +0.000 A 
ATOM     15  C   UNL     1       1.719   4.459  18.922  0.00  0.00    +0.000 A 
ATOM     16  C   UNL     1       3.087   4.391  18.586  0.00  0.00    +0.000 A 
ATOM     17  C   UNL     1       3.966   3.603  19.332  0.00  0.00    +0.000 A 
ATOM     18  C   UNL     1       3.453   2.865  20.406  0.00  0.00    +0.000 A 
ENDBRANCH   1  17
TORSDOF 2
ENDMDL
MODEL 4
REMARK VINA RESULT:      -7.3      1.770      2.832
REMARK  Name = 
REMARK  2 active torsions:
REMARK  status: ('A' for Active; 'I' for Inactive)
REMARK    1  A    between atoms: C_6  and  N_7
REMARK    2  A    between atoms: N_7  and  C_8
REMARK                            x       y       z     vdW  Elec       q    Type
REMARK                         _______ _______ _______ _____ _____    ______ ____
ROOT
ATOM      1  N   UNL     1       5.332   3.597  19.004  0.00  0.00    +0.000 N 
ATOM      2  H   UNL     1       5.840   2.734  19.173  0.00  0.00    +0.000 HD
ENDROOT
BRANCH   1   3
ATOM      3  C   UNL     1       6.075   4.524  18.245  0.00  0.00    +0.000 A 
ATOM      4  C   UNL     1       6.758   5.576  18.860  0.00  0.00    +0.000 A 
ATOM      5  C   UNL     1       7.440   6.500  18.095  0.00  0.00    +0.000 A 
ATOM      6  N   UNL     1       7.524   6.482  16.756  0.00  0.00    +0.000 NA
ATOM      7  C   UNL     1       6.866   5.463  16.141  0.00  0.00    +0.000 A 
ATOM      8  C   UNL     1       6.838   5.262  14.732  0.00  0.00    +0.000 A 
ATOM      9  C   UNL     1       6.104   4.156  14.372  0.00  0.00    +0.000 A 
ATOM     10  S   UNL     1       5.442   3.359  15.732  0.00  0.00    +0.000 S 
ATOM     11  C   UNL     1       6.137   4.494  16.834  0.00  0.00    +0.000 A 
ENDBRANCH   1   3
BRANCH   1  17
ATOM     12  F   UNL     1       1.279   5.544  20.718  0.00  0.00    +0.000 F 
ATOM     13  C   UNL     1       1.900   4.535  20.091  0.00  0.00    +0.000 A 
ATOM     14  C   UNL     1       1.155   3.464  19.623  0.00  0.00    +0.000 A 
ATOM     15  C   UNL     1       1.806   2.412  18.995  0.00  0.00    +0.000 A 
ATOM     16  C   UNL     1       3.202   2.460  18.801  0.00  0.00    +0.000 A 
ATOM     17  C   UNL     1       3.947   3.552  19.251  0.00  0.00    +0.000 A 
ATOM     18  C   UNL     1       3.279   4.587  19.917  0.00  0.00    +0.000 A 
ENDBRANCH   1  17
TORSDOF 2
ENDMDL
MODEL 5
REMARK VINA RESULT:      -7.3      1.197      1.416
REMARK  Name = 
REMARK  2 active torsions:
REMARK  status: ('A' for Active; 'I' for Inactive)
REMARK    1  A    between atoms: C_6  and  N_7
REMARK    2  A    between atoms: N_7  and  C_8
REMARK                            x       y       z     vdW  Elec       q    Type
REMARK                         _______ _______ _______ _____ _____    ______ ____
ROOT
ATOM      1  N   UNL     1       4.773   2.879  17.286  0.00  0.00    +0.000 N 
ATOM      2  H   UNL     1       5.014   1.929  17.021  0.00  0.00    +0.000 HD
ENDROOT
BRANCH   1   3
ATOM      3  C   UNL     1       5.560   3.842  16.623  0.00  0.00    +0.000 A 
ATOM      4  C   UNL     1       5.711   3.817  15.234  0.00  0.00    +0.000 A 
ATOM      5  C   UNL     1       6.525   4.739  14.609  0.00  0.00    +0.000 A 
ATOM      6  N   UNL     1       7.211   5.710  15.231  0.00  0.00    +0.000 NA
ATOM      7  C   UNL     1       7.075   5.750  16.583  0.00  0.00    +0.000 A 
ATOM      8  C   UNL     1       7.712   6.705  17.426  0.00  0.00    +0.000 A 
ATOM      9  C   UNL     1       7.403   6.526  18.754  0.00  0.00    +0.000 A 
ATOM     10  S   UNL     1       6.348   5.201  18.990  0.00  0.00    +0.000 S 
ATOM     11  C   UNL     1       6.287   4.846  17.300  0.00  0.00    +0.000 A 
ENDBRANCH   1   3
BRANCH   1  17
ATOM     12  F   UNL     1       1.882   2.106  21.053  0.00  0.00    +0.000 F 
ATOM     13  C   UNL     1       2.092   2.671  19.856  0.00  0.00    +0.000 A 
ATOM     14  C   UNL     1       1.108   3.474  19.302  0.00  0.00    +0.000 A 
ATOM     15  C   UNL     1       1.322   4.038  18.052  0.00  0.00    +0.000 A 
ATOM     16  C   UNL     1       2.545   3.826  17.381  0.00  0.00    +0.000 A 
ATOM     17  C   UNL     1       3.545   3.037  17.954  0.00  0.00    +0.000 A 
ATOM     18  C   UNL     1       3.297   2.444  19.199  0.00  0.00    +0.000 A 
ENDBRANCH   1  17
TORSDOF 2
ENDMDL
MODEL 6
REMARK VINA RESULT:      -7.2      1.685      2.581
REMARK  Name = 
REMARK  2 active torsions:
REMARK  status: ('A' for Active; 'I' for Inactive)
REMARK    1  A    between atoms: C_6  and  N_7
REMARK    2  A    between atoms: N_7  and  C_8
REMARK                            x       y       z     vdW  Elec       q    Type
REMARK                         _______ _______ _______ _____ _____    ______ ____
ROOT
ATOM      1  N   UNL     1       5.360   3.635  18.906  0.00  0.00    +0.000 N 
ATOM      2  H   UNL     1       5.889   2.802  19.149  0.00  0.00    +0.000 HD
ENDROOT
BRANCH   1   3
ATOM      3  C   UNL     1       6.122   4.563  18.168  0.00  0.00    +0.000 A 
ATOM      4  C   UNL     1       6.755   5.638  18.797  0.00  0.00    +0.000 A 
ATOM      5  C   UNL     1       7.455   6.562  18.050  0.00  0.00    +0.000 A 
ATOM      6  N   UNL     1       7.604   6.525  16.717  0.00  0.00    +0.000 NA
ATOM      7  C   UNL     1       6.995   5.485  16.089  0.00  0.00    +0.000 A 
ATOM      8  C   UNL     1       7.039   5.261  14.683  0.00  0.00    +0.000 A 
ATOM      9  C   UNL     1       6.344   4.135  14.307  0.00  0.00    +0.000 A 
ATOM     10  S   UNL     1       5.632   3.348  15.647  0.00  0.00    +0.000 S 
ATOM     11  C   UNL     1       6.252   4.513  16.762  0.00  0.00    +0.000 A 
ENDBRANCH   1   3
BRANCH   1  17
ATOM     12  F   UNL     1       0.886   4.520  17.373  0.00  0.00    +0.000 F 
ATOM     13  C   UNL     1       1.710   3.961  18.271  0.00  0.00    +0.000 A 
ATOM     14  C   UNL     1       1.176   3.222  19.314  0.00  0.00    +0.000 A 
ATOM     15  C   UNL     1       2.032   2.664  20.254  0.00  0.00    +0.000 A 
ATOM     16  C   UNL     1       3.427   2.815  20.115  0.00  0.00    +0.000 A 
ATOM     17  C   UNL     1       3.964   3.538  19.047  0.00  0.00    +0.000 A 
ATOM     18  C   UNL     1       3.083   4.127  18.131  0.00  0.00    +0.000 A 
ENDBRANCH   1  17
TORSDOF 2
ENDMDL
MODEL 7
REMARK VINA RESULT:      -7.2      1.415      2.406
REMARK  Name = 
REMARK  2 active torsions:
REMARK  status: ('A' for Active; 'I' for Inactive)
REMARK    1  A    between atoms: C_6  and  N_7
REMARK    2  A    between atoms: N_7  and  C_8
REMARK                            x       y       z     vdW  Elec       q    Type
REMARK                         _______ _______ _______ _____ _____    ______ ____
ROOT
ATOM      1  N   UNL     1       5.219   3.735  19.175  0.00  0.00    +0.000 N 
ATOM      2  H   UNL     1       5.687   2.863  19.406  0.00  0.00    +0.000 HD
ENDROOT
BRANCH   1   3
ATOM      3  C   UNL     1       6.020   4.587  18.388  0.00  0.00    +0.000 A 
ATOM      4  C   UNL     1       6.777   5.606  18.972  0.00  0.00    +0.000 A 
ATOM      5  C   UNL     1       7.516   6.460  18.180  0.00  0.00    +0.000 A 
ATOM      6  N   UNL     1       7.591   6.401  16.841  0.00  0.00    +0.000 NA
ATOM      7  C   UNL     1       6.860   5.414  16.257  0.00  0.00    +0.000 A 
ATOM      8  C   UNL     1       6.810   5.178  14.853  0.00  0.00    +0.000 A 
ATOM      9  C   UNL     1       6.000   4.116  14.526  0.00  0.00    +0.000 A 
ATOM     10  S   UNL     1       5.293   3.404  15.910  0.00  0.00    +0.000 S 
ATOM     11  C   UNL     1       6.071   4.516  16.979  0.00  0.00    +0.000 A 
ENDBRANCH   1   3
BRANCH   1  17
ATOM     12  F   UNL     1       0.841   1.802  18.681  0.00  0.00    +0.000 F 
ATOM     13  C   UNL     1       1.624   2.780  19.157  0.00  0.00    +0.000 A 
ATOM     14  C   UNL     1       1.061   3.791  19.919  0.00  0.00    +0.000 A 
ATOM     15  C   UNL     1       1.873   4.813  20.391  0.00  0.00    +0.000 A 
ATOM     16  C   UNL     1       3.259   4.792  20.130  0.00  0.00    +0.000 A 
ATOM     17  C   UNL     1       3.828   3.758  19.383  0.00  0.00    +0.000 A 
ATOM     18  C   UNL     1       2.987   2.755  18.882  0.00  0.00    +0.000 A 
ENDBRANCH   1  17
TORSDOF 2
ENDMDL
MODEL 8
REMARK VINA RESULT:      -7.1      1.610      1.756
REMARK  Name = 
REMARK  2 active torsions:
REMARK  status: ('A' for Active; 'I' for Inactive)
REMARK    1  A    between atoms: C_6  and  N_7
REMARK    2  A    between atoms: N_7  and  C_8
REMARK                            x       y       z     vdW  Elec       q    Type
REMARK                         _______ _______ _______ _____ _____    ______ ____
ROOT
ATOM      1  N   UNL     1       5.088   3.432  18.846  0.00  0.00    +0.000 N 
ATOM      2  H   UNL     1       5.513   2.515  18.749  0.00  0.00    +0.000 HD
ENDROOT
BRANCH   1   3
ATOM      3  C   UNL     1       5.448   4.310  17.803  0.00  0.00    +0.000 A 
ATOM      4  C   UNL     1       4.908   4.167  16.523  0.00  0.00    +0.000 A 
ATOM      5  C   UNL     1       5.311   5.006  15.505  0.00  0.00    +0.000 A 
ATOM      6  N   UNL     1       6.203   6.000  15.630  0.00  0.00    +0.000 NA
ATOM      7  C   UNL     1       6.738   6.154  16.871  0.00  0.00    +0.000 A 
ATOM      8  C   UNL     1       7.695   7.151  17.214  0.00  0.00    +0.000 A 
ATOM      9  C   UNL     1       8.068   7.092  18.536  0.00  0.00    +0.000 A 
ATOM     10  S   UNL     1       7.270   5.828  19.367  0.00  0.00    +0.000 S 
ATOM     11  C   UNL     1       6.402   5.339  17.955  0.00  0.00    +0.000 A 
ENDBRANCH   1   3
BRANCH   1  17
ATOM     12  F   UNL     1       1.438   5.834  20.862  0.00  0.00    +0.000 F 
ATOM     13  C   UNL     1       2.166   4.713  20.759  0.00  0.00    +0.000 A 
ATOM     14  C   UNL     1       1.815   3.604  21.513  0.00  0.00    +0.000 A 
ATOM     15  C   UNL     1       2.586   2.453  21.419  0.00  0.00    +0.000 A 
ATOM     16  C   UNL     1       3.682   2.408  20.534  0.00  0.00    +0.000 A 
ATOM     17  C   UNL     1       4.017   3.518  19.756  0.00  0.00    +0.000 A 
ATOM     18  C   UNL     1       3.253   4.684  19.892  0.00  0.00    +0.000 A 
ENDBRANCH   1  17
TORSDOF 2
ENDMDL
MODEL 9
REMARK VINA RESULT:      -7.1      2.880      5.841
REMARK  Name = 
REMARK  2 active torsions:
REMARK  status: ('A' for Active; 'I' for Inactive)
REMARK    1  A    between atoms: C_6  and  N_7
REMARK    2  A    between atoms: N_7  and  C_8
REMARK                            x       y       z     vdW  Elec       q    Type
REMARK                         _______ _______ _______ _____ _____    ______ ____
ROOT
ATOM      1  N   UNL     1       4.550   5.157  17.236  0.00  0.00    +0.000 N 
ATOM      2  H   UNL     1       4.360   5.239  16.242  0.00  0.00    +0.000 HD
ENDROOT
BRANCH   1   3
ATOM      3  C   UNL     1       3.777   4.154  17.855  0.00  0.00    +0.000 A 
ATOM      4  C   UNL     1       3.845   2.826  17.428  0.00  0.00    +0.000 A 
ATOM      5  C   UNL     1       3.044   1.868  18.015  0.00  0.00    +0.000 A 
ATOM      6  N   UNL     1       2.173   2.095  19.010  0.00  0.00    +0.000 NA
ATOM      7  C   UNL     1       2.095   3.383  19.439  0.00  0.00    +0.000 A 
ATOM      8  C   UNL     1       1.239   3.828  20.487  0.00  0.00    +0.000 A 
ATOM      9  C   UNL     1       1.359   5.178  20.726  0.00  0.00    +0.000 A 
ATOM     10  S   UNL     1       2.498   5.912  19.684  0.00  0.00    +0.000 S 
ATOM     11  C   UNL     1       2.855   4.419  18.891  0.00  0.00    +0.000 A 
ENDBRANCH   1   3
BRANCH   1  17
ATOM     12  F   UNL     1       8.386   5.361  20.134  0.00  0.00    +0.000 F 
ATOM     13  C   UNL     1       7.669   5.883  19.129  0.00  0.00    +0.000 A 
ATOM     14  C   UNL     1       8.129   7.022  18.487  0.00  0.00    +0.000 A 
ATOM     15  C   UNL     1       7.372   7.571  17.462  0.00  0.00    +0.000 A 
ATOM     16  C   UNL     1       6.173   6.948  17.057  0.00  0.00    +0.000 A 
ATOM     17  C   UNL     1       5.725   5.786  17.689  0.00  0.00    +0.000 A 
ATOM     18  C   UNL     1       6.482   5.267  18.747  0.00  0.00    +0.000 A 
ENDBRANCH   1  17
TORSDOF 2
ENDMDL
