MODEL 1
REMARK VINA RESULT:      -7.4      0.000      0.000
REMARK  Name = 
REMARK  4 active torsions:
REMARK  status: ('A' for Active; 'I' for Inactive)
REMARK    1  A    between atoms: C_1  and  C_2
REMARK    2  A    between atoms: C_6  and  C_7
REMARK    3  A    between atoms: C_9  and  S_10
REMARK    4  A    between atoms: S_10  and  N_13
REMARK                            x       y       z     vdW  Elec       q    Type
REMARK                         _______ _______ _______ _____ _____    ______ ____
ROOT
ATOM      1  C   UNL     1       6.534   4.527  16.173  0.00  0.00    +0.000 C 
ATOM      2  O   UNL     1       6.524   5.726  16.968  0.00  0.00    +0.000 OA
ATOM      3  C   UNL     1       5.249   5.140  16.690  0.00  0.00    +0.000 C 
ENDROOT
BRANCH   1   9
ATOM      4  C   UNL     1       5.397   2.468  11.660  0.00  0.00    +0.000 C 
ATOM      5  C   UNL     1       6.129   3.486  12.488  0.00  0.00    +0.000 A 
ATOM      6  C   UNL     1       7.102   4.300  11.900  0.00  0.00    +0.000 A 
ATOM      7  C   UNL     1       7.815   5.211  12.670  0.00  0.00    +0.000 A 
ATOM      8  C   UNL     1       7.570   5.297  14.037  0.00  0.00    +0.000 A 
ATOM      9  C   UNL     1       6.612   4.483  14.669  0.00  0.00    +0.000 A 
ATOM     10  C   UNL     1       5.877   3.596  13.864  0.00  0.00    +0.000 A 
ENDBRANCH   1   9
BRANCH   3  11
ATOM     11  S   UNL     1       4.505   4.124  17.978  0.00  0.00    +0.000 S 
ATOM     12  O   UNL     1       4.071   2.869  17.399  0.00  0.00    +0.000 OA
ATOM     13  O   UNL     1       5.401   4.149  19.117  0.00  0.00    +0.000 OA
BRANCH  11  14
ATOM     14  N   UNL     1       3.090   4.982  18.414  0.00  0.00    +0.000 NA
ATOM     15  C   UNL     1       2.964   5.382  19.851  0.00  0.00    +0.000 C 
ATOM     16  C   UNL     1       2.393   4.243  20.704  0.00  0.00    +0.000 C 
ATOM     17  O   UNL     1       1.136   3.788  20.184  0.00  0.00    +0.000 OA
ATOM     18  C   UNL     1       1.282   3.317  18.835  0.00  0.00    +0.000 C 
ATOM     19  C   UNL     1       1.795   4.431  17.919  0.00  0.00    +0.000 C 
ENDBRANCH  11  14
ENDBRANCH   3  11
TORSDOF 3
ENDMDL
MODEL 2
REMARK VINA RESULT:      -7.2      1.218      1.544
REMARK  Name = 
REMARK  4 active torsions:
REMARK  status: ('A' for Active; 'I' for Inactive)
REMARK    1  A    between atoms: C_1  and  C_2
REMARK    2  A    between atoms: C_6  and  C_7
REMARK    3  A    between atoms: C_9  and  S_10
REMARK    4  A    between atoms: S_10  and  N_13
REMARK                            x       y       z     vdW  Elec       q    Type
REMARK                         _______ _______ _______ _____ _____    ______ ____
ROOT
ATOM      1  C   UNL     1       6.714   4.454  16.375  0.00  0.00    +0.000 C 
ATOM      2  O   UNL     1       7.228   5.500  17.218  0.00  0.00    +0.000 OA
ATOM      3  C   UNL     1       5.816   5.505  16.995  0.00  0.00    +0.000 C 
ENDROOT
BRANCH   1   9
ATOM      4  C   UNL     1       5.188   2.705  11.846  0.00  0.00    +0.000 C 
ATOM      5  C   UNL     1       6.037   3.624  12.676  0.00  0.00    +0.000 A 
ATOM      6  C   UNL     1       7.037   4.392  12.071  0.00  0.00    +0.000 A 
ATOM      7  C   UNL     1       7.857   5.210  12.840  0.00  0.00    +0.000 A 
ATOM      8  C   UNL     1       7.691   5.248  14.221  0.00  0.00    +0.000 A 
ATOM      9  C   UNL     1       6.709   4.478  14.869  0.00  0.00    +0.000 A 
ATOM     10  C   UNL     1       5.867   3.686  14.068  0.00  0.00    +0.000 A 
ENDBRANCH   1   9
BRANCH   3  11
ATOM     11  S   UNL     1       4.769   4.804  18.282  0.00  0.00    +0.000 S 
ATOM     12  O   UNL     1       5.550   3.877  19.075  0.00  0.00    +0.000 OA
ATOM     13  O   UNL     1       4.059   5.904  18.905  0.00  0.00    +0.000 OA
BRANCH  11  14
ATOM     14  N   UNL     1       3.623   3.872  17.419  0.00  0.00    +0.000 NA
ATOM     15  C   UNL     1       2.189   4.281  17.551  0.00  0.00    +0.000 C 
ATOM     16  C   UNL     1       1.548   3.687  18.811  0.00  0.00    +0.000 C 
ATOM     17  O   UNL     1       1.679   2.258  18.833  0.00  0.00    +0.000 OA
ATOM     18  C   UNL     1       3.063   1.873  18.801  0.00  0.00    +0.000 C 
ATOM     19  C   UNL     1       3.746   2.389  17.533  0.00  0.00    +0.000 C 
ENDBRANCH  11  14
ENDBRANCH   3  11
TORSDOF 3
ENDMDL
MODEL 3
REMARK VINA RESULT:      -7.0      4.625      6.553
REMARK  Name = 
REMARK  4 active torsions:
REMARK  status: ('A' for Active; 'I' for Inactive)
REMARK    1  A    between atoms: C_1  and  C_2
REMARK    2  A    between atoms: C_6  and  C_7
REMARK    3  A    between atoms: C_9  and  S_10
REMARK    4  A    between atoms: S_10  and  N_13
REMARK                            x       y       z     vdW  Elec       q    Type
REMARK                         _______ _______ _______ _____ _____    ______ ____
ROOT
ATOM      1  C   UNL     1       3.062   6.492  18.324  0.00  0.00    +0.000 C 
ATOM      2  O   UNL     1       3.975   5.708  19.111  0.00  0.00    +0.000 OA
ATOM      3  C   UNL     1       2.643   5.202  18.998  0.00  0.00    +0.000 C 
ENDROOT
BRANCH   1   9
ATOM      4  C   UNL     1       0.483   9.041  21.896  0.00  0.00    +0.000 C 
ATOM      5  C   UNL     1       1.014   8.925  20.495  0.00  0.00    +0.000 A 
ATOM      6  C   UNL     1       0.622   9.847  19.519  0.00  0.00    +0.000 A 
ATOM      7  C   UNL     1       1.073   9.718  18.210  0.00  0.00    +0.000 A 
ATOM      8  C   UNL     1       1.903   8.654  17.870  0.00  0.00    +0.000 A 
ATOM      9  C   UNL     1       2.304   7.697  18.818  0.00  0.00    +0.000 A 
ATOM     10  C   UNL     1       1.867   7.868  20.143  0.00  0.00    +0.000 A 
ENDBRANCH   1   9
BRANCH   3  11
ATOM     11  S   UNL     1       2.352   3.893  17.794  0.00  0.00    +0.000 S 
ATOM     12  O   UNL     1       1.049   4.087  17.191  0.00  0.00    +0.000 OA
ATOM     13  O   UNL     1       3.544   3.788  16.976  0.00  0.00    +0.000 OA
BRANCH  11  14
ATOM     14  N   UNL     1       2.251   2.474  18.744  0.00  0.00    +0.000 NA
ATOM     15  C   UNL     1       1.522   2.588  20.046  0.00  0.00    +0.000 C 
ATOM     16  C   UNL     1       2.435   3.124  21.157  0.00  0.00    +0.000 C 
ATOM     17  O   UNL     1       3.611   2.314  21.295  0.00  0.00    +0.000 OA
ATOM     18  C   UNL     1       4.357   2.285  20.067  0.00  0.00    +0.000 C 
ATOM     19  C   UNL     1       3.515   1.702  18.929  0.00  0.00    +0.000 C 
ENDBRANCH  11  14
ENDBRANCH   3  11
TORSDOF 3
ENDMDL
MODEL 4
REMARK VINA RESULT:      -7.0      0.896      1.176
REMARK  Name = 
REMARK  4 active torsions:
REMARK  status: ('A' for Active; 'I' for Inactive)
REMARK    1  A    between atoms: C_1  and  C_2
REMARK    2  A    between atoms: C_6  and  C_7
REMARK    3  A    between atoms: C_9  and  S_10
REMARK    4  A    between atoms: S_10  and  N_13
REMARK                            x       y       z     vdW  Elec       q    Type
REMARK                         _______ _______ _______ _____ _____    ______ ____
ROOT
ATOM      1  C   UNL     1       6.178   4.382  16.359  0.00  0.00    +0.000 C 
ATOM      2  O   UNL     1       6.124   5.548  17.198  0.00  0.00    +0.000 OA
ATOM      3  C   UNL     1       4.866   5.002  16.793  0.00  0.00    +0.000 C 
ENDROOT
BRANCH   1   9
ATOM      4  C   UNL     1       5.294   2.595  11.676  0.00  0.00    +0.000 C 
ATOM      5  C   UNL     1       6.018   3.524  12.608  0.00  0.00    +0.000 A 
ATOM      6  C   UNL     1       7.089   4.293  12.140  0.00  0.00    +0.000 A 
ATOM      7  C   UNL     1       7.792   5.120  13.008  0.00  0.00    +0.000 A 
ATOM      8  C   UNL     1       7.438   5.166  14.353  0.00  0.00    +0.000 A 
ATOM      9  C   UNL     1       6.380   4.395  14.866  0.00  0.00    +0.000 A 
ATOM     10  C   UNL     1       5.659   3.594  13.963  0.00  0.00    +0.000 A 
ENDBRANCH   1   9
BRANCH   3  11
ATOM     11  S   UNL     1       3.998   3.953  17.973  0.00  0.00    +0.000 S 
ATOM     12  O   UNL     1       3.791   2.647  17.381  0.00  0.00    +0.000 OA
ATOM     13  O   UNL     1       4.670   4.095  19.249  0.00  0.00    +0.000 OA
BRANCH  11  14
ATOM     14  N   UNL     1       2.457   4.681  18.116  0.00  0.00    +0.000 NA
ATOM     15  C   UNL     1       2.424   6.176  18.176  0.00  0.00    +0.000 C 
ATOM     16  C   UNL     1       2.667   6.688  19.602  0.00  0.00    +0.000 C 
ATOM     17  O   UNL     1       1.729   6.115  20.524  0.00  0.00    +0.000 OA
ATOM     18  C   UNL     1       1.831   4.682  20.530  0.00  0.00    +0.000 C 
ATOM     19  C   UNL     1       1.539   4.105  19.143  0.00  0.00    +0.000 C 
ENDBRANCH  11  14
ENDBRANCH   3  11
TORSDOF 3
ENDMDL
MODEL 5
REMARK VINA RESULT:      -6.9      2.701      6.955
REMARK  Name = 
REMARK  4 active torsions:
REMARK  status: ('A' for Active; 'I' for Inactive)
REMARK    1  A    between atoms: C_1  and  C_2
REMARK    2  A    between atoms: C_6  and  C_7
REMARK    3  A    between atoms: C_9  and  S_10
REMARK    4  A    between atoms: S_10  and  N_13
REMARK                            x       y       z     vdW  Elec       q    Type
REMARK                         _______ _______ _______ _____ _____    ______ ____
ROOT
ATOM      1  C   UNL     1       2.989   5.995  19.685  0.00  0.00    +0.000 C 
ATOM      2  O   UNL     1       2.223   4.799  19.905  0.00  0.00    +0.000 OA
ATOM      3  C   UNL     1       2.735   4.988  18.583  0.00  0.00    +0.000 C 
ENDROOT
BRANCH   1   9
ATOM      4  C   UNL     1       0.009   9.960  20.826  0.00  0.00    +0.000 C 
ATOM      5  C   UNL     1       0.945   9.253  19.888  0.00  0.00    +0.000 A 
ATOM      6  C   UNL     1       1.137   9.738  18.591  0.00  0.00    +0.000 A 
ATOM      7  C   UNL     1       1.966   9.062  17.703  0.00  0.00    +0.000 A 
ATOM      8  C   UNL     1       2.591   7.886  18.105  0.00  0.00    +0.000 A 
ATOM      9  C   UNL     1       2.409   7.356  19.395  0.00  0.00    +0.000 A 
ATOM     10  C   UNL     1       1.596   8.076  20.288  0.00  0.00    +0.000 A 
ENDBRANCH   1   9
BRANCH   3  11
ATOM     11  S   UNL     1       4.239   4.100  18.140  0.00  0.00    +0.000 S 
ATOM     12  O   UNL     1       4.909   3.671  19.351  0.00  0.00    +0.000 OA
ATOM     13  O   UNL     1       3.887   3.148  17.106  0.00  0.00    +0.000 OA
BRANCH  11  14
ATOM     14  N   UNL     1       5.229   5.298  17.425  0.00  0.00    +0.000 NA
ATOM     15  C   UNL     1       5.462   5.183  15.951  0.00  0.00    +0.000 C 
ATOM     16  C   UNL     1       6.609   4.215  15.636  0.00  0.00    +0.000 C 
ATOM     17  O   UNL     1       7.812   4.599  16.319  0.00  0.00    +0.000 OA
ATOM     18  C   UNL     1       7.607   4.615  17.741  0.00  0.00    +0.000 C 
ATOM     19  C   UNL     1       6.510   5.611  18.125  0.00  0.00    +0.000 C 
ENDBRANCH  11  14
ENDBRANCH   3  11
TORSDOF 3
ENDMDL
MODEL 6
REMARK VINA RESULT:      -6.9      2.343      6.928
REMARK  Name = 
REMARK  4 active torsions:
REMARK  status: ('A' for Active; 'I' for Inactive)
REMARK    1  A    between atoms: C_1  and  C_2
REMARK    2  A    between atoms: C_6  and  C_7
REMARK    3  A    between atoms: C_9  and  S_10
REMARK    4  A    between atoms: S_10  and  N_13
REMARK                            x       y       z     vdW  Elec       q    Type
REMARK                         _______ _______ _______ _____ _____    ______ ____
ROOT
ATOM      1  C   UNL     1       2.910   5.262  20.068  0.00  0.00    +0.000 C 
ATOM      2  O   UNL     1       2.260   3.980  20.102  0.00  0.00    +0.000 OA
ATOM      3  C   UNL     1       2.770   4.397  18.833  0.00  0.00    +0.000 C 
ENDROOT
BRANCH   1   9
ATOM      4  C   UNL     1       2.001   9.691  17.731  0.00  0.00    +0.000 C 
ATOM      5  C   UNL     1       1.787   8.750  18.881  0.00  0.00    +0.000 A 
ATOM      6  C   UNL     1       1.087   9.175  20.015  0.00  0.00    +0.000 A 
ATOM      7  C   UNL     1       0.925   8.323  21.101  0.00  0.00    +0.000 A 
ATOM      8  C   UNL     1       1.480   7.048  21.065  0.00  0.00    +0.000 A 
ATOM      9  C   UNL     1       2.205   6.589  19.951  0.00  0.00    +0.000 A 
ATOM     10  C   UNL     1       2.325   7.453  18.849  0.00  0.00    +0.000 A 
ENDBRANCH   1   9
BRANCH   3  11
ATOM     11  S   UNL     1       4.359   3.725  18.315  0.00  0.00    +0.000 S 
ATOM     12  O   UNL     1       5.127   3.366  19.490  0.00  0.00    +0.000 OA
ATOM     13  O   UNL     1       4.096   2.753  17.272  0.00  0.00    +0.000 OA
BRANCH  11  14
ATOM     14  N   UNL     1       5.155   5.056  17.592  0.00  0.00    +0.000 NA
ATOM     15  C   UNL     1       5.261   5.044  16.099  0.00  0.00    +0.000 C 
ATOM     16  C   UNL     1       6.464   4.220  15.627  0.00  0.00    +0.000 C 
ATOM     17  O   UNL     1       7.680   4.691  16.225  0.00  0.00    +0.000 OA
ATOM     18  C   UNL     1       7.608   4.612  17.658  0.00  0.00    +0.000 C 
ATOM     19  C   UNL     1       6.457   5.465  18.196  0.00  0.00    +0.000 C 
ENDBRANCH  11  14
ENDBRANCH   3  11
TORSDOF 3
ENDMDL
MODEL 7
REMARK VINA RESULT:      -6.8      1.247      1.631
REMARK  Name = 
REMARK  4 active torsions:
REMARK  status: ('A' for Active; 'I' for Inactive)
REMARK    1  A    between atoms: C_1  and  C_2
REMARK    2  A    between atoms: C_6  and  C_7
REMARK    3  A    between atoms: C_9  and  S_10
REMARK    4  A    between atoms: S_10  and  N_13
REMARK                            x       y       z     vdW  Elec       q    Type
REMARK                         _______ _______ _______ _____ _____    ______ ____
ROOT
ATOM      1  C   UNL     1       5.637   4.066  16.340  0.00  0.00    +0.000 C 
ATOM      2  O   UNL     1       5.692   5.140  17.294  0.00  0.00    +0.000 OA
ATOM      3  C   UNL     1       4.412   4.873  16.717  0.00  0.00    +0.000 C 
ENDROOT
BRANCH   1   9
ATOM      4  C   UNL     1       5.214   2.662  11.466  0.00  0.00    +0.000 C 
ATOM      5  C   UNL     1       5.862   3.491  12.538  0.00  0.00    +0.000 A 
ATOM      6  C   UNL     1       7.001   4.247  12.249  0.00  0.00    +0.000 A 
ATOM      7  C   UNL     1       7.632   4.980  13.248  0.00  0.00    +0.000 A 
ATOM      8  C   UNL     1       7.134   4.942  14.546  0.00  0.00    +0.000 A 
ATOM      9  C   UNL     1       6.001   4.180  14.882  0.00  0.00    +0.000 A 
ATOM     10  C   UNL     1       5.358   3.477  13.849  0.00  0.00    +0.000 A 
ENDBRANCH   1   9
BRANCH   3  11
ATOM     11  S   UNL     1       3.251   3.897  17.689  0.00  0.00    +0.000 S 
ATOM     12  O   UNL     1       1.933   4.488  17.586  0.00  0.00    +0.000 OA
ATOM     13  O   UNL     1       3.472   2.504  17.350  0.00  0.00    +0.000 OA
BRANCH  11  14
ATOM     14  N   UNL     1       3.770   4.124  19.303  0.00  0.00    +0.000 NA
ATOM     15  C   UNL     1       3.760   2.917  20.187  0.00  0.00    +0.000 C 
ATOM     16  C   UNL     1       2.372   2.675  20.793  0.00  0.00    +0.000 C 
ATOM     17  O   UNL     1       1.907   3.834  21.499  0.00  0.00    +0.000 OA
ATOM     18  C   UNL     1       1.829   4.969  20.621  0.00  0.00    +0.000 C 
ATOM     19  C   UNL     1       3.201   5.298  20.029  0.00  0.00    +0.000 C 
ENDBRANCH  11  14
ENDBRANCH   3  11
TORSDOF 3
ENDMDL
MODEL 8
REMARK VINA RESULT:      -6.7      3.413      4.450
REMARK  Name = 
REMARK  4 active torsions:
REMARK  status: ('A' for Active; 'I' for Inactive)
REMARK    1  A    between atoms: C_1  and  C_2
REMARK    2  A    between atoms: C_6  and  C_7
REMARK    3  A    between atoms: C_9  and  S_10
REMARK    4  A    between atoms: S_10  and  N_13
REMARK                            x       y       z     vdW  Elec       q    Type
REMARK                         _______ _______ _______ _____ _____    ______ ____
ROOT
ATOM      1  C   UNL     1       4.320   5.332  17.064  0.00  0.00    +0.000 C 
ATOM      2  O   UNL     1       4.076   4.064  16.432  0.00  0.00    +0.000 OA
ATOM      3  C   UNL     1       3.854   4.119  17.843  0.00  0.00    +0.000 C 
ENDROOT
BRANCH   1   9
ATOM      4  C   UNL     1       8.334   5.344  20.193  0.00  0.00    +0.000 C 
ATOM      5  C   UNL     1       7.589   5.908  19.017  0.00  0.00    +0.000 A 
ATOM      6  C   UNL     1       8.024   7.091  18.413  0.00  0.00    +0.000 A 
ATOM      7  C   UNL     1       7.313   7.642  17.353  0.00  0.00    +0.000 A 
ATOM      8  C   UNL     1       6.151   7.020  16.907  0.00  0.00    +0.000 A 
ATOM      9  C   UNL     1       5.670   5.839  17.500  0.00  0.00    +0.000 A 
ATOM     10  C   UNL     1       6.426   5.279  18.545  0.00  0.00    +0.000 A 
ENDBRANCH   1   9
BRANCH   3  11
ATOM     11  S   UNL     1       2.155   4.311  18.409  0.00  0.00    +0.000 S 
ATOM     12  O   UNL     1       2.096   5.392  19.371  0.00  0.00    +0.000 OA
ATOM     13  O   UNL     1       1.307   4.313  17.233  0.00  0.00    +0.000 OA
BRANCH  11  14
ATOM     14  N   UNL     1       1.841   2.866  19.269  0.00  0.00    +0.000 NA
ATOM     15  C   UNL     1       1.067   2.998  20.544  0.00  0.00    +0.000 C 
ATOM     16  C   UNL     1       1.980   3.361  21.721  0.00  0.00    +0.000 C 
ATOM     17  O   UNL     1       3.045   2.409  21.862  0.00  0.00    +0.000 OA
ATOM     18  C   UNL     1       3.842   2.355  20.667  0.00  0.00    +0.000 C 
ATOM     19  C   UNL     1       2.995   1.939  19.463  0.00  0.00    +0.000 C 
ENDBRANCH  11  14
ENDBRANCH   3  11
TORSDOF 3
ENDMDL
MODEL 9
REMARK VINA RESULT:      -6.7      2.690      7.036
REMARK  Name = 
REMARK  4 active torsions:
REMARK  status: ('A' for Active; 'I' for Inactive)
REMARK    1  A    between atoms: C_1  and  C_2
REMARK    2  A    between atoms: C_6  and  C_7
REMARK    3  A    between atoms: C_9  and  S_10
REMARK    4  A    between atoms: S_10  and  N_13
REMARK                            x       y       z     vdW  Elec       q    Type
REMARK                         _______ _______ _______ _____ _____    ______ ____
ROOT
ATOM      1  C   UNL     1       2.718   5.899  19.490  0.00  0.00    +0.000 C 
ATOM      2  O   UNL     1       1.891   4.736  19.314  0.00  0.00    +0.000 OA
ATOM      3  C   UNL     1       2.663   5.140  18.181  0.00  0.00    +0.000 C 
ENDROOT
BRANCH   1   9
ATOM      4  C   UNL     1       0.205   9.971  21.225  0.00  0.00    +0.000 C 
ATOM      5  C   UNL     1       1.002   9.282  20.154  0.00  0.00    +0.000 A 
ATOM      6  C   UNL     1       1.143   9.874  18.895  0.00  0.00    +0.000 A 
ATOM      7  C   UNL     1       1.840   9.221  17.885  0.00  0.00    +0.000 A 
ATOM      8  C   UNL     1       2.382   7.962  18.127  0.00  0.00    +0.000 A 
ATOM      9  C   UNL     1       2.247   7.326  19.373  0.00  0.00    +0.000 A 
ATOM     10  C   UNL     1       1.570   8.021  20.391  0.00  0.00    +0.000 A 
ENDBRANCH   1   9
BRANCH   3  11
ATOM     11  S   UNL     1       4.200   4.255  17.866  0.00  0.00    +0.000 S 
ATOM     12  O   UNL     1       5.156   4.582  18.904  0.00  0.00    +0.000 OA
ATOM     13  O   UNL     1       3.852   2.877  17.581  0.00  0.00    +0.000 OA
BRANCH  11  14
ATOM     14  N   UNL     1       4.787   4.949  16.416  0.00  0.00    +0.000 NA
ATOM     15  C   UNL     1       5.923   4.243  15.745  0.00  0.00    +0.000 C 
ATOM     16  C   UNL     1       7.273   4.650  16.348  0.00  0.00    +0.000 C 
ATOM     17  O   UNL     1       7.452   6.072  16.300  0.00  0.00    +0.000 OA
ATOM     18  C   UNL     1       6.409   6.742  17.027  0.00  0.00    +0.000 C 
ATOM     19  C   UNL     1       5.036   6.421  16.434  0.00  0.00    +0.000 C 
ENDBRANCH  11  14
ENDBRANCH   3  11
TORSDOF 3
ENDMDL
