MODEL 1
REMARK VINA RESULT:      -9.2      0.000      0.000
REMARK  Name = 
REMARK  5 active torsions:
REMARK  status: ('A' for Active; 'I' for Inactive)
REMARK    1  A    between atoms: C_2  and  C_10
REMARK    2  A    between atoms: N_3  and  C_4
REMARK    3  A    between atoms: C_10  and  C_12
REMARK    4  A    between atoms: N_14  and  C_15
REMARK    5  A    between atoms: C_15  and  C_16
REMARK                            x       y       z     vdW  Elec       q    Type
REMARK                         _______ _______ _______ _____ _____    ______ ____
ROOT
ATOM      1  C   UNL     1       4.859   4.960  17.739  0.00  0.00    +0.000 A 
ATOM      2  C   UNL     1       4.128   5.937  17.084  0.00  0.00    +0.000 A 
ATOM      3  N   UNL     1       2.971   6.020  17.826  0.00  0.00    +0.000 N 
ATOM      4  C   UNL     1       2.587   4.698  17.963  0.00  0.00    +0.000 A 
ATOM      5  C   UNL     1       1.314   4.156  18.160  0.00  0.00    +0.000 A 
ATOM      6  C   UNL     1       1.256   2.816  18.522  0.00  0.00    +0.000 A 
ATOM      7  C   UNL     1       2.431   2.092  18.726  0.00  0.00    +0.000 A 
ATOM      8  C   UNL     1       3.707   2.676  18.548  0.00  0.00    +0.000 A 
ATOM      9  C   UNL     1       3.808   4.016  18.116  0.00  0.00    +0.000 A 
ENDROOT
BRANCH   1  10
ATOM     10  C   UNL     1       6.327   4.954  17.831  0.00  0.00    +0.000 C 
ATOM     11  O   UNL     1       6.938   4.161  18.544  0.00  0.00    +0.000 OA
BRANCH  10  13
ATOM     12  O   UNL     1       7.726   6.873  17.736  0.00  0.00    +0.000 OA
ATOM     13  C   UNL     1       7.158   6.007  17.065  0.00  0.00    +0.000 C 
ATOM     14  N   UNL     1       7.290   6.053  15.679  0.00  0.00    +0.000 N 
ATOM     15  H   UNL     1       7.811   6.877  15.401  0.00  0.00    +0.000 HD
BRANCH  14  16
ATOM     16  C   UNL     1       6.908   5.208  14.621  0.00  0.00    +0.000 A 
ATOM     17  C   UNL     1       5.827   4.343  14.671  0.00  0.00    +0.000 A 
ATOM     18  C   UNL     1       5.525   3.481  13.607  0.00  0.00    +0.000 A 
ATOM     19  C   UNL     1       6.303   3.480  12.458  0.00  0.00    +0.000 A 
ATOM     20  C   UNL     1       7.384   4.347  12.367  0.00  0.00    +0.000 A 
ATOM     21  C   UNL     1       7.684   5.203  13.442  0.00  0.00    +0.000 A 
ENDBRANCH  14  16
ENDBRANCH  10  13
ENDBRANCH   1  10
BRANCH   3  22
ATOM     22  C   UNL     1       2.881   6.854  19.043  0.00  0.00    +0.000 C 
BRANCH  22  23
ATOM     23  C   UNL     1       2.195   8.169  18.796  0.00  0.00    +0.000 C 
ATOM     24  O   UNL     1       2.496   8.876  17.849  0.00  0.00    +0.000 OA
ATOM     25  N   UNL     1       1.189   8.531  19.686  0.00  0.00    +0.000 N 
ATOM     26  C   UNL     1       0.481   9.787  19.448  0.00  0.00    +0.000 C 
ATOM     27  C   UNL     1       0.897  10.821  20.486  0.00  0.00    +0.000 C 
ATOM     28  C   UNL     1       0.649  10.282  21.896  0.00  0.00    +0.000 C 
ATOM     29  C   UNL     1       1.362   8.944  22.102  0.00  0.00    +0.000 C 
ATOM     30  C   UNL     1       0.974   7.944  21.014  0.00  0.00    +0.000 C 
ENDBRANCH  22  23
ENDBRANCH   3  22
TORSDOF 5
ENDMDL
MODEL 2
REMARK VINA RESULT:      -9.0      0.831      1.124
REMARK  Name = 
REMARK  5 active torsions:
REMARK  status: ('A' for Active; 'I' for Inactive)
REMARK    1  A    between atoms: C_2  and  C_10
REMARK    2  A    between atoms: N_3  and  C_4
REMARK    3  A    between atoms: C_10  and  C_12
REMARK    4  A    between atoms: N_14  and  C_15
REMARK    5  A    between atoms: C_15  and  C_16
REMARK                            x       y       z     vdW  Elec       q    Type
REMARK                         _______ _______ _______ _____ _____    ______ ____
ROOT
ATOM      1  C   UNL     1       4.910   6.082  17.582  0.00  0.00    +0.000 A 
ATOM      2  C   UNL     1       3.977   6.944  17.030  0.00  0.00    +0.000 A 
ATOM      3  N   UNL     1       2.849   6.717  17.787  0.00  0.00    +0.000 N 
ATOM      4  C   UNL     1       2.747   5.338  17.798  0.00  0.00    +0.000 A 
ATOM      5  C   UNL     1       1.618   4.529  17.952  0.00  0.00    +0.000 A 
ATOM      6  C   UNL     1       1.844   3.177  18.182  0.00  0.00    +0.000 A 
ATOM      7  C   UNL     1       3.148   2.696  18.305  0.00  0.00    +0.000 A 
ATOM      8  C   UNL     1       4.273   3.544  18.175  0.00  0.00    +0.000 A 
ATOM      9  C   UNL     1       4.085   4.910  17.874  0.00  0.00    +0.000 A 
ENDROOT
BRANCH   1  10
ATOM     10  C   UNL     1       6.351   6.370  17.661  0.00  0.00    +0.000 C 
ATOM     11  O   UNL     1       6.791   7.516  17.715  0.00  0.00    +0.000 OA
BRANCH  10  13
ATOM     12  O   UNL     1       7.967   4.945  18.665  0.00  0.00    +0.000 OA
ATOM     13  C   UNL     1       7.376   5.216  17.616  0.00  0.00    +0.000 C 
ATOM     14  N   UNL     1       7.688   4.481  16.475  0.00  0.00    +0.000 N 
ATOM     15  H   UNL     1       8.447   3.834  16.666  0.00  0.00    +0.000 HD
BRANCH  14  16
ATOM     16  C   UNL     1       7.167   4.412  15.169  0.00  0.00    +0.000 A 
ATOM     17  C   UNL     1       6.004   3.737  14.834  0.00  0.00    +0.000 A 
ATOM     18  C   UNL     1       5.560   3.652  13.506  0.00  0.00    +0.000 A 
ATOM     19  C   UNL     1       6.275   4.260  12.483  0.00  0.00    +0.000 A 
ATOM     20  C   UNL     1       7.435   4.960  12.788  0.00  0.00    +0.000 A 
ATOM     21  C   UNL     1       7.878   5.033  14.120  0.00  0.00    +0.000 A 
ENDBRANCH  14  16
ENDBRANCH  10  13
ENDBRANCH   1  10
BRANCH   3  22
ATOM     22  C   UNL     1       2.625   7.397  19.080  0.00  0.00    +0.000 C 
BRANCH  22  23
ATOM     23  C   UNL     1       1.792   8.642  18.943  0.00  0.00    +0.000 C 
ATOM     24  O   UNL     1       1.957   9.420  18.020  0.00  0.00    +0.000 OA
ATOM     25  N   UNL     1       0.812   8.853  19.910  0.00  0.00    +0.000 N 
ATOM     26  C   UNL     1      -0.035  10.035  19.780  0.00  0.00    +0.000 C 
ATOM     27  C   UNL     1       0.337  11.059  20.846  0.00  0.00    +0.000 C 
ATOM     28  C   UNL     1       0.237  10.430  22.237  0.00  0.00    +0.000 C 
ATOM     29  C   UNL     1       1.095   9.168  22.329  0.00  0.00    +0.000 C 
ATOM     30  C   UNL     1       0.745   8.184  21.214  0.00  0.00    +0.000 C 
ENDBRANCH  22  23
ENDBRANCH   3  22
TORSDOF 5
ENDMDL
MODEL 3
REMARK VINA RESULT:      -8.8      1.588      2.050
REMARK  Name = 
REMARK  5 active torsions:
REMARK  status: ('A' for Active; 'I' for Inactive)
REMARK    1  A    between atoms: C_2  and  C_10
REMARK    2  A    between atoms: N_3  and  C_4
REMARK    3  A    between atoms: C_10  and  C_12
REMARK    4  A    between atoms: N_14  and  C_15
REMARK    5  A    between atoms: C_15  and  C_16
REMARK                            x       y       z     vdW  Elec       q    Type
REMARK                         _______ _______ _______ _____ _____    ______ ____
ROOT
ATOM      1  C   UNL     1       3.761   5.741  18.601  0.00  0.00    +0.000 A 
ATOM      2  C   UNL     1       2.613   6.395  18.184  0.00  0.00    +0.000 A 
ATOM      3  N   UNL     1       1.822   6.397  19.310  0.00  0.00    +0.000 N 
ATOM      4  C   UNL     1       1.876   5.083  19.739  0.00  0.00    +0.000 A 
ATOM      5  C   UNL     1       0.951   4.351  20.488  0.00  0.00    +0.000 A 
ATOM      6  C   UNL     1       1.382   3.131  20.993  0.00  0.00    +0.000 A 
ATOM      7  C   UNL     1       2.699   2.715  20.794  0.00  0.00    +0.000 A 
ATOM      8  C   UNL     1       3.624   3.492  20.057  0.00  0.00    +0.000 A 
ATOM      9  C   UNL     1       3.205   4.705  19.470  0.00  0.00    +0.000 A 
ENDROOT
BRANCH   1  10
ATOM     10  C   UNL     1       5.111   6.048  18.102  0.00  0.00    +0.000 C 
ATOM     11  O   UNL     1       5.361   7.071  17.468  0.00  0.00    +0.000 OA
BRANCH  10  13
ATOM     12  O   UNL     1       6.584   4.786  19.475  0.00  0.00    +0.000 OA
ATOM     13  C   UNL     1       6.263   5.041  18.311  0.00  0.00    +0.000 C 
ATOM     14  N   UNL     1       6.968   4.422  17.281  0.00  0.00    +0.000 N 
ATOM     15  H   UNL     1       7.730   3.869  17.657  0.00  0.00    +0.000 HD
BRANCH  14  16
ATOM     16  C   UNL     1       6.828   4.365  15.882  0.00  0.00    +0.000 A 
ATOM     17  C   UNL     1       7.661   5.023  14.992  0.00  0.00    +0.000 A 
ATOM     18  C   UNL     1       7.441   4.977  13.608  0.00  0.00    +0.000 A 
ATOM     19  C   UNL     1       6.378   4.254  13.086  0.00  0.00    +0.000 A 
ATOM     20  C   UNL     1       5.533   3.568  13.950  0.00  0.00    +0.000 A 
ATOM     21  C   UNL     1       5.756   3.626  15.337  0.00  0.00    +0.000 A 
ENDBRANCH  14  16
ENDBRANCH  10  13
ENDBRANCH   1  10
BRANCH   3  22
ATOM     22  C   UNL     1       1.957   7.431  20.359  0.00  0.00    +0.000 C 
BRANCH  22  23
ATOM     23  C   UNL     1       1.286   8.724  19.987  0.00  0.00    +0.000 C 
ATOM     24  O   UNL     1       1.710   9.423  19.081  0.00  0.00    +0.000 OA
ATOM     25  N   UNL     1       0.152   9.077  20.712  0.00  0.00    +0.000 N 
ATOM     26  C   UNL     1      -0.539  10.311  20.347  0.00  0.00    +0.000 C 
ATOM     27  C   UNL     1      -0.303  11.372  21.415  0.00  0.00    +0.000 C 
ATOM     28  C   UNL     1      -0.745  10.850  22.783  0.00  0.00    +0.000 C 
ATOM     29  C   UNL     1      -0.043   9.533  23.118  0.00  0.00    +0.000 C 
ATOM     30  C   UNL     1      -0.244   8.507  22.004  0.00  0.00    +0.000 C 
ENDBRANCH  22  23
ENDBRANCH   3  22
TORSDOF 5
ENDMDL
MODEL 4
REMARK VINA RESULT:      -8.8      1.073      1.142
REMARK  Name = 
REMARK  5 active torsions:
REMARK  status: ('A' for Active; 'I' for Inactive)
REMARK    1  A    between atoms: C_2  and  C_10
REMARK    2  A    between atoms: N_3  and  C_4
REMARK    3  A    between atoms: C_10  and  C_12
REMARK    4  A    between atoms: N_14  and  C_15
REMARK    5  A    between atoms: C_15  and  C_16
REMARK                            x       y       z     vdW  Elec       q    Type
REMARK                         _______ _______ _______ _____ _____    ______ ____
ROOT
ATOM      1  C   UNL     1       4.365   4.887  18.309  0.00  0.00    +0.000 A 
ATOM      2  C   UNL     1       3.397   5.529  17.553  0.00  0.00    +0.000 A 
ATOM      3  N   UNL     1       2.467   5.915  18.492  0.00  0.00    +0.000 N 
ATOM      4  C   UNL     1       2.263   4.763  19.230  0.00  0.00    +0.000 A 
ATOM      5  C   UNL     1       1.143   4.360  19.962  0.00  0.00    +0.000 A 
ATOM      6  C   UNL     1       1.312   3.277  20.816  0.00  0.00    +0.000 A 
ATOM      7  C   UNL     1       2.567   2.682  20.954  0.00  0.00    +0.000 A 
ATOM      8  C   UNL     1       3.691   3.131  20.221  0.00  0.00    +0.000 A 
ATOM      9  C   UNL     1       3.544   4.185  19.294  0.00  0.00    +0.000 A 
ENDROOT
BRANCH   1  10
ATOM     10  C   UNL     1       5.801   4.901  17.990  0.00  0.00    +0.000 C 
ATOM     11  O   UNL     1       6.558   3.994  18.329  0.00  0.00    +0.000 OA
BRANCH  10  13
ATOM     12  O   UNL     1       6.789   7.062  17.955  0.00  0.00    +0.000 OA
ATOM     13  C   UNL     1       6.422   6.111  17.259  0.00  0.00    +0.000 C 
ATOM     14  N   UNL     1       6.576   6.206  15.878  0.00  0.00    +0.000 N 
ATOM     15  H   UNL     1       6.928   7.122  15.623  0.00  0.00    +0.000 HD
BRANCH  14  16
ATOM     16  C   UNL     1       6.397   5.319  14.800  0.00  0.00    +0.000 A 
ATOM     17  C   UNL     1       5.287   4.506  14.642  0.00  0.00    +0.000 A 
ATOM     18  C   UNL     1       5.186   3.599  13.577  0.00  0.00    +0.000 A 
ATOM     19  C   UNL     1       6.201   3.499  12.637  0.00  0.00    +0.000 A 
ATOM     20  C   UNL     1       7.321   4.313  12.756  0.00  0.00    +0.000 A 
ATOM     21  C   UNL     1       7.417   5.214  13.831  0.00  0.00    +0.000 A 
ENDBRANCH  14  16
ENDBRANCH  10  13
ENDBRANCH   1  10
BRANCH   3  22
ATOM     22  C   UNL     1       2.608   7.167  19.264  0.00  0.00    +0.000 C 
BRANCH  22  23
ATOM     23  C   UNL     1       2.060   8.363  18.536  0.00  0.00    +0.000 C 
ATOM     24  O   UNL     1       2.486   8.693  17.442  0.00  0.00    +0.000 OA
ATOM     25  N   UNL     1       1.032   9.064  19.160  0.00  0.00    +0.000 N 
ATOM     26  C   UNL     1       0.456  10.208  18.458  0.00  0.00    +0.000 C 
ATOM     27  C   UNL     1       0.892  11.502  19.133  0.00  0.00    +0.000 C 
ATOM     28  C   UNL     1       0.502  11.482  20.612  0.00  0.00    +0.000 C 
ATOM     29  C   UNL     1       1.077  10.249  21.311  0.00  0.00    +0.000 C 
ATOM     30  C   UNL     1       0.677   8.969  20.580  0.00  0.00    +0.000 C 
ENDBRANCH  22  23
ENDBRANCH   3  22
TORSDOF 5
ENDMDL
MODEL 5
REMARK VINA RESULT:      -8.6      1.289      1.891
REMARK  Name = 
REMARK  5 active torsions:
REMARK  status: ('A' for Active; 'I' for Inactive)
REMARK    1  A    between atoms: C_2  and  C_10
REMARK    2  A    between atoms: N_3  and  C_4
REMARK    3  A    between atoms: C_10  and  C_12
REMARK    4  A    between atoms: N_14  and  C_15
REMARK    5  A    between atoms: C_15  and  C_16
REMARK                            x       y       z     vdW  Elec       q    Type
REMARK                         _______ _______ _______ _____ _____    ______ ____
ROOT
ATOM      1  C   UNL     1       4.579   6.130  17.354  0.00  0.00    +0.000 A 
ATOM      2  C   UNL     1       3.526   7.029  17.335  0.00  0.00    +0.000 A 
ATOM      3  N   UNL     1       2.683   6.550  18.312  0.00  0.00    +0.000 N 
ATOM      4  C   UNL     1       2.583   5.203  18.014  0.00  0.00    +0.000 A 
ATOM      5  C   UNL     1       1.551   4.303  18.293  0.00  0.00    +0.000 A 
ATOM      6  C   UNL     1       1.832   2.955  18.106  0.00  0.00    +0.000 A 
ATOM      7  C   UNL     1       3.108   2.552  17.713  0.00  0.00    +0.000 A 
ATOM      8  C   UNL     1       4.143   3.485  17.467  0.00  0.00    +0.000 A 
ATOM      9  C   UNL     1       3.878   4.867  17.580  0.00  0.00    +0.000 A 
ENDROOT
BRANCH   1  10
ATOM     10  C   UNL     1       5.977   6.492  17.069  0.00  0.00    +0.000 C 
ATOM     11  O   UNL     1       6.303   7.623  16.713  0.00  0.00    +0.000 OA
BRANCH  10  13
ATOM     12  O   UNL     1       7.615   5.243  18.252  0.00  0.00    +0.000 OA
ATOM     13  C   UNL     1       7.088   5.423  17.151  0.00  0.00    +0.000 C 
ATOM     14  N   UNL     1       7.543   4.672  16.071  0.00  0.00    +0.000 N 
ATOM     15  H   UNL     1       8.331   4.096  16.346  0.00  0.00    +0.000 HD
BRANCH  14  16
ATOM     16  C   UNL     1       7.130   4.510  14.735  0.00  0.00    +0.000 A 
ATOM     17  C   UNL     1       6.055   3.728  14.345  0.00  0.00    +0.000 A 
ATOM     18  C   UNL     1       5.722   3.557  12.994  0.00  0.00    +0.000 A 
ATOM     19  C   UNL     1       6.462   4.183  12.000  0.00  0.00    +0.000 A 
ATOM     20  C   UNL     1       7.536   4.988  12.358  0.00  0.00    +0.000 A 
ATOM     21  C   UNL     1       7.868   5.148  13.715  0.00  0.00    +0.000 A 
ENDBRANCH  14  16
ENDBRANCH  10  13
ENDBRANCH   1  10
BRANCH   3  22
ATOM     22  C   UNL     1       2.867   6.890  19.739  0.00  0.00    +0.000 C 
BRANCH  22  23
ATOM     23  C   UNL     1       1.639   7.502  20.353  0.00  0.00    +0.000 C 
ATOM     24  O   UNL     1       0.903   6.858  21.082  0.00  0.00    +0.000 OA
ATOM     25  N   UNL     1       1.391   8.841  20.064  0.00  0.00    +0.000 N 
ATOM     26  C   UNL     1       0.224   9.471  20.677  0.00  0.00    +0.000 C 
ATOM     27  C   UNL     1      -0.852   9.702  19.623  0.00  0.00    +0.000 C 
ATOM     28  C   UNL     1      -0.289  10.536  18.470  0.00  0.00    +0.000 C 
ATOM     29  C   UNL     1       0.960   9.879  17.880  0.00  0.00    +0.000 C 
ATOM     30  C   UNL     1       1.998   9.601  18.966  0.00  0.00    +0.000 C 
ENDBRANCH  22  23
ENDBRANCH   3  22
TORSDOF 5
ENDMDL
MODEL 6
REMARK VINA RESULT:      -8.4      1.217      1.458
REMARK  Name = 
REMARK  5 active torsions:
REMARK  status: ('A' for Active; 'I' for Inactive)
REMARK    1  A    between atoms: C_2  and  C_10
REMARK    2  A    between atoms: N_3  and  C_4
REMARK    3  A    between atoms: C_10  and  C_12
REMARK    4  A    between atoms: N_14  and  C_15
REMARK    5  A    between atoms: C_15  and  C_16
REMARK                            x       y       z     vdW  Elec       q    Type
REMARK                         _______ _______ _______ _____ _____    ______ ____
ROOT
ATOM      1  C   UNL     1       4.140   5.845  17.708  0.00  0.00    +0.000 A 
ATOM      2  C   UNL     1       2.821   6.240  17.552  0.00  0.00    +0.000 A 
ATOM      3  N   UNL     1       2.306   6.133  18.824  0.00  0.00    +0.000 N 
ATOM      4  C   UNL     1       2.716   4.875  19.228  0.00  0.00    +0.000 A 
ATOM      5  C   UNL     1       2.140   4.006  20.159  0.00  0.00    +0.000 A 
ATOM      6  C   UNL     1       2.908   2.918  20.556  0.00  0.00    +0.000 A 
ATOM      7  C   UNL     1       4.208   2.764  20.073  0.00  0.00    +0.000 A 
ATOM      8  C   UNL     1       4.776   3.677  19.154  0.00  0.00    +0.000 A 
ATOM      9  C   UNL     1       4.004   4.757  18.675  0.00  0.00    +0.000 A 
ENDROOT
BRANCH   1  10
ATOM     10  C   UNL     1       5.260   6.392  16.926  0.00  0.00    +0.000 C 
ATOM     11  O   UNL     1       5.111   7.297  16.109  0.00  0.00    +0.000 OA
BRANCH  10  13
ATOM     12  O   UNL     1       7.223   5.896  18.171  0.00  0.00    +0.000 OA
ATOM     13  C   UNL     1       6.674   5.788  17.071  0.00  0.00    +0.000 C 
ATOM     14  N   UNL     1       7.371   5.154  16.045  0.00  0.00    +0.000 N 
ATOM     15  H   UNL     1       8.309   4.915  16.349  0.00  0.00    +0.000 HD
BRANCH  14  16
ATOM     16  C   UNL     1       7.050   4.746  14.737  0.00  0.00    +0.000 A 
ATOM     17  C   UNL     1       6.053   3.835  14.431  0.00  0.00    +0.000 A 
ATOM     18  C   UNL     1       5.813   3.421  13.113  0.00  0.00    +0.000 A 
ATOM     19  C   UNL     1       6.570   3.929  12.066  0.00  0.00    +0.000 A 
ATOM     20  C   UNL     1       7.567   4.858  12.336  0.00  0.00    +0.000 A 
ATOM     21  C   UNL     1       7.806   5.261  13.662  0.00  0.00    +0.000 A 
ENDBRANCH  14  16
ENDBRANCH  10  13
ENDBRANCH   1  10
BRANCH   3  22
ATOM     22  C   UNL     1       2.449   7.216  19.820  0.00  0.00    +0.000 C 
BRANCH  22  23
ATOM     23  C   UNL     1       1.706   8.464  19.430  0.00  0.00    +0.000 C 
ATOM     24  O   UNL     1       2.035   9.123  18.459  0.00  0.00    +0.000 OA
ATOM     25  N   UNL     1       0.616   8.819  20.219  0.00  0.00    +0.000 N 
ATOM     26  C   UNL     1      -0.146  10.007  19.842  0.00  0.00    +0.000 C 
ATOM     27  C   UNL     1       0.129  11.134  20.830  0.00  0.00    +0.000 C 
ATOM     28  C   UNL     1      -0.192  10.676  22.254  0.00  0.00    +0.000 C 
ATOM     29  C   UNL     1       0.582   9.404  22.605  0.00  0.00    +0.000 C 
ATOM     30  C   UNL     1       0.338   8.310  21.567  0.00  0.00    +0.000 C 
ENDBRANCH  22  23
ENDBRANCH   3  22
TORSDOF 5
ENDMDL
MODEL 7
REMARK VINA RESULT:      -8.4      1.598      2.155
REMARK  Name = 
REMARK  5 active torsions:
REMARK  status: ('A' for Active; 'I' for Inactive)
REMARK    1  A    between atoms: C_2  and  C_10
REMARK    2  A    between atoms: N_3  and  C_4
REMARK    3  A    between atoms: C_10  and  C_12
REMARK    4  A    between atoms: N_14  and  C_15
REMARK    5  A    between atoms: C_15  and  C_16
REMARK                            x       y       z     vdW  Elec       q    Type
REMARK                         _______ _______ _______ _____ _____    ______ ____
ROOT
ATOM      1  C   UNL     1       3.877   5.754  17.805  0.00  0.00    +0.000 A 
ATOM      2  C   UNL     1       2.588   6.262  17.828  0.00  0.00    +0.000 A 
ATOM      3  N   UNL     1       2.228   6.155  19.152  0.00  0.00    +0.000 N 
ATOM      4  C   UNL     1       2.575   4.855  19.472  0.00  0.00    +0.000 A 
ATOM      5  C   UNL     1       2.047   4.006  20.448  0.00  0.00    +0.000 A 
ATOM      6  C   UNL     1       2.761   2.845  20.719  0.00  0.00    +0.000 A 
ATOM      7  C   UNL     1       3.972   2.600  20.071  0.00  0.00    +0.000 A 
ATOM      8  C   UNL     1       4.499   3.493  19.109  0.00  0.00    +0.000 A 
ATOM      9  C   UNL     1       3.769   4.649  18.757  0.00  0.00    +0.000 A 
ENDROOT
BRANCH   1  10
ATOM     10  C   UNL     1       4.934   6.232  16.901  0.00  0.00    +0.000 C 
ATOM     11  O   UNL     1       4.697   6.959  15.938  0.00  0.00    +0.000 OA
BRANCH  10  13
ATOM     12  O   UNL     1       6.880   5.918  18.228  0.00  0.00    +0.000 OA
ATOM     13  C   UNL     1       6.395   5.773  17.103  0.00  0.00    +0.000 C 
ATOM     14  N   UNL     1       7.198   5.228  16.104  0.00  0.00    +0.000 N 
ATOM     15  H   UNL     1       8.141   5.081  16.448  0.00  0.00    +0.000 HD
BRANCH  14  16
ATOM     16  C   UNL     1       6.979   4.811  14.778  0.00  0.00    +0.000 A 
ATOM     17  C   UNL     1       6.045   3.857  14.409  0.00  0.00    +0.000 A 
ATOM     18  C   UNL     1       5.909   3.437  13.078  0.00  0.00    +0.000 A 
ATOM     19  C   UNL     1       6.707   3.981  12.082  0.00  0.00    +0.000 A 
ATOM     20  C   UNL     1       7.642   4.953  12.414  0.00  0.00    +0.000 A 
ATOM     21  C   UNL     1       7.778   5.362  13.753  0.00  0.00    +0.000 A 
ENDBRANCH  14  16
ENDBRANCH  10  13
ENDBRANCH   1  10
BRANCH   3  22
ATOM     22  C   UNL     1       2.588   7.189  20.146  0.00  0.00    +0.000 C 
BRANCH  22  23
ATOM     23  C   UNL     1       1.394   7.951  20.648  0.00  0.00    +0.000 C 
ATOM     24  O   UNL     1       0.684   7.510  21.536  0.00  0.00    +0.000 OA
ATOM     25  N   UNL     1       1.147   9.190  20.064  0.00  0.00    +0.000 N 
ATOM     26  C   UNL     1       0.014   9.968  20.558  0.00  0.00    +0.000 C 
ATOM     27  C   UNL     1      -1.105   9.969  19.523  0.00  0.00    +0.000 C 
ATOM     28  C   UNL     1      -0.584  10.499  18.186  0.00  0.00    +0.000 C 
ATOM     29  C   UNL     1       0.631   9.697  17.716  0.00  0.00    +0.000 C 
ATOM     30  C   UNL     1       1.713   9.661  18.795  0.00  0.00    +0.000 C 
ENDBRANCH  22  23
ENDBRANCH   3  22
TORSDOF 5
ENDMDL
MODEL 8
REMARK VINA RESULT:      -8.4      1.106      1.605
REMARK  Name = 
REMARK  5 active torsions:
REMARK  status: ('A' for Active; 'I' for Inactive)
REMARK    1  A    between atoms: C_2  and  C_10
REMARK    2  A    between atoms: N_3  and  C_4
REMARK    3  A    between atoms: C_10  and  C_12
REMARK    4  A    between atoms: N_14  and  C_15
REMARK    5  A    between atoms: C_15  and  C_16
REMARK                            x       y       z     vdW  Elec       q    Type
REMARK                         _______ _______ _______ _____ _____    ______ ____
ROOT
ATOM      1  C   UNL     1       4.796   4.903  17.721  0.00  0.00    +0.000 A 
ATOM      2  C   UNL     1       4.034   6.033  17.477  0.00  0.00    +0.000 A 
ATOM      3  N   UNL     1       3.009   5.928  18.389  0.00  0.00    +0.000 N 
ATOM      4  C   UNL     1       2.572   4.626  18.227  0.00  0.00    +0.000 A 
ATOM      5  C   UNL     1       1.313   4.071  18.474  0.00  0.00    +0.000 A 
ATOM      6  C   UNL     1       1.229   2.685  18.467  0.00  0.00    +0.000 A 
ATOM      7  C   UNL     1       2.377   1.914  18.280  0.00  0.00    +0.000 A 
ATOM      8  C   UNL     1       3.645   2.503  18.063  0.00  0.00    +0.000 A 
ATOM      9  C   UNL     1       3.759   3.908  17.994  0.00  0.00    +0.000 A 
ENDROOT
BRANCH   1  10
ATOM     10  C   UNL     1       6.259   4.847  17.572  0.00  0.00    +0.000 C 
ATOM     11  O   UNL     1       6.942   3.980  18.112  0.00  0.00    +0.000 OA
BRANCH  10  13
ATOM     12  O   UNL     1       7.549   6.836  17.406  0.00  0.00    +0.000 OA
ATOM     13  C   UNL     1       6.998   5.937  16.765  0.00  0.00    +0.000 C 
ATOM     14  N   UNL     1       7.067   5.980  15.375  0.00  0.00    +0.000 N 
ATOM     15  H   UNL     1       7.532   6.829  15.070  0.00  0.00    +0.000 HD
BRANCH  14  16
ATOM     16  C   UNL     1       6.684   5.109  14.338  0.00  0.00    +0.000 A 
ATOM     17  C   UNL     1       5.528   4.346  14.355  0.00  0.00    +0.000 A 
ATOM     18  C   UNL     1       5.223   3.451  13.319  0.00  0.00    +0.000 A 
ATOM     19  C   UNL     1       6.075   3.313  12.232  0.00  0.00    +0.000 A 
ATOM     20  C   UNL     1       7.235   4.076  12.176  0.00  0.00    +0.000 A 
ATOM     21  C   UNL     1       7.536   4.965  13.223  0.00  0.00    +0.000 A 
ENDBRANCH  14  16
ENDBRANCH  10  13
ENDBRANCH   1  10
BRANCH   3  22
ATOM     22  C   UNL     1       3.151   6.399  19.784  0.00  0.00    +0.000 C 
BRANCH  22  23
ATOM     23  C   UNL     1       1.917   7.091  20.291  0.00  0.00    +0.000 C 
ATOM     24  O   UNL     1       1.120   6.521  21.017  0.00  0.00    +0.000 OA
ATOM     25  N   UNL     1       1.735   8.417  19.907  0.00  0.00    +0.000 N 
ATOM     26  C   UNL     1       0.563   9.124  20.415  0.00  0.00    +0.000 C 
ATOM     27  C   UNL     1      -0.447   9.325  19.292  0.00  0.00    +0.000 C 
ATOM     28  C   UNL     1       0.206  10.064  18.122  0.00  0.00    +0.000 C 
ATOM     29  C   UNL     1       1.458   9.327  17.642  0.00  0.00    +0.000 C 
ATOM     30  C   UNL     1       2.426   9.084  18.798  0.00  0.00    +0.000 C 
ENDBRANCH  22  23
ENDBRANCH   3  22
TORSDOF 5
ENDMDL
MODEL 9
REMARK VINA RESULT:      -8.3      1.743      2.490
REMARK  Name = 
REMARK  5 active torsions:
REMARK  status: ('A' for Active; 'I' for Inactive)
REMARK    1  A    between atoms: C_2  and  C_10
REMARK    2  A    between atoms: N_3  and  C_4
REMARK    3  A    between atoms: C_10  and  C_12
REMARK    4  A    between atoms: N_14  and  C_15
REMARK    5  A    between atoms: C_15  and  C_16
REMARK                            x       y       z     vdW  Elec       q    Type
REMARK                         _______ _______ _______ _____ _____    ______ ____
ROOT
ATOM      1  C   UNL     1       3.809   5.782  18.587  0.00  0.00    +0.000 A 
ATOM      2  C   UNL     1       2.674   6.511  18.274  0.00  0.00    +0.000 A 
ATOM      3  N   UNL     1       1.941   6.472  19.439  0.00  0.00    +0.000 N 
ATOM      4  C   UNL     1       1.956   5.131  19.778  0.00  0.00    +0.000 A 
ATOM      5  C   UNL     1       1.036   4.390  20.526  0.00  0.00    +0.000 A 
ATOM      6  C   UNL     1       1.435   3.122  20.928  0.00  0.00    +0.000 A 
ATOM      7  C   UNL     1       2.720   2.664  20.633  0.00  0.00    +0.000 A 
ATOM      8  C   UNL     1       3.641   3.449  19.900  0.00  0.00    +0.000 A 
ATOM      9  C   UNL     1       3.250   4.715  19.416  0.00  0.00    +0.000 A 
ENDROOT
BRANCH   1  10
ATOM     10  C   UNL     1       5.145   6.063  18.037  0.00  0.00    +0.000 C 
ATOM     11  O   UNL     1       5.382   7.064  17.364  0.00  0.00    +0.000 OA
BRANCH  10  13
ATOM     12  O   UNL     1       6.629   4.810  19.406  0.00  0.00    +0.000 OA
ATOM     13  C   UNL     1       6.297   5.055  18.243  0.00  0.00    +0.000 C 
ATOM     14  N   UNL     1       6.990   4.426  17.212  0.00  0.00    +0.000 N 
ATOM     15  H   UNL     1       7.755   3.875  17.585  0.00  0.00    +0.000 HD
BRANCH  14  16
ATOM     16  C   UNL     1       6.836   4.358  15.815  0.00  0.00    +0.000 A 
ATOM     17  C   UNL     1       7.648   5.024  14.912  0.00  0.00    +0.000 A 
ATOM     18  C   UNL     1       7.414   4.966  13.531  0.00  0.00    +0.000 A 
ATOM     19  C   UNL     1       6.358   4.221  13.025  0.00  0.00    +0.000 A 
ATOM     20  C   UNL     1       5.535   3.526  13.902  0.00  0.00    +0.000 A 
ATOM     21  C   UNL     1       5.772   3.597  15.286  0.00  0.00    +0.000 A 
ENDBRANCH  14  16
ENDBRANCH  10  13
ENDBRANCH   1  10
BRANCH   3  22
ATOM     22  C   UNL     1       2.175   7.426  20.543  0.00  0.00    +0.000 C 
BRANCH  22  23
ATOM     23  C   UNL     1       0.954   8.238  20.877  0.00  0.00    +0.000 C 
ATOM     24  O   UNL     1       0.150   7.862  21.713  0.00  0.00    +0.000 OA
ATOM     25  N   UNL     1       0.795   9.444  20.201  0.00  0.00    +0.000 N 
ATOM     26  C   UNL     1      -0.363  10.269  20.533  0.00  0.00    +0.000 C 
ATOM     27  C   UNL     1      -1.373  10.227  19.392  0.00  0.00    +0.000 C 
ATOM     28  C   UNL     1      -0.710  10.668  18.086  0.00  0.00    +0.000 C 
ATOM     29  C   UNL     1       0.528   9.820  17.788  0.00  0.00    +0.000 C 
ATOM     30  C   UNL     1       1.495   9.829  18.970  0.00  0.00    +0.000 C 
ENDBRANCH  22  23
ENDBRANCH   3  22
TORSDOF 5
ENDMDL
