MODEL 1
REMARK VINA RESULT:      -7.9      0.000      0.000
REMARK  Name = 
REMARK  5 active torsions:
REMARK  status: ('A' for Active; 'I' for Inactive)
REMARK    1  A    between atoms: C_1  and  C_2
REMARK    2  A    between atoms: C_7  and  S_8
REMARK    3  A    between atoms: N_9  and  C_10
REMARK    4  A    between atoms: C_10  and  C_11
REMARK    5  A    between atoms: C_10  and  C_12
REMARK                            x       y       z     vdW  Elec       q    Type
REMARK                         _______ _______ _______ _____ _____    ______ ____
ROOT
ATOM      1  C   UNL     1      -5.077  11.924  17.295  0.00  0.00    +0.000 C 
ATOM      2  C   UNL     1      -3.701  11.360  17.471  0.00  0.00    +0.000 A 
ATOM      3  C   UNL     1      -2.859  11.770  18.499  0.00  0.00    +0.000 A 
ATOM      4  C   UNL     1      -1.596  11.187  18.639  0.00  0.00    +0.000 A 
ATOM      5  C   UNL     1      -1.184  10.206  17.744  0.00  0.00    +0.000 A 
ATOM      6  N   UNL     1       0.009   9.501  17.859  0.00  0.00    +0.000 N 
ATOM      7  C   UNL     1       1.256   9.830  18.304  0.00  0.00    +0.000 C 
ATOM      8  N   UNL     1       2.183   9.048  18.718  0.00  0.00    +0.000 NA
ATOM      9  N   UNL     1      -1.993   9.800  16.740  0.00  0.00    +0.000 NA
ATOM     10  C   UNL     1      -3.213  10.387  16.615  0.00  0.00    +0.000 A 
ATOM     11  H   UNL     1      -0.026   8.709  17.235  0.00  0.00    +0.000 HD
ENDROOT
BRANCH   7  12
ATOM     12  S   UNL     1       1.824  11.502  18.162  0.00  0.00    +0.000 S 
ATOM     13  H   UNL     1       0.737  12.043  17.618  0.00  0.00    +0.000 HD
ENDBRANCH   7  12
BRANCH   8  14
ATOM     14  C   UNL     1       2.050   7.599  18.897  0.00  0.00    +0.000 C 
ATOM     15  C   UNL     1       1.914   7.270  20.390  0.00  0.00    +0.000 C 
BRANCH  14  16
ATOM     16  C   UNL     1       3.023   6.743  18.088  0.00  0.00    +0.000 A 
ATOM     17  C   UNL     1       4.145   7.341  17.477  0.00  0.00    +0.000 A 
ATOM     18  C   UNL     1       5.049   6.595  16.734  0.00  0.00    +0.000 A 
ATOM     19  C   UNL     1       4.868   5.225  16.597  0.00  0.00    +0.000 A 
ATOM     20  C   UNL     1       3.778   4.581  17.198  0.00  0.00    +0.000 A 
ATOM     21  C   UNL     1       3.642   3.190  17.060  0.00  0.00    +0.000 A 
ATOM     22  C   UNL     1       2.578   2.510  17.648  0.00  0.00    +0.000 A 
ATOM     23  C   UNL     1       1.629   3.221  18.368  0.00  0.00    +0.000 A 
ATOM     24  C   UNL     1       1.747   4.608  18.505  0.00  0.00    +0.000 A 
ATOM     25  C   UNL     1       2.829   5.332  17.940  0.00  0.00    +0.000 A 
ENDBRANCH  14  16
ENDBRANCH   8  14
TORSDOF 3
ENDMDL
MODEL 2
REMARK VINA RESULT:      -7.1      4.830      7.917
REMARK  Name = 
REMARK  5 active torsions:
REMARK  status: ('A' for Active; 'I' for Inactive)
REMARK    1  A    between atoms: C_1  and  C_2
REMARK    2  A    between atoms: C_7  and  S_8
REMARK    3  A    between atoms: N_9  and  C_10
REMARK    4  A    between atoms: C_10  and  C_11
REMARK    5  A    between atoms: C_10  and  C_12
REMARK                            x       y       z     vdW  Elec       q    Type
REMARK                         _______ _______ _______ _____ _____    ______ ____
ROOT
ATOM      1  C   UNL     1       7.508   3.492  10.811  0.00  0.00    +0.000 C 
ATOM      2  C   UNL     1       7.022   3.904  12.167  0.00  0.00    +0.000 A 
ATOM      3  C   UNL     1       7.636   4.916  12.896  0.00  0.00    +0.000 A 
ATOM      4  C   UNL     1       7.122   5.284  14.144  0.00  0.00    +0.000 A 
ATOM      5  C   UNL     1       6.005   4.630  14.652  0.00  0.00    +0.000 A 
ATOM      6  N   UNL     1       5.365   4.989  15.833  0.00  0.00    +0.000 N 
ATOM      7  C   UNL     1       5.803   5.486  17.026  0.00  0.00    +0.000 C 
ATOM      8  N   UNL     1       5.135   6.126  17.913  0.00  0.00    +0.000 NA
ATOM      9  N   UNL     1       5.401   3.643  13.952  0.00  0.00    +0.000 NA
ATOM     10  C   UNL     1       5.923   3.293  12.747  0.00  0.00    +0.000 A 
ATOM     11  H   UNL     1       4.472   4.521  15.868  0.00  0.00    +0.000 HD
ENDROOT
BRANCH   7  12
ATOM     12  S   UNL     1       7.435   5.093  17.592  0.00  0.00    +0.000 S 
ATOM     13  H   UNL     1       7.783   4.234  16.638  0.00  0.00    +0.000 HD
ENDBRANCH   7  12
BRANCH   8  14
ATOM     14  C   UNL     1       3.741   6.554  17.774  0.00  0.00    +0.000 C 
ATOM     15  C   UNL     1       3.685   8.067  17.517  0.00  0.00    +0.000 C 
BRANCH  14  16
ATOM     16  C   UNL     1       2.772   5.997  18.817  0.00  0.00    +0.000 A 
ATOM     17  C   UNL     1       2.312   6.826  19.862  0.00  0.00    +0.000 A 
ATOM     18  C   UNL     1       1.434   6.353  20.828  0.00  0.00    +0.000 A 
ATOM     19  C   UNL     1       0.976   5.044  20.765  0.00  0.00    +0.000 A 
ATOM     20  C   UNL     1       1.392   4.186  19.739  0.00  0.00    +0.000 A 
ATOM     21  C   UNL     1       0.888   2.876  19.693  0.00  0.00    +0.000 A 
ATOM     22  C   UNL     1       1.268   1.993  18.685  0.00  0.00    +0.000 A 
ATOM     23  C   UNL     1       2.173   2.410  17.720  0.00  0.00    +0.000 A 
ATOM     24  C   UNL     1       2.692   3.710  17.760  0.00  0.00    +0.000 A 
ATOM     25  C   UNL     1       2.310   4.643  18.756  0.00  0.00    +0.000 A 
ENDBRANCH  14  16
ENDBRANCH   8  14
TORSDOF 3
ENDMDL
MODEL 3
REMARK VINA RESULT:      -6.9      1.039      1.242
REMARK  Name = 
REMARK  5 active torsions:
REMARK  status: ('A' for Active; 'I' for Inactive)
REMARK    1  A    between atoms: C_1  and  C_2
REMARK    2  A    between atoms: C_7  and  S_8
REMARK    3  A    between atoms: N_9  and  C_10
REMARK    4  A    between atoms: C_10  and  C_11
REMARK    5  A    between atoms: C_10  and  C_12
REMARK                            x       y       z     vdW  Elec       q    Type
REMARK                         _______ _______ _______ _____ _____    ______ ____
ROOT
ATOM      1  C   UNL     1      -4.824  13.116  19.913  0.00  0.00    +0.000 C 
ATOM      2  C   UNL     1      -3.551  12.388  19.606  0.00  0.00    +0.000 A 
ATOM      3  C   UNL     1      -2.378  12.618  20.316  0.00  0.00    +0.000 A 
ATOM      4  C   UNL     1      -1.225  11.887  20.011  0.00  0.00    +0.000 A 
ATOM      5  C   UNL     1      -1.256  10.940  18.993  0.00  0.00    +0.000 A 
ATOM      6  N   UNL     1      -0.194  10.098  18.683  0.00  0.00    +0.000 N 
ATOM      7  C   UNL     1       1.162  10.249  18.706  0.00  0.00    +0.000 C 
ATOM      8  N   UNL     1       2.061   9.337  18.762  0.00  0.00    +0.000 NA
ATOM      9  N   UNL     1      -2.391  10.709  18.295  0.00  0.00    +0.000 NA
ATOM     10  C   UNL     1      -3.497  11.438  18.600  0.00  0.00    +0.000 A 
ATOM     11  H   UNL     1      -0.531   9.368  18.074  0.00  0.00    +0.000 HD
ENDROOT
BRANCH   7  12
ATOM     12  S   UNL     1       1.870  11.852  18.449  0.00  0.00    +0.000 S 
ATOM     13  H   UNL     1       2.401  12.039  19.655  0.00  0.00    +0.000 HD
ENDBRANCH   7  12
BRANCH   8  14
ATOM     14  C   UNL     1       1.802   7.903  18.919  0.00  0.00    +0.000 C 
ATOM     15  C   UNL     1       1.576   7.574  20.401  0.00  0.00    +0.000 C 
BRANCH  14  16
ATOM     16  C   UNL     1       2.735   6.975  18.142  0.00  0.00    +0.000 A 
ATOM     17  C   UNL     1       3.864   7.505  17.483  0.00  0.00    +0.000 A 
ATOM     18  C   UNL     1       4.733   6.693  16.766  0.00  0.00    +0.000 A 
ATOM     19  C   UNL     1       4.507   5.325  16.705  0.00  0.00    +0.000 A 
ATOM     20  C   UNL     1       3.408   4.748  17.355  0.00  0.00    +0.000 A 
ATOM     21  C   UNL     1       3.227   3.356  17.292  0.00  0.00    +0.000 A 
ATOM     22  C   UNL     1       2.153   2.741  17.932  0.00  0.00    +0.000 A 
ATOM     23  C   UNL     1       1.239   3.518  18.628  0.00  0.00    +0.000 A 
ATOM     24  C   UNL     1       1.402   4.906  18.689  0.00  0.00    +0.000 A 
ATOM     25  C   UNL     1       2.495   5.565  18.071  0.00  0.00    +0.000 A 
ENDBRANCH  14  16
ENDBRANCH   8  14
TORSDOF 3
ENDMDL
MODEL 4
REMARK VINA RESULT:      -6.8      2.607      3.738
REMARK  Name = 
REMARK  5 active torsions:
REMARK  status: ('A' for Active; 'I' for Inactive)
REMARK    1  A    between atoms: C_1  and  C_2
REMARK    2  A    between atoms: C_7  and  S_8
REMARK    3  A    between atoms: N_9  and  C_10
REMARK    4  A    between atoms: C_10  and  C_11
REMARK    5  A    between atoms: C_10  and  C_12
REMARK                            x       y       z     vdW  Elec       q    Type
REMARK                         _______ _______ _______ _____ _____    ______ ____
ROOT
ATOM      1  C   UNL     1      -0.270  16.062  18.597  0.00  0.00    +0.000 C 
ATOM      2  C   UNL     1       0.099  14.661  18.976  0.00  0.00    +0.000 A 
ATOM      3  C   UNL     1      -0.859  13.677  19.195  0.00  0.00    +0.000 A 
ATOM      4  C   UNL     1      -0.459  12.375  19.514  0.00  0.00    +0.000 A 
ATOM      5  C   UNL     1       0.895  12.074  19.620  0.00  0.00    +0.000 A 
ATOM      6  N   UNL     1       1.391  10.793  19.837  0.00  0.00    +0.000 N 
ATOM      7  C   UNL     1       0.942   9.719  20.548  0.00  0.00    +0.000 C 
ATOM      8  N   UNL     1       1.254   8.484  20.404  0.00  0.00    +0.000 NA
ATOM      9  N   UNL     1       1.835  13.024  19.412  0.00  0.00    +0.000 NA
ATOM     10  C   UNL     1       1.425  14.284  19.113  0.00  0.00    +0.000 A 
ATOM     11  H   UNL     1       2.383  10.799  19.653  0.00  0.00    +0.000 HD
ENDROOT
BRANCH   7  12
ATOM     12  S   UNL     1      -0.058   9.978  21.987  0.00  0.00    +0.000 S 
ATOM     13  H   UNL     1      -0.581  11.158  21.665  0.00  0.00    +0.000 HD
ENDBRANCH   7  12
BRANCH   8  14
ATOM     14  C   UNL     1       2.110   7.948  19.342  0.00  0.00    +0.000 C 
ATOM     15  C   UNL     1       1.623   8.454  17.977  0.00  0.00    +0.000 C 
BRANCH  14  16
ATOM     16  C   UNL     1       2.436   6.459  19.447  0.00  0.00    +0.000 A 
ATOM     17  C   UNL     1       1.831   5.676  20.453  0.00  0.00    +0.000 A 
ATOM     18  C   UNL     1       2.105   4.321  20.580  0.00  0.00    +0.000 A 
ATOM     19  C   UNL     1       2.977   3.706  19.691  0.00  0.00    +0.000 A 
ATOM     20  C   UNL     1       3.592   4.436  18.666  0.00  0.00    +0.000 A 
ATOM     21  C   UNL     1       4.448   3.775  17.771  0.00  0.00    +0.000 A 
ATOM     22  C   UNL     1       5.073   4.462  16.732  0.00  0.00    +0.000 A 
ATOM     23  C   UNL     1       4.858   5.825  16.590  0.00  0.00    +0.000 A 
ATOM     24  C   UNL     1       4.015   6.498  17.482  0.00  0.00    +0.000 A 
ATOM     25  C   UNL     1       3.344   5.828  18.536  0.00  0.00    +0.000 A 
ENDBRANCH  14  16
ENDBRANCH   8  14
TORSDOF 3
ENDMDL
MODEL 5
REMARK VINA RESULT:      -6.7      3.789      7.879
REMARK  Name = 
REMARK  5 active torsions:
REMARK  status: ('A' for Active; 'I' for Inactive)
REMARK    1  A    between atoms: C_1  and  C_2
REMARK    2  A    between atoms: C_7  and  S_8
REMARK    3  A    between atoms: N_9  and  C_10
REMARK    4  A    between atoms: C_10  and  C_11
REMARK    5  A    between atoms: C_10  and  C_12
REMARK                            x       y       z     vdW  Elec       q    Type
REMARK                         _______ _______ _______ _____ _____    ______ ____
ROOT
ATOM      1  C   UNL     1       7.359   4.523  12.589  0.00  0.00    +0.000 C 
ATOM      2  C   UNL     1       6.723   4.667  13.937  0.00  0.00    +0.000 A 
ATOM      3  C   UNL     1       7.097   5.667  14.828  0.00  0.00    +0.000 A 
ATOM      4  C   UNL     1       6.447   5.778  16.062  0.00  0.00    +0.000 A 
ATOM      5  C   UNL     1       5.437   4.882  16.394  0.00  0.00    +0.000 A 
ATOM      6  N   UNL     1       4.670   4.971  17.551  0.00  0.00    +0.000 N 
ATOM      7  C   UNL     1       4.935   5.378  18.826  0.00  0.00    +0.000 C 
ATOM      8  N   UNL     1       4.107   5.773  19.721  0.00  0.00    +0.000 NA
ATOM      9  N   UNL     1       5.067   3.904  15.537  0.00  0.00    +0.000 NA
ATOM     10  C   UNL     1       5.718   3.807  14.347  0.00  0.00    +0.000 A 
ATOM     11  H   UNL     1       3.875   4.356  17.456  0.00  0.00    +0.000 HD
ENDROOT
BRANCH   7  12
ATOM     12  S   UNL     1       6.572   5.202  19.479  0.00  0.00    +0.000 S 
ATOM     13  H   UNL     1       6.382   5.768  20.668  0.00  0.00    +0.000 HD
ENDBRANCH   7  12
BRANCH   8  14
ATOM     14  C   UNL     1       2.670   5.971  19.515  0.00  0.00    +0.000 C 
ATOM     15  C   UNL     1       2.104   4.823  18.667  0.00  0.00    +0.000 C 
BRANCH  14  16
ATOM     16  C   UNL     1       2.249   7.387  19.125  0.00  0.00    +0.000 A 
ATOM     17  C   UNL     1       2.603   7.903  17.861  0.00  0.00    +0.000 A 
ATOM     18  C   UNL     1       2.239   9.186  17.474  0.00  0.00    +0.000 A 
ATOM     19  C   UNL     1       1.494   9.982  18.333  0.00  0.00    +0.000 A 
ATOM     20  C   UNL     1       1.105   9.510  19.593  0.00  0.00    +0.000 A 
ATOM     21  C   UNL     1       0.329  10.334  20.424  0.00  0.00    +0.000 A 
ATOM     22  C   UNL     1      -0.088   9.901  21.681  0.00  0.00    +0.000 A 
ATOM     23  C   UNL     1       0.285   8.640  22.125  0.00  0.00    +0.000 A 
ATOM     24  C   UNL     1       1.066   7.813  21.311  0.00  0.00    +0.000 A 
ATOM     25  C   UNL     1       1.488   8.211  20.017  0.00  0.00    +0.000 A 
ENDBRANCH  14  16
ENDBRANCH   8  14
TORSDOF 3
ENDMDL
MODEL 6
REMARK VINA RESULT:      -6.7      3.282      4.038
REMARK  Name = 
REMARK  5 active torsions:
REMARK  status: ('A' for Active; 'I' for Inactive)
REMARK    1  A    between atoms: C_1  and  C_2
REMARK    2  A    between atoms: C_7  and  S_8
REMARK    3  A    between atoms: N_9  and  C_10
REMARK    4  A    between atoms: C_10  and  C_11
REMARK    5  A    between atoms: C_10  and  C_12
REMARK                            x       y       z     vdW  Elec       q    Type
REMARK                         _______ _______ _______ _____ _____    ______ ____
ROOT
ATOM      1  C   UNL     1      -1.194  10.835  23.358  0.00  0.00    +0.000 C 
ATOM      2  C   UNL     1      -0.387  10.096  22.335  0.00  0.00    +0.000 A 
ATOM      3  C   UNL     1       0.642  10.705  21.626  0.00  0.00    +0.000 A 
ATOM      4  C   UNL     1       1.388   9.960  20.705  0.00  0.00    +0.000 A 
ATOM      5  C   UNL     1       1.089   8.618  20.499  0.00  0.00    +0.000 A 
ATOM      6  N   UNL     1       1.832   7.774  19.681  0.00  0.00    +0.000 N 
ATOM      7  C   UNL     1       2.514   7.957  18.513  0.00  0.00    +0.000 C 
ATOM      8  N   UNL     1       3.459   7.242  18.025  0.00  0.00    +0.000 NA
ATOM      9  N   UNL     1       0.089   8.017  21.182  0.00  0.00    +0.000 NA
ATOM     10  C   UNL     1      -0.630   8.760  22.064  0.00  0.00    +0.000 A 
ATOM     11  H   UNL     1       1.557   6.821  19.869  0.00  0.00    +0.000 HD
ENDROOT
BRANCH   7  12
ATOM     12  S   UNL     1       1.980   9.204  17.374  0.00  0.00    +0.000 S 
ATOM     13  H   UNL     1       3.107   9.907  17.294  0.00  0.00    +0.000 HD
ENDBRANCH   7  12
BRANCH   8  14
ATOM     14  C   UNL     1       4.087   6.100  18.695  0.00  0.00    +0.000 C 
ATOM     15  C   UNL     1       5.611   6.167  18.519  0.00  0.00    +0.000 C 
BRANCH  14  16
ATOM     16  C   UNL     1       3.424   4.745  18.450  0.00  0.00    +0.000 A 
ATOM     17  C   UNL     1       3.470   4.163  17.166  0.00  0.00    +0.000 A 
ATOM     18  C   UNL     1       2.877   2.935  16.905  0.00  0.00    +0.000 A 
ATOM     19  C   UNL     1       2.240   2.245  17.927  0.00  0.00    +0.000 A 
ATOM     20  C   UNL     1       2.180   2.773  19.223  0.00  0.00    +0.000 A 
ATOM     21  C   UNL     1       1.548   2.035  20.237  0.00  0.00    +0.000 A 
ATOM     22  C   UNL     1       1.475   2.519  21.541  0.00  0.00    +0.000 A 
ATOM     23  C   UNL     1       2.020   3.760  21.839  0.00  0.00    +0.000 A 
ATOM     24  C   UNL     1       2.643   4.511  20.835  0.00  0.00    +0.000 A 
ATOM     25  C   UNL     1       2.758   4.040  19.503  0.00  0.00    +0.000 A 
ENDBRANCH  14  16
ENDBRANCH   8  14
TORSDOF 3
ENDMDL
MODEL 7
REMARK VINA RESULT:      -6.6      2.414      3.763
REMARK  Name = 
REMARK  5 active torsions:
REMARK  status: ('A' for Active; 'I' for Inactive)
REMARK    1  A    between atoms: C_1  and  C_2
REMARK    2  A    between atoms: C_7  and  S_8
REMARK    3  A    between atoms: N_9  and  C_10
REMARK    4  A    between atoms: C_10  and  C_11
REMARK    5  A    between atoms: C_10  and  C_12
REMARK                            x       y       z     vdW  Elec       q    Type
REMARK                         _______ _______ _______ _____ _____    ______ ____
ROOT
ATOM      1  C   UNL     1      -0.566  13.296  18.230  0.00  0.00    +0.000 C 
ATOM      2  C   UNL     1       0.097  11.974  18.467  0.00  0.00    +0.000 A 
ATOM      3  C   UNL     1      -0.603  10.870  18.939  0.00  0.00    +0.000 A 
ATOM      4  C   UNL     1       0.057   9.649  19.111  0.00  0.00    +0.000 A 
ATOM      5  C   UNL     1       1.412   9.548  18.817  0.00  0.00    +0.000 A 
ATOM      6  N   UNL     1       2.131   8.359  18.862  0.00  0.00    +0.000 N 
ATOM      7  C   UNL     1       2.068   7.252  19.658  0.00  0.00    +0.000 C 
ATOM      8  N   UNL     1       2.502   6.071  19.412  0.00  0.00    +0.000 NA
ATOM      9  N   UNL     1       2.104  10.617  18.359  0.00  0.00    +0.000 NA
ATOM     10  C   UNL     1       1.446  11.796  18.209  0.00  0.00    +0.000 A 
ATOM     11  H   UNL     1       3.017   8.502  18.400  0.00  0.00    +0.000 HD
ENDROOT
BRANCH   7  12
ATOM     12  S   UNL     1       1.498   7.406  21.328  0.00  0.00    +0.000 S 
ATOM     13  H   UNL     1       2.171   6.395  21.870  0.00  0.00    +0.000 HD
ENDBRANCH   7  12
BRANCH   8  14
ATOM     14  C   UNL     1       3.084   5.633  18.141  0.00  0.00    +0.000 C 
ATOM     15  C   UNL     1       2.251   4.483  17.557  0.00  0.00    +0.000 C 
BRANCH  14  16
ATOM     16  C   UNL     1       4.602   5.455  18.138  0.00  0.00    +0.000 A 
ATOM     17  C   UNL     1       5.325   5.561  19.344  0.00  0.00    +0.000 A 
ATOM     18  C   UNL     1       6.704   5.407  19.378  0.00  0.00    +0.000 A 
ATOM     19  C   UNL     1       7.397   5.123  18.210  0.00  0.00    +0.000 A 
ATOM     20  C   UNL     1       6.723   4.993  16.988  0.00  0.00    +0.000 A 
ATOM     21  C   UNL     1       7.455   4.679  15.831  0.00  0.00    +0.000 A 
ATOM     22  C   UNL     1       6.823   4.531  14.598  0.00  0.00    +0.000 A 
ATOM     23  C   UNL     1       5.451   4.714  14.510  0.00  0.00    +0.000 A 
ATOM     24  C   UNL     1       4.711   5.037  15.653  0.00  0.00    +0.000 A 
ATOM     25  C   UNL     1       5.316   5.172  16.929  0.00  0.00    +0.000 A 
ENDBRANCH  14  16
ENDBRANCH   8  14
TORSDOF 3
ENDMDL
MODEL 8
REMARK VINA RESULT:      -6.5      2.019      8.196
REMARK  Name = 
REMARK  5 active torsions:
REMARK  status: ('A' for Active; 'I' for Inactive)
REMARK    1  A    between atoms: C_1  and  C_2
REMARK    2  A    between atoms: C_7  and  S_8
REMARK    3  A    between atoms: N_9  and  C_10
REMARK    4  A    between atoms: C_10  and  C_11
REMARK    5  A    between atoms: C_10  and  C_12
REMARK                            x       y       z     vdW  Elec       q    Type
REMARK                         _______ _______ _______ _____ _____    ______ ____
ROOT
ATOM      1  C   UNL     1       3.115   5.858  18.640  0.00  0.00    +0.000 C 
ATOM      2  C   UNL     1       2.464   7.192  18.840  0.00  0.00    +0.000 A 
ATOM      3  C   UNL     1       2.338   8.115  17.808  0.00  0.00    +0.000 A 
ATOM      4  C   UNL     1       1.691   9.334  18.040  0.00  0.00    +0.000 A 
ATOM      5  C   UNL     1       1.186   9.619  19.304  0.00  0.00    +0.000 A 
ATOM      6  N   UNL     1       0.445  10.756  19.606  0.00  0.00    +0.000 N 
ATOM      7  C   UNL     1       0.482  12.047  19.165  0.00  0.00    +0.000 C 
ATOM      8  N   UNL     1      -0.447  12.929  19.211  0.00  0.00    +0.000 NA
ATOM      9  N   UNL     1       1.305   8.729  20.316  0.00  0.00    +0.000 NA
ATOM     10  C   UNL     1       1.946   7.556  20.072  0.00  0.00    +0.000 A 
ATOM     11  H   UNL     1       0.012  10.626  20.508  0.00  0.00    +0.000 HD
ENDROOT
BRANCH   7  12
ATOM     12  S   UNL     1       2.015  12.739  18.610  0.00  0.00    +0.000 S 
ATOM     13  H   UNL     1       2.436  11.729  17.853  0.00  0.00    +0.000 HD
ENDBRANCH   7  12
BRANCH   8  14
ATOM     14  C   UNL     1      -1.817  12.689  19.672  0.00  0.00    +0.000 C 
ATOM     15  C   UNL     1      -1.793  12.093  21.087  0.00  0.00    +0.000 C 
BRANCH  14  16
ATOM     16  C   UNL     1      -2.745  12.021  18.659  0.00  0.00    +0.000 A 
ATOM     17  C   UNL     1      -2.211  11.447  17.486  0.00  0.00    +0.000 A 
ATOM     18  C   UNL     1      -3.024  10.834  16.543  0.00  0.00    +0.000 A 
ATOM     19  C   UNL     1      -4.394  10.759  16.756  0.00  0.00    +0.000 A 
ATOM     20  C   UNL     1      -4.972  11.300  17.912  0.00  0.00    +0.000 A 
ATOM     21  C   UNL     1      -6.358  11.182  18.105  0.00  0.00    +0.000 A 
ATOM     22  C   UNL     1      -6.972  11.698  19.244  0.00  0.00    +0.000 A 
ATOM     23  C   UNL     1      -6.204  12.353  20.195  0.00  0.00    +0.000 A 
ATOM     24  C   UNL     1      -4.823  12.486  20.010  0.00  0.00    +0.000 A 
ATOM     25  C   UNL     1      -4.160  11.954  18.875  0.00  0.00    +0.000 A 
ENDBRANCH  14  16
ENDBRANCH   8  14
TORSDOF 3
ENDMDL
MODEL 9
REMARK VINA RESULT:      -6.4      3.382      5.143
REMARK  Name = 
REMARK  5 active torsions:
REMARK  status: ('A' for Active; 'I' for Inactive)
REMARK    1  A    between atoms: C_1  and  C_2
REMARK    2  A    between atoms: C_7  and  S_8
REMARK    3  A    between atoms: N_9  and  C_10
REMARK    4  A    between atoms: C_10  and  C_11
REMARK    5  A    between atoms: C_10  and  C_12
REMARK                            x       y       z     vdW  Elec       q    Type
REMARK                         _______ _______ _______ _____ _____    ______ ____
ROOT
ATOM      1  C   UNL     1       1.108  10.929  19.009  0.00  0.00    +0.000 C 
ATOM      2  C   UNL     1       1.488   9.482  18.937  0.00  0.00    +0.000 A 
ATOM      3  C   UNL     1       1.599   8.807  17.727  0.00  0.00    +0.000 A 
ATOM      4  C   UNL     1       1.990   7.464  17.713  0.00  0.00    +0.000 A 
ATOM      5  C   UNL     1       2.257   6.809  18.911  0.00  0.00    +0.000 A 
ATOM      6  N   UNL     1       2.743   5.509  18.994  0.00  0.00    +0.000 N 
ATOM      7  C   UNL     1       2.549   4.383  18.248  0.00  0.00    +0.000 C 
ATOM      8  N   UNL     1       3.299   3.347  18.164  0.00  0.00    +0.000 NA
ATOM      9  N   UNL     1       2.150   7.456  20.093  0.00  0.00    +0.000 NA
ATOM     10  C   UNL     1       1.758   8.757  20.085  0.00  0.00    +0.000 A 
ATOM     11  H   UNL     1       3.061   5.346  19.937  0.00  0.00    +0.000 HD
ENDROOT
BRANCH   7  12
ATOM     12  S   UNL     1       1.014   4.152  17.395  0.00  0.00    +0.000 S 
ATOM     13  H   UNL     1       0.221   3.958  18.446  0.00  0.00    +0.000 HD
ENDBRANCH   7  12
BRANCH   8  14
ATOM     14  C   UNL     1       4.611   3.201  18.799  0.00  0.00    +0.000 C 
ATOM     15  C   UNL     1       4.436   2.945  20.303  0.00  0.00    +0.000 C 
BRANCH  14  16
ATOM     16  C   UNL     1       5.658   4.238  18.395  0.00  0.00    +0.000 A 
ATOM     17  C   UNL     1       6.289   5.022  19.383  0.00  0.00    +0.000 A 
ATOM     18  C   UNL     1       7.243   5.975  19.052  0.00  0.00    +0.000 A 
ATOM     19  C   UNL     1       7.607   6.157  17.725  0.00  0.00    +0.000 A 
ATOM     20  C   UNL     1       7.020   5.393  16.708  0.00  0.00    +0.000 A 
ATOM     21  C   UNL     1       7.433   5.587  15.380  0.00  0.00    +0.000 A 
ATOM     22  C   UNL     1       6.882   4.842  14.339  0.00  0.00    +0.000 A 
ATOM     23  C   UNL     1       5.898   3.905  14.619  0.00  0.00    +0.000 A 
ATOM     24  C   UNL     1       5.471   3.709  15.936  0.00  0.00    +0.000 A 
ATOM     25  C   UNL     1       6.025   4.431  17.024  0.00  0.00    +0.000 A 
ENDBRANCH  14  16
ENDBRANCH   8  14
TORSDOF 3
ENDMDL
