MODEL 1
REMARK VINA RESULT:      -8.9      0.000      0.000
REMARK  Name = 
REMARK  5 active torsions:
REMARK  status: ('A' for Active; 'I' for Inactive)
REMARK    1  A    between atoms: C_1  and  C_2
REMARK    2  A    between atoms: C_5  and  C_6
REMARK    3  A    between atoms: C_6  and  C_8
REMARK    4  A    between atoms: C_9  and  N_10
REMARK    5  A    between atoms: C_11  and  C_13
REMARK                            x       y       z     vdW  Elec       q    Type
REMARK                         _______ _______ _______ _____ _____    ______ ____
ROOT
ATOM      1  C   UNL     1       3.492   4.894  18.245  0.00  0.00    +0.000 A 
ATOM      2  C   UNL     1       3.733   3.996  17.201  0.00  0.00    +0.000 A 
ATOM      3  S   UNL     1       3.112   2.445  17.522  0.00  0.00    +0.000 S 
ATOM      4  C   UNL     1       2.537   2.901  19.044  0.00  0.00    +0.000 A 
ATOM      5  C   UNL     1       2.805   4.224  19.338  0.00  0.00    +0.000 A 
ATOM      6  C   UNL     1       2.359   4.821  20.648  0.00  0.00    +0.000 C 
ATOM      7  C   UNL     1       2.122   3.731  21.708  0.00  0.00    +0.000 C 
ATOM      8  C   UNL     1       1.234   2.606  21.162  0.00  0.00    +0.000 C 
ATOM      9  C   UNL     1       1.869   1.912  19.950  0.00  0.00    +0.000 C 
ENDROOT
BRANCH   2  10
ATOM     10  N   UNL     1       4.441   4.219  16.020  0.00  0.00    +0.000 N 
ATOM     11  C   UNL     1       5.822   4.240  15.901  0.00  0.00    +0.000 C 
ATOM     12  O   UNL     1       6.642   4.107  16.803  0.00  0.00    +0.000 OA
ATOM     13  H   UNL     1       3.914   4.114  15.165  0.00  0.00    +0.000 HD
BRANCH  11  14
ATOM     14  C   UNL     1       6.351   4.340  14.505  0.00  0.00    +0.000 A 
ATOM     15  C   UNL     1       7.399   5.189  14.146  0.00  0.00    +0.000 A 
ATOM     16  C   UNL     1       7.818   5.177  12.824  0.00  0.00    +0.000 A 
ATOM     17  N   UNL     1       7.273   4.398  11.868  0.00  0.00    +0.000 NA
ATOM     18  C   UNL     1       6.268   3.580  12.241  0.00  0.00    +0.000 A 
ATOM     19  C   UNL     1       5.775   3.517  13.531  0.00  0.00    +0.000 A 
ENDBRANCH  11  14
ENDBRANCH   2  10
BRANCH   1  20
ATOM     20  C   UNL     1       3.881   6.317  18.259  0.00  0.00    +0.000 C 
ATOM     21  O   UNL     1       5.036   6.678  18.064  0.00  0.00    +0.000 OA
BRANCH  20  26
ATOM     22  C   UNL     1       0.070  10.571  19.323  0.00  0.00    +0.000 C 
ATOM     23  C   UNL     1       1.033   9.452  19.050  0.00  0.00    +0.000 A 
ATOM     24  C   UNL     1       1.400   8.546  20.052  0.00  0.00    +0.000 A 
ATOM     25  C   UNL     1       2.306   7.515  19.779  0.00  0.00    +0.000 A 
ATOM     26  C   UNL     1       2.848   7.375  18.494  0.00  0.00    +0.000 A 
ATOM     27  C   UNL     1       2.441   8.251  17.481  0.00  0.00    +0.000 A 
ATOM     28  C   UNL     1       1.568   9.302  17.766  0.00  0.00    +0.000 A 
ENDBRANCH  20  26
ENDBRANCH   1  20
TORSDOF 4
ENDMDL
MODEL 2
REMARK VINA RESULT:      -8.3      5.962     10.369
REMARK  Name = 
REMARK  5 active torsions:
REMARK  status: ('A' for Active; 'I' for Inactive)
REMARK    1  A    between atoms: C_1  and  C_2
REMARK    2  A    between atoms: C_5  and  C_6
REMARK    3  A    between atoms: C_6  and  C_8
REMARK    4  A    between atoms: C_9  and  N_10
REMARK    5  A    between atoms: C_11  and  C_13
REMARK                            x       y       z     vdW  Elec       q    Type
REMARK                         _______ _______ _______ _____ _____    ______ ____
ROOT
ATOM      1  C   UNL     1       0.198  10.413  19.803  0.00  0.00    +0.000 A 
ATOM      2  C   UNL     1       0.004  10.233  21.175  0.00  0.00    +0.000 A 
ATOM      3  S   UNL     1       0.838   8.877  21.777  0.00  0.00    +0.000 S 
ATOM      4  C   UNL     1       1.450   8.476  20.254  0.00  0.00    +0.000 A 
ATOM      5  C   UNL     1       1.036   9.351  19.268  0.00  0.00    +0.000 A 
ATOM      6  C   UNL     1       1.489   9.165  17.842  0.00  0.00    +0.000 C 
ATOM      7  C   UNL     1       1.932   7.715  17.580  0.00  0.00    +0.000 C 
ATOM      8  C   UNL     1       2.918   7.232  18.652  0.00  0.00    +0.000 C 
ATOM      9  C   UNL     1       2.298   7.256  20.055  0.00  0.00    +0.000 C 
ENDROOT
BRANCH   2  10
ATOM     10  N   UNL     1      -0.803  10.977  22.036  0.00  0.00    +0.000 N 
ATOM     11  C   UNL     1      -0.601  12.304  22.383  0.00  0.00    +0.000 C 
ATOM     12  O   UNL     1       0.325  13.026  22.029  0.00  0.00    +0.000 OA
ATOM     13  H   UNL     1      -1.720  10.595  22.219  0.00  0.00    +0.000 HD
BRANCH  11  14
ATOM     14  C   UNL     1      -1.687  12.934  23.197  0.00  0.00    +0.000 A 
ATOM     15  C   UNL     1      -1.539  14.160  23.846  0.00  0.00    +0.000 A 
ATOM     16  C   UNL     1      -2.625  14.654  24.552  0.00  0.00    +0.000 A 
ATOM     17  N   UNL     1      -3.812  14.020  24.649  0.00  0.00    +0.000 NA
ATOM     18  C   UNL     1      -3.933  12.841  24.006  0.00  0.00    +0.000 A 
ATOM     19  C   UNL     1      -2.911  12.262  23.278  0.00  0.00    +0.000 A 
ENDBRANCH  11  14
ENDBRANCH   2  10
BRANCH   1  20
ATOM     20  C   UNL     1      -0.368  11.509  18.993  0.00  0.00    +0.000 C 
ATOM     21  O   UNL     1       0.327  12.416  18.549  0.00  0.00    +0.000 OA
BRANCH  20  26
ATOM     22  C   UNL     1      -6.058  11.297  17.841  0.00  0.00    +0.000 C 
ATOM     23  C   UNL     1      -4.584  11.368  18.115  0.00  0.00    +0.000 A 
ATOM     24  C   UNL     1      -3.660  10.690  17.311  0.00  0.00    +0.000 A 
ATOM     25  C   UNL     1      -2.290  10.763  17.588  0.00  0.00    +0.000 A 
ATOM     26  C   UNL     1      -1.830  11.525  18.671  0.00  0.00    +0.000 A 
ATOM     27  C   UNL     1      -2.750  12.243  19.443  0.00  0.00    +0.000 A 
ATOM     28  C   UNL     1      -4.119  12.136  19.188  0.00  0.00    +0.000 A 
ENDBRANCH  20  26
ENDBRANCH   1  20
TORSDOF 4
ENDMDL
MODEL 3
REMARK VINA RESULT:      -8.2      5.651     10.008
REMARK  Name = 
REMARK  5 active torsions:
REMARK  status: ('A' for Active; 'I' for Inactive)
REMARK    1  A    between atoms: C_1  and  C_2
REMARK    2  A    between atoms: C_5  and  C_6
REMARK    3  A    between atoms: C_6  and  C_8
REMARK    4  A    between atoms: C_9  and  N_10
REMARK    5  A    between atoms: C_11  and  C_13
REMARK                            x       y       z     vdW  Elec       q    Type
REMARK                         _______ _______ _______ _____ _____    ______ ____
ROOT
ATOM      1  C   UNL     1       0.500   9.992  19.725  0.00  0.00    +0.000 A 
ATOM      2  C   UNL     1       0.241   9.824  21.088  0.00  0.00    +0.000 A 
ATOM      3  S   UNL     1       1.014   8.453  21.734  0.00  0.00    +0.000 S 
ATOM      4  C   UNL     1       1.685   8.029  20.242  0.00  0.00    +0.000 A 
ATOM      5  C   UNL     1       1.336   8.907  19.234  0.00  0.00    +0.000 A 
ATOM      6  C   UNL     1       1.848   8.701  17.831  0.00  0.00    +0.000 C 
ATOM      7  C   UNL     1       2.268   7.240  17.597  0.00  0.00    +0.000 C 
ATOM      8  C   UNL     1       3.193   6.741  18.713  0.00  0.00    +0.000 C 
ATOM      9  C   UNL     1       2.511   6.788  20.087  0.00  0.00    +0.000 C 
ENDROOT
BRANCH   2  10
ATOM     10  N   UNL     1      -0.587  10.592  21.907  0.00  0.00    +0.000 N 
ATOM     11  C   UNL     1      -0.394  11.929  22.220  0.00  0.00    +0.000 C 
ATOM     12  O   UNL     1       0.539  12.642  21.865  0.00  0.00    +0.000 OA
ATOM     13  H   UNL     1      -1.507  10.214  22.082  0.00  0.00    +0.000 HD
BRANCH  11  14
ATOM     14  C   UNL     1      -1.499  12.581  22.989  0.00  0.00    +0.000 A 
ATOM     15  C   UNL     1      -2.710  11.946  23.270  0.00  0.00    +0.000 A 
ATOM     16  C   UNL     1      -3.650  12.643  24.013  0.00  0.00    +0.000 A 
ATOM     17  N   UNL     1      -3.465  13.895  24.479  0.00  0.00    +0.000 NA
ATOM     18  C   UNL     1      -2.283  14.484  24.203  0.00  0.00    +0.000 A 
ATOM     19  C   UNL     1      -1.282  13.877  23.469  0.00  0.00    +0.000 A 
ENDBRANCH  11  14
ENDBRANCH   2  10
BRANCH   1  20
ATOM     20  C   UNL     1      -0.003  11.095  18.885  0.00  0.00    +0.000 C 
ATOM     21  O   UNL     1       0.726  11.998  18.492  0.00  0.00    +0.000 OA
BRANCH  20  26
ATOM     22  C   UNL     1      -5.536  11.477  17.155  0.00  0.00    +0.000 C 
ATOM     23  C   UNL     1      -4.115  11.363  17.626  0.00  0.00    +0.000 A 
ATOM     24  C   UNL     1      -3.658  12.076  18.741  0.00  0.00    +0.000 A 
ATOM     25  C   UNL     1      -2.327  11.962  19.158  0.00  0.00    +0.000 A 
ATOM     26  C   UNL     1      -1.441  11.125  18.467  0.00  0.00    +0.000 A 
ATOM     27  C   UNL     1      -1.912  10.374  17.384  0.00  0.00    +0.000 A 
ATOM     28  C   UNL     1      -3.230  10.520  16.946  0.00  0.00    +0.000 A 
ENDBRANCH  20  26
ENDBRANCH   1  20
TORSDOF 4
ENDMDL
MODEL 4
REMARK VINA RESULT:      -7.8      5.501      9.420
REMARK  Name = 
REMARK  5 active torsions:
REMARK  status: ('A' for Active; 'I' for Inactive)
REMARK    1  A    between atoms: C_1  and  C_2
REMARK    2  A    between atoms: C_5  and  C_6
REMARK    3  A    between atoms: C_6  and  C_8
REMARK    4  A    between atoms: C_9  and  N_10
REMARK    5  A    between atoms: C_11  and  C_13
REMARK                            x       y       z     vdW  Elec       q    Type
REMARK                         _______ _______ _______ _____ _____    ______ ____
ROOT
ATOM      1  C   UNL     1       0.345  11.055  18.725  0.00  0.00    +0.000 A 
ATOM      2  C   UNL     1       0.347  12.181  19.553  0.00  0.00    +0.000 A 
ATOM      3  S   UNL     1      -1.212  12.823  19.783  0.00  0.00    +0.000 S 
ATOM      4  C   UNL     1      -1.925  11.662  18.784  0.00  0.00    +0.000 A 
ATOM      5  C   UNL     1      -1.005  10.775  18.259  0.00  0.00    +0.000 A 
ATOM      6  C   UNL     1      -1.452   9.658  17.351  0.00  0.00    +0.000 C 
ATOM      7  C   UNL     1      -2.815   9.969  16.709  0.00  0.00    +0.000 C 
ATOM      8  C   UNL     1      -3.839  10.410  17.763  0.00  0.00    +0.000 C 
ATOM      9  C   UNL     1      -3.396  11.683  18.496  0.00  0.00    +0.000 C 
ENDROOT
BRANCH   2  10
ATOM     10  N   UNL     1       1.443  12.826  20.127  0.00  0.00    +0.000 N 
ATOM     11  C   UNL     1       2.180  13.842  19.536  0.00  0.00    +0.000 C 
ATOM     12  O   UNL     1       2.020  14.312  18.415  0.00  0.00    +0.000 OA
ATOM     13  H   UNL     1       1.548  12.711  21.125  0.00  0.00    +0.000 HD
BRANCH  11  14
ATOM     14  C   UNL     1       3.210  14.485  20.408  0.00  0.00    +0.000 A 
ATOM     15  C   UNL     1       3.031  14.690  21.777  0.00  0.00    +0.000 A 
ATOM     16  C   UNL     1       4.068  15.275  22.486  0.00  0.00    +0.000 A 
ATOM     17  N   UNL     1       5.237  15.659  21.933  0.00  0.00    +0.000 NA
ATOM     18  C   UNL     1       5.390  15.443  20.611  0.00  0.00    +0.000 A 
ATOM     19  C   UNL     1       4.417  14.869  19.814  0.00  0.00    +0.000 A 
ENDBRANCH  11  14
ENDBRANCH   2  10
BRANCH   1  20
ATOM     20  C   UNL     1       1.531  10.260  18.356  0.00  0.00    +0.000 C 
ATOM     21  O   UNL     1       2.410  10.702  17.627  0.00  0.00    +0.000 OA
BRANCH  20  26
ATOM     22  C   UNL     1       2.478   4.928  20.462  0.00  0.00    +0.000 C 
ATOM     23  C   UNL     1       2.211   6.295  19.900  0.00  0.00    +0.000 A 
ATOM     24  C   UNL     1       2.531   6.613  18.575  0.00  0.00    +0.000 A 
ATOM     25  C   UNL     1       2.282   7.896  18.075  0.00  0.00    +0.000 A 
ATOM     26  C   UNL     1       1.700   8.873  18.895  0.00  0.00    +0.000 A 
ATOM     27  C   UNL     1       1.335   8.538  20.204  0.00  0.00    +0.000 A 
ATOM     28  C   UNL     1       1.621   7.269  20.713  0.00  0.00    +0.000 A 
ENDBRANCH  20  26
ENDBRANCH   1  20
TORSDOF 4
ENDMDL
MODEL 5
REMARK VINA RESULT:      -7.8      5.559      9.278
REMARK  Name = 
REMARK  5 active torsions:
REMARK  status: ('A' for Active; 'I' for Inactive)
REMARK    1  A    between atoms: C_1  and  C_2
REMARK    2  A    between atoms: C_5  and  C_6
REMARK    3  A    between atoms: C_6  and  C_8
REMARK    4  A    between atoms: C_9  and  N_10
REMARK    5  A    between atoms: C_11  and  C_13
REMARK                            x       y       z     vdW  Elec       q    Type
REMARK                         _______ _______ _______ _____ _____    ______ ____
ROOT
ATOM      1  C   UNL     1       0.363  11.048  18.681  0.00  0.00    +0.000 A 
ATOM      2  C   UNL     1       0.386  12.189  19.487  0.00  0.00    +0.000 A 
ATOM      3  S   UNL     1      -1.165  12.846  19.729  0.00  0.00    +0.000 S 
ATOM      4  C   UNL     1      -1.902  11.671  18.764  0.00  0.00    +0.000 A 
ATOM      5  C   UNL     1      -0.996  10.769  18.241  0.00  0.00    +0.000 A 
ATOM      6  C   UNL     1      -1.464   9.638  17.361  0.00  0.00    +0.000 C 
ATOM      7  C   UNL     1      -2.836   9.946  16.735  0.00  0.00    +0.000 C 
ATOM      8  C   UNL     1      -3.840  10.414  17.797  0.00  0.00    +0.000 C 
ATOM      9  C   UNL     1      -3.377  11.698  18.498  0.00  0.00    +0.000 C 
ENDROOT
BRANCH   2  10
ATOM     10  N   UNL     1       1.495  12.837  20.031  0.00  0.00    +0.000 N 
ATOM     11  C   UNL     1       2.363  13.667  19.338  0.00  0.00    +0.000 C 
ATOM     12  O   UNL     1       2.326  13.940  18.143  0.00  0.00    +0.000 OA
ATOM     13  H   UNL     1       1.519  12.895  21.039  0.00  0.00    +0.000 HD
BRANCH  11  14
ATOM     14  C   UNL     1       3.387  14.373  20.170  0.00  0.00    +0.000 A 
ATOM     15  C   UNL     1       3.705  13.990  21.474  0.00  0.00    +0.000 A 
ATOM     16  C   UNL     1       4.689  14.706  22.138  0.00  0.00    +0.000 A 
ATOM     17  N   UNL     1       5.354  15.750  21.600  0.00  0.00    +0.000 NA
ATOM     18  C   UNL     1       5.035  16.095  20.336  0.00  0.00    +0.000 A 
ATOM     19  C   UNL     1       4.068  15.447  19.589  0.00  0.00    +0.000 A 
ENDBRANCH  11  14
ENDBRANCH   2  10
BRANCH   1  20
ATOM     20  C   UNL     1       1.537  10.237  18.308  0.00  0.00    +0.000 C 
ATOM     21  O   UNL     1       2.370  10.630  17.500  0.00  0.00    +0.000 OA
BRANCH  20  26
ATOM     22  C   UNL     1       2.092   4.990  20.740  0.00  0.00    +0.000 C 
ATOM     23  C   UNL     1       1.970   6.356  20.130  0.00  0.00    +0.000 A 
ATOM     24  C   UNL     1       1.416   7.426  20.843  0.00  0.00    +0.000 A 
ATOM     25  C   UNL     1       1.304   8.689  20.252  0.00  0.00    +0.000 A 
ATOM     26  C   UNL     1       1.755   8.897  18.941  0.00  0.00    +0.000 A 
ATOM     27  C   UNL     1       2.354   7.840  18.248  0.00  0.00    +0.000 A 
ATOM     28  C   UNL     1       2.428   6.570  18.826  0.00  0.00    +0.000 A 
ENDBRANCH  20  26
ENDBRANCH   1  20
TORSDOF 4
ENDMDL
MODEL 6
REMARK VINA RESULT:      -7.8      5.981     10.310
REMARK  Name = 
REMARK  5 active torsions:
REMARK  status: ('A' for Active; 'I' for Inactive)
REMARK    1  A    between atoms: C_1  and  C_2
REMARK    2  A    between atoms: C_5  and  C_6
REMARK    3  A    between atoms: C_6  and  C_8
REMARK    4  A    between atoms: C_9  and  N_10
REMARK    5  A    between atoms: C_11  and  C_13
REMARK                            x       y       z     vdW  Elec       q    Type
REMARK                         _______ _______ _______ _____ _____    ______ ____
ROOT
ATOM      1  C   UNL     1       0.236  10.452  19.633  0.00  0.00    +0.000 A 
ATOM      2  C   UNL     1      -0.034  10.270  20.992  0.00  0.00    +0.000 A 
ATOM      3  S   UNL     1       0.749   8.902  21.634  0.00  0.00    +0.000 S 
ATOM      4  C   UNL     1       1.438   8.498  20.145  0.00  0.00    +0.000 A 
ATOM      5  C   UNL     1       1.088   9.381  19.141  0.00  0.00    +0.000 A 
ATOM      6  C   UNL     1       1.615   9.193  17.741  0.00  0.00    +0.000 C 
ATOM      7  C   UNL     1       2.055   7.739  17.498  0.00  0.00    +0.000 C 
ATOM      8  C   UNL     1       2.975   7.241  18.619  0.00  0.00    +0.000 C 
ATOM      9  C   UNL     1       2.280   7.268  19.987  0.00  0.00    +0.000 C 
ENDROOT
BRANCH   2  10
ATOM     10  N   UNL     1      -0.877  11.021  21.811  0.00  0.00    +0.000 N 
ATOM     11  C   UNL     1      -0.612  12.296  22.287  0.00  0.00    +0.000 C 
ATOM     12  O   UNL     1       0.407  12.954  22.103  0.00  0.00    +0.000 OA
ATOM     13  H   UNL     1      -1.838  10.713  21.854  0.00  0.00    +0.000 HD
BRANCH  11  14
ATOM     14  C   UNL     1      -1.734  12.962  23.017  0.00  0.00    +0.000 A 
ATOM     15  C   UNL     1      -1.715  14.310  23.380  0.00  0.00    +0.000 A 
ATOM     16  C   UNL     1      -2.825  14.821  24.033  0.00  0.00    +0.000 A 
ATOM     17  N   UNL     1      -3.920  14.095  24.340  0.00  0.00    +0.000 NA
ATOM     18  C   UNL     1      -3.919  12.798  23.971  0.00  0.00    +0.000 A 
ATOM     19  C   UNL     1      -2.862  12.192  23.318  0.00  0.00    +0.000 A 
ENDBRANCH  11  14
ENDBRANCH   2  10
BRANCH   1  20
ATOM     20  C   UNL     1      -0.272  11.557  18.798  0.00  0.00    +0.000 C 
ATOM     21  O   UNL     1      -1.318  11.468  18.167  0.00  0.00    +0.000 OA
BRANCH  20  26
ATOM     22  C   UNL     1       2.628  16.591  18.788  0.00  0.00    +0.000 C 
ATOM     23  C   UNL     1       1.867  15.298  18.764  0.00  0.00    +0.000 A 
ATOM     24  C   UNL     1       0.474  15.269  18.899  0.00  0.00    +0.000 A 
ATOM     25  C   UNL     1      -0.215  14.051  18.882  0.00  0.00    +0.000 A 
ATOM     26  C   UNL     1       0.485  12.847  18.721  0.00  0.00    +0.000 A 
ATOM     27  C   UNL     1       1.872  12.881  18.536  0.00  0.00    +0.000 A 
ATOM     28  C   UNL     1       2.561  14.095  18.592  0.00  0.00    +0.000 A 
ENDBRANCH  20  26
ENDBRANCH   1  20
TORSDOF 4
ENDMDL
MODEL 7
REMARK VINA RESULT:      -7.8      5.102      9.272
REMARK  Name = 
REMARK  5 active torsions:
REMARK  status: ('A' for Active; 'I' for Inactive)
REMARK    1  A    between atoms: C_1  and  C_2
REMARK    2  A    between atoms: C_5  and  C_6
REMARK    3  A    between atoms: C_6  and  C_8
REMARK    4  A    between atoms: C_9  and  N_10
REMARK    5  A    between atoms: C_11  and  C_13
REMARK                            x       y       z     vdW  Elec       q    Type
REMARK                         _______ _______ _______ _____ _____    ______ ____
ROOT
ATOM      1  C   UNL     1       1.044   9.302  19.479  0.00  0.00    +0.000 A 
ATOM      2  C   UNL     1       0.524   9.215  20.774  0.00  0.00    +0.000 A 
ATOM      3  S   UNL     1       1.053   7.822  21.596  0.00  0.00    +0.000 S 
ATOM      4  C   UNL     1       1.952   7.283  20.271  0.00  0.00    +0.000 A 
ATOM      5  C   UNL     1       1.867   8.138  19.188  0.00  0.00    +0.000 A 
ATOM      6  C   UNL     1       2.612   7.833  17.914  0.00  0.00    +0.000 C 
ATOM      7  C   UNL     1       2.951   6.336  17.808  0.00  0.00    +0.000 C 
ATOM      8  C   UNL     1       3.611   5.822  19.094  0.00  0.00    +0.000 C 
ATOM      9  C   UNL     1       2.692   5.980  20.312  0.00  0.00    +0.000 C 
ENDROOT
BRANCH   2  10
ATOM     10  N   UNL     1      -0.377  10.077  21.399  0.00  0.00    +0.000 N 
ATOM     11  C   UNL     1      -0.107  11.381  21.787  0.00  0.00    +0.000 C 
ATOM     12  O   UNL     1       0.961  11.975  21.682  0.00  0.00    +0.000 OA
ATOM     13  H   UNL     1      -1.350   9.814  21.341  0.00  0.00    +0.000 HD
BRANCH  11  14
ATOM     14  C   UNL     1      -1.278  12.161  22.295  0.00  0.00    +0.000 A 
ATOM     15  C   UNL     1      -1.608  13.434  21.826  0.00  0.00    +0.000 A 
ATOM     16  C   UNL     1      -2.731  14.049  22.357  0.00  0.00    +0.000 A 
ATOM     17  N   UNL     1      -3.520  13.493  23.298  0.00  0.00    +0.000 NA
ATOM     18  C   UNL     1      -3.186  12.259  23.729  0.00  0.00    +0.000 A 
ATOM     19  C   UNL     1      -2.086  11.561  23.266  0.00  0.00    +0.000 A 
ENDBRANCH  11  14
ENDBRANCH   2  10
BRANCH   1  20
ATOM     20  C   UNL     1       0.795  10.400  18.527  0.00  0.00    +0.000 C 
ATOM     21  O   UNL     1       1.703  11.088  18.075  0.00  0.00    +0.000 OA
BRANCH  20  26
ATOM     22  C   UNL     1      -4.711  11.319  16.918  0.00  0.00    +0.000 C 
ATOM     23  C   UNL     1      -3.280  11.085  17.305  0.00  0.00    +0.000 A 
ATOM     24  C   UNL     1      -2.594   9.934  16.902  0.00  0.00    +0.000 A 
ATOM     25  C   UNL     1      -1.262   9.732  17.281  0.00  0.00    +0.000 A 
ATOM     26  C   UNL     1      -0.599  10.689  18.063  0.00  0.00    +0.000 A 
ATOM     27  C   UNL     1      -1.271  11.863  18.423  0.00  0.00    +0.000 A 
ATOM     28  C   UNL     1      -2.611  12.042  18.076  0.00  0.00    +0.000 A 
ENDBRANCH  20  26
ENDBRANCH   1  20
TORSDOF 4
ENDMDL
MODEL 8
REMARK VINA RESULT:      -7.8      6.006     10.396
REMARK  Name = 
REMARK  5 active torsions:
REMARK  status: ('A' for Active; 'I' for Inactive)
REMARK    1  A    between atoms: C_1  and  C_2
REMARK    2  A    between atoms: C_5  and  C_6
REMARK    3  A    between atoms: C_6  and  C_8
REMARK    4  A    between atoms: C_9  and  N_10
REMARK    5  A    between atoms: C_11  and  C_13
REMARK                            x       y       z     vdW  Elec       q    Type
REMARK                         _______ _______ _______ _____ _____    ______ ____
ROOT
ATOM      1  C   UNL     1       0.231  10.474  19.710  0.00  0.00    +0.000 A 
ATOM      2  C   UNL     1      -0.098  10.239  21.047  0.00  0.00    +0.000 A 
ATOM      3  S   UNL     1       0.636   8.832  21.661  0.00  0.00    +0.000 S 
ATOM      4  C   UNL     1       1.381   8.480  20.186  0.00  0.00    +0.000 A 
ATOM      5  C   UNL     1       1.088   9.410  19.207  0.00  0.00    +0.000 A 
ATOM      6  C   UNL     1       1.670   9.274  17.824  0.00  0.00    +0.000 C 
ATOM      7  C   UNL     1       2.097   7.823  17.537  0.00  0.00    +0.000 C 
ATOM      8  C   UNL     1       2.962   7.263  18.673  0.00  0.00    +0.000 C 
ATOM      9  C   UNL     1       2.210   7.244  20.010  0.00  0.00    +0.000 C 
ENDROOT
BRANCH   2  10
ATOM     10  N   UNL     1      -0.964  10.969  21.861  0.00  0.00    +0.000 N 
ATOM     11  C   UNL     1      -0.700  12.220  22.400  0.00  0.00    +0.000 C 
ATOM     12  O   UNL     1       0.334  12.869  22.284  0.00  0.00    +0.000 OA
ATOM     13  H   UNL     1      -1.930  10.674  21.854  0.00  0.00    +0.000 HD
BRANCH  11  14
ATOM     14  C   UNL     1      -1.843  12.873  23.111  0.00  0.00    +0.000 A 
ATOM     15  C   UNL     1      -3.099  12.278  23.243  0.00  0.00    +0.000 A 
ATOM     16  C   UNL     1      -4.073  12.971  23.945  0.00  0.00    +0.000 A 
ATOM     17  N   UNL     1      -3.880  14.183  24.506  0.00  0.00    +0.000 NA
ATOM     18  C   UNL     1      -2.655  14.732  24.373  0.00  0.00    +0.000 A 
ATOM     19  C   UNL     1      -1.617  14.126  23.691  0.00  0.00    +0.000 A 
ENDBRANCH  11  14
ENDBRANCH   2  10
BRANCH   1  20
ATOM     20  C   UNL     1      -0.223  11.622  18.903  0.00  0.00    +0.000 C 
ATOM     21  O   UNL     1      -1.268  11.596  18.264  0.00  0.00    +0.000 OA
BRANCH  20  26
ATOM     22  C   UNL     1       2.932  16.481  18.465  0.00  0.00    +0.000 C 
ATOM     23  C   UNL     1       2.131  15.219  18.603  0.00  0.00    +0.000 A 
ATOM     24  C   UNL     1       2.714  13.961  18.406  0.00  0.00    +0.000 A 
ATOM     25  C   UNL     1       1.947  12.797  18.531  0.00  0.00    +0.000 A 
ATOM     26  C   UNL     1       0.588  12.880  18.865  0.00  0.00    +0.000 A 
ATOM     27  C   UNL     1       0.020  14.135  19.111  0.00  0.00    +0.000 A 
ATOM     28  C   UNL     1       0.777  15.297  18.946  0.00  0.00    +0.000 A 
ENDBRANCH  20  26
ENDBRANCH   1  20
TORSDOF 4
ENDMDL
MODEL 9
REMARK VINA RESULT:      -7.6      5.888     10.226
REMARK  Name = 
REMARK  5 active torsions:
REMARK  status: ('A' for Active; 'I' for Inactive)
REMARK    1  A    between atoms: C_1  and  C_2
REMARK    2  A    between atoms: C_5  and  C_6
REMARK    3  A    between atoms: C_6  and  C_8
REMARK    4  A    between atoms: C_9  and  N_10
REMARK    5  A    between atoms: C_11  and  C_13
REMARK                            x       y       z     vdW  Elec       q    Type
REMARK                         _______ _______ _______ _____ _____    ______ ____
ROOT
ATOM      1  C   UNL     1      -0.164  11.502  19.084  0.00  0.00    +0.000 A 
ATOM      2  C   UNL     1      -0.442  12.489  20.032  0.00  0.00    +0.000 A 
ATOM      3  S   UNL     1      -2.102  12.851  20.129  0.00  0.00    +0.000 S 
ATOM      4  C   UNL     1      -2.496  11.744  18.914  0.00  0.00    +0.000 A 
ATOM      5  C   UNL     1      -1.388  11.088  18.413  0.00  0.00    +0.000 A 
ATOM      6  C   UNL     1      -1.538  10.053  17.328  0.00  0.00    +0.000 C 
ATOM      7  C   UNL     1      -2.855  10.240  16.554  0.00  0.00    +0.000 C 
ATOM      8  C   UNL     1      -4.048  10.371  17.508  0.00  0.00    +0.000 C 
ATOM      9  C   UNL     1      -3.908  11.583  18.439  0.00  0.00    +0.000 C 
ENDROOT
BRANCH   2  10
ATOM     10  N   UNL     1       0.460  13.206  20.818  0.00  0.00    +0.000 N 
ATOM     11  C   UNL     1       1.172  14.324  20.410  0.00  0.00    +0.000 C 
ATOM     12  O   UNL     1       1.159  14.841  19.298  0.00  0.00    +0.000 OA
ATOM     13  H   UNL     1       0.403  13.044  21.813  0.00  0.00    +0.000 HD
BRANCH  11  14
ATOM     14  C   UNL     1       1.960  15.016  21.478  0.00  0.00    +0.000 A 
ATOM     15  C   UNL     1       3.315  14.774  21.703  0.00  0.00    +0.000 A 
ATOM     16  C   UNL     1       3.944  15.494  22.707  0.00  0.00    +0.000 A 
ATOM     17  N   UNL     1       3.324  16.411  23.478  0.00  0.00    +0.000 NA
ATOM     18  C   UNL     1       2.017  16.635  23.234  0.00  0.00    +0.000 A 
ATOM     19  C   UNL     1       1.298  15.969  22.259  0.00  0.00    +0.000 A 
ENDBRANCH  11  14
ENDBRANCH   2  10
BRANCH   1  20
ATOM     20  C   UNL     1       1.171  10.953  18.782  0.00  0.00    +0.000 C 
ATOM     21  O   UNL     1       2.068  11.643  18.312  0.00  0.00    +0.000 OA
BRANCH  20  26
ATOM     22  C   UNL     1       2.631   5.445  19.919  0.00  0.00    +0.000 C 
ATOM     23  C   UNL     1       2.232   6.858  19.608  0.00  0.00    +0.000 A 
ATOM     24  C   UNL     1       2.448   7.414  18.342  0.00  0.00    +0.000 A 
ATOM     25  C   UNL     1       2.076   8.737  18.075  0.00  0.00    +0.000 A 
ATOM     26  C   UNL     1       1.474   9.515  19.073  0.00  0.00    +0.000 A 
ATOM     27  C   UNL     1       1.213   8.942  20.323  0.00  0.00    +0.000 A 
ATOM     28  C   UNL     1       1.621   7.635  20.598  0.00  0.00    +0.000 A 
ENDBRANCH  20  26
ENDBRANCH   1  20
TORSDOF 4
ENDMDL
