MODEL 1
REMARK VINA RESULT:      -7.5      0.000      0.000
REMARK  Name = 
REMARK  9 active torsions:
REMARK  status: ('A' for Active; 'I' for Inactive)
REMARK    1  A    between atoms: C_1  and  C_2
REMARK    2  A    between atoms: C_2  and  C_3
REMARK    3  A    between atoms: C_2  and  N_10
REMARK    4  A    between atoms: C_3  and  C_4
REMARK    5  A    between atoms: C_4  and  C_5
REMARK    6  A    between atoms: N_10  and  C_11
REMARK    7  A    between atoms: N_10  and  S_12
REMARK    8  A    between atoms: S_12  and  C_15
REMARK    9  A    between atoms: C_18  and  C_19
REMARK                            x       y       z     vdW  Elec       q    Type
REMARK                         _______ _______ _______ _____ _____    ______ ____
ROOT
ATOM      1  S   UNL     1       3.299   2.934  17.903  0.00  0.00    +0.000 S 
ATOM      2  O   UNL     1       3.643   1.533  17.834  0.00  0.00    +0.000 OA
ATOM      3  O   UNL     1       2.219   3.466  17.096  0.00  0.00    +0.000 OA
ENDROOT
BRANCH   1   4
ATOM      4  C   UNL     1       4.708   3.762  17.306  0.00  0.00    +0.000 A 
ATOM      5  C   UNL     1       5.503   4.608  18.047  0.00  0.00    +0.000 A 
ATOM      6  S   UNL     1       6.744   5.307  17.091  0.00  0.00    +0.000 S 
ATOM      7  C   UNL     1       6.227   4.478  15.680  0.00  0.00    +0.000 A 
ATOM      8  C   UNL     1       5.134   3.679  15.948  0.00  0.00    +0.000 A 
BRANCH   7   9
ATOM      9  C   UNL     1       6.876   4.629  14.386  0.00  0.00    +0.000 C 
ATOM     10  N   UNL     1       6.492   3.786  13.388  0.00  0.00    +0.000 N 
ATOM     11  O   UNL     1       7.749   5.466  14.159  0.00  0.00    +0.000 OA
ATOM     12  H   UNL     1       5.757   3.105  13.510  0.00  0.00    +0.000 HD
ATOM     13  H   UNL     1       6.918   3.909  12.481  0.00  0.00    +0.000 HD
ENDBRANCH   7   9
ENDBRANCH   1   4
BRANCH   1  14
ATOM     14  N   UNL     1       3.062   3.470  19.535  0.00  0.00    +0.000 NA
ATOM     15  C   UNL     1       3.699   2.517  20.497  0.00  0.00    +0.000 C 
BRANCH  14  17
ATOM     16  C   UNL     1       1.218   3.098  21.186  0.00  0.00    +0.000 C 
ATOM     17  C   UNL     1       1.688   3.943  19.984  0.00  0.00    +0.000 C 
BRANCH  17  18
ATOM     18  C   UNL     1       1.696   5.427  20.398  0.00  0.00    +0.000 C 
BRANCH  18  19
ATOM     19  C   UNL     1       2.825   6.279  19.810  0.00  0.00    +0.000 C 
BRANCH  19  20
ATOM     20  C   UNL     1       2.268   7.524  19.213  0.00  0.00    +0.000 A 
ATOM     21  C   UNL     1       2.270   8.034  17.931  0.00  0.00    +0.000 A 
ATOM     22  C   UNL     1       1.550   9.249  17.986  0.00  0.00    +0.000 A 
ATOM     23  C   UNL     1       1.156   9.401  19.296  0.00  0.00    +0.000 A 
ATOM     24  O   UNL     1       1.589   8.357  20.049  0.00  0.00    +0.000 OA
ENDBRANCH  19  20
ENDBRANCH  18  19
ENDBRANCH  17  18
ENDBRANCH  14  17
ENDBRANCH   1  14
TORSDOF 7
ENDMDL
MODEL 2
REMARK VINA RESULT:      -7.2      0.699      1.036
REMARK  Name = 
REMARK  9 active torsions:
REMARK  status: ('A' for Active; 'I' for Inactive)
REMARK    1  A    between atoms: C_1  and  C_2
REMARK    2  A    between atoms: C_2  and  C_3
REMARK    3  A    between atoms: C_2  and  N_10
REMARK    4  A    between atoms: C_3  and  C_4
REMARK    5  A    between atoms: C_4  and  C_5
REMARK    6  A    between atoms: N_10  and  C_11
REMARK    7  A    between atoms: N_10  and  S_12
REMARK    8  A    between atoms: S_12  and  C_15
REMARK    9  A    between atoms: C_18  and  C_19
REMARK                            x       y       z     vdW  Elec       q    Type
REMARK                         _______ _______ _______ _____ _____    ______ ____
ROOT
ATOM      1  S   UNL     1       3.158   3.069  17.933  0.00  0.00    +0.000 S 
ATOM      2  O   UNL     1       3.438   1.664  17.746  0.00  0.00    +0.000 OA
ATOM      3  O   UNL     1       2.062   3.699  17.224  0.00  0.00    +0.000 OA
ENDROOT
BRANCH   1   4
ATOM      4  C   UNL     1       4.569   3.883  17.322  0.00  0.00    +0.000 A 
ATOM      5  C   UNL     1       5.322   4.798  18.024  0.00  0.00    +0.000 A 
ATOM      6  S   UNL     1       6.579   5.454  17.059  0.00  0.00    +0.000 S 
ATOM      7  C   UNL     1       6.126   4.514  15.696  0.00  0.00    +0.000 A 
ATOM      8  C   UNL     1       5.041   3.712  15.987  0.00  0.00    +0.000 A 
BRANCH   7   9
ATOM      9  C   UNL     1       6.815   4.585  14.415  0.00  0.00    +0.000 C 
ATOM     10  N   UNL     1       6.489   3.656  13.475  0.00  0.00    +0.000 N 
ATOM     11  O   UNL     1       7.670   5.429  14.152  0.00  0.00    +0.000 OA
ATOM     12  H   UNL     1       5.771   2.963  13.627  0.00  0.00    +0.000 HD
ATOM     13  H   UNL     1       6.942   3.722  12.575  0.00  0.00    +0.000 HD
ENDBRANCH   7   9
ENDBRANCH   1   4
BRANCH   1  14
ATOM     14  N   UNL     1       3.027   3.492  19.609  0.00  0.00    +0.000 NA
ATOM     15  C   UNL     1       3.730   2.483  20.461  0.00  0.00    +0.000 C 
BRANCH  14  17
ATOM     16  C   UNL     1       1.276   2.966  21.319  0.00  0.00    +0.000 C 
ATOM     17  C   UNL     1       1.683   3.922  20.178  0.00  0.00    +0.000 C 
BRANCH  17  18
ATOM     18  C   UNL     1       1.724   5.360  20.730  0.00  0.00    +0.000 C 
BRANCH  18  19
ATOM     19  C   UNL     1       2.348   6.412  19.809  0.00  0.00    +0.000 C 
BRANCH  19  20
ATOM     20  C   UNL     1       1.723   7.741  20.053  0.00  0.00    +0.000 A 
ATOM     21  C   UNL     1       1.131   8.312  21.160  0.00  0.00    +0.000 A 
ATOM     22  C   UNL     1       0.750   9.618  20.778  0.00  0.00    +0.000 A 
ATOM     23  C   UNL     1       1.134   9.759  19.465  0.00  0.00    +0.000 A 
ATOM     24  O   UNL     1       1.725   8.622  19.015  0.00  0.00    +0.000 OA
ENDBRANCH  19  20
ENDBRANCH  18  19
ENDBRANCH  17  18
ENDBRANCH  14  17
ENDBRANCH   1  14
TORSDOF 7
ENDMDL
MODEL 3
REMARK VINA RESULT:      -7.2      2.071      2.316
REMARK  Name = 
REMARK  9 active torsions:
REMARK  status: ('A' for Active; 'I' for Inactive)
REMARK    1  A    between atoms: C_1  and  C_2
REMARK    2  A    between atoms: C_2  and  C_3
REMARK    3  A    between atoms: C_2  and  N_10
REMARK    4  A    between atoms: C_3  and  C_4
REMARK    5  A    between atoms: C_4  and  C_5
REMARK    6  A    between atoms: N_10  and  C_11
REMARK    7  A    between atoms: N_10  and  S_12
REMARK    8  A    between atoms: S_12  and  C_15
REMARK    9  A    between atoms: C_18  and  C_19
REMARK                            x       y       z     vdW  Elec       q    Type
REMARK                         _______ _______ _______ _____ _____    ______ ____
ROOT
ATOM      1  S   UNL     1       4.128   2.872  19.282  0.00  0.00    +0.000 S 
ATOM      2  O   UNL     1       5.248   2.309  20.000  0.00  0.00    +0.000 OA
ATOM      3  O   UNL     1       3.359   2.056  18.364  0.00  0.00    +0.000 OA
ENDROOT
BRANCH   1   4
ATOM      4  C   UNL     1       4.830   4.094  18.261  0.00  0.00    +0.000 A 
ATOM      5  C   UNL     1       4.486   4.321  16.946  0.00  0.00    +0.000 A 
ATOM      6  S   UNL     1       5.459   5.546  16.243  0.00  0.00    +0.000 S 
ATOM      7  C   UNL     1       6.343   5.783  17.695  0.00  0.00    +0.000 A 
ATOM      8  C   UNL     1       5.889   4.945  18.693  0.00  0.00    +0.000 A 
BRANCH   7   9
ATOM      9  C   UNL     1       7.428   6.747  17.818  0.00  0.00    +0.000 C 
ATOM     10  N   UNL     1       8.192   6.692  18.943  0.00  0.00    +0.000 N 
ATOM     11  O   UNL     1       7.676   7.600  16.967  0.00  0.00    +0.000 OA
ATOM     12  H   UNL     1       8.053   5.990  19.656  0.00  0.00    +0.000 HD
ATOM     13  H   UNL     1       8.964   7.338  19.017  0.00  0.00    +0.000 HD
ENDBRANCH   7   9
ENDBRANCH   1   4
BRANCH   1  14
ATOM     14  N   UNL     1       3.017   3.685  20.336  0.00  0.00    +0.000 NA
ATOM     15  C   UNL     1       2.575   2.773  21.437  0.00  0.00    +0.000 C 
BRANCH  14  17
ATOM     16  C   UNL     1       0.530   3.961  20.262  0.00  0.00    +0.000 C 
ATOM     17  C   UNL     1       1.879   4.506  19.749  0.00  0.00    +0.000 C 
BRANCH  17  18
ATOM     18  C   UNL     1       1.986   5.995  20.129  0.00  0.00    +0.000 C 
BRANCH  18  19
ATOM     19  C   UNL     1       2.715   6.891  19.123  0.00  0.00    +0.000 C 
BRANCH  19  20
ATOM     20  C   UNL     1       1.968   8.165  18.938  0.00  0.00    +0.000 A 
ATOM     21  C   UNL     1       1.701   8.946  17.832  0.00  0.00    +0.000 A 
ATOM     22  C   UNL     1       0.914  10.027  18.290  0.00  0.00    +0.000 A 
ATOM     23  C   UNL     1       0.751   9.835  19.643  0.00  0.00    +0.000 A 
ATOM     24  O   UNL     1       1.391   8.707  20.045  0.00  0.00    +0.000 OA
ENDBRANCH  19  20
ENDBRANCH  18  19
ENDBRANCH  17  18
ENDBRANCH  14  17
ENDBRANCH   1  14
TORSDOF 7
ENDMDL
MODEL 4
REMARK VINA RESULT:      -7.1      1.428      1.603
REMARK  Name = 
REMARK  9 active torsions:
REMARK  status: ('A' for Active; 'I' for Inactive)
REMARK    1  A    between atoms: C_1  and  C_2
REMARK    2  A    between atoms: C_2  and  C_3
REMARK    3  A    between atoms: C_2  and  N_10
REMARK    4  A    between atoms: C_3  and  C_4
REMARK    5  A    between atoms: C_4  and  C_5
REMARK    6  A    between atoms: N_10  and  C_11
REMARK    7  A    between atoms: N_10  and  S_12
REMARK    8  A    between atoms: S_12  and  C_15
REMARK    9  A    between atoms: C_18  and  C_19
REMARK                            x       y       z     vdW  Elec       q    Type
REMARK                         _______ _______ _______ _____ _____    ______ ____
ROOT
ATOM      1  S   UNL     1       4.202   2.617  19.590  0.00  0.00    +0.000 S 
ATOM      2  O   UNL     1       5.186   1.990  20.442  0.00  0.00    +0.000 OA
ATOM      3  O   UNL     1       3.527   1.851  18.561  0.00  0.00    +0.000 OA
ENDROOT
BRANCH   1   4
ATOM      4  C   UNL     1       5.093   3.814  18.696  0.00  0.00    +0.000 A 
ATOM      5  C   UNL     1       6.000   4.696  19.240  0.00  0.00    +0.000 A 
ATOM      6  S   UNL     1       6.606   5.785  18.061  0.00  0.00    +0.000 S 
ATOM      7  C   UNL     1       5.661   5.080  16.814  0.00  0.00    +0.000 A 
ATOM      8  C   UNL     1       4.909   4.029  17.298  0.00  0.00    +0.000 A 
BRANCH   7   9
ATOM      9  C   UNL     1       5.671   5.560  15.440  0.00  0.00    +0.000 C 
ATOM     10  N   UNL     1       5.160   6.799  15.204  0.00  0.00    +0.000 N 
ATOM     11  O   UNL     1       6.107   4.902  14.496  0.00  0.00    +0.000 OA
ATOM     12  H   UNL     1       4.822   7.394  15.946  0.00  0.00    +0.000 HD
ATOM     13  H   UNL     1       5.195   7.147  14.257  0.00  0.00    +0.000 HD
ENDBRANCH   7   9
ENDBRANCH   1   4
BRANCH   1  14
ATOM     14  N   UNL     1       2.998   3.470  20.500  0.00  0.00    +0.000 NA
ATOM     15  C   UNL     1       2.477   2.616  21.613  0.00  0.00    +0.000 C 
BRANCH  14  17
ATOM     16  C   UNL     1       0.531   3.614  20.102  0.00  0.00    +0.000 C 
ATOM     17  C   UNL     1       1.903   4.238  19.774  0.00  0.00    +0.000 C 
BRANCH  17  18
ATOM     18  C   UNL     1       1.877   5.725  20.176  0.00  0.00    +0.000 C 
BRANCH  18  19
ATOM     19  C   UNL     1       2.846   6.639  19.419  0.00  0.00    +0.000 C 
BRANCH  19  20
ATOM     20  C   UNL     1       2.157   7.896  19.020  0.00  0.00    +0.000 A 
ATOM     21  C   UNL     1       2.047   8.568  17.821  0.00  0.00    +0.000 A 
ATOM     22  C   UNL     1       1.234   9.697  18.070  0.00  0.00    +0.000 A 
ATOM     23  C   UNL     1       0.898   9.639  19.403  0.00  0.00    +0.000 A 
ATOM     24  O   UNL     1       1.457   8.549  19.989  0.00  0.00    +0.000 OA
ENDBRANCH  19  20
ENDBRANCH  18  19
ENDBRANCH  17  18
ENDBRANCH  14  17
ENDBRANCH   1  14
TORSDOF 7
ENDMDL
MODEL 5
REMARK VINA RESULT:      -7.1      2.083      2.451
REMARK  Name = 
REMARK  9 active torsions:
REMARK  status: ('A' for Active; 'I' for Inactive)
REMARK    1  A    between atoms: C_1  and  C_2
REMARK    2  A    between atoms: C_2  and  C_3
REMARK    3  A    between atoms: C_2  and  N_10
REMARK    4  A    between atoms: C_3  and  C_4
REMARK    5  A    between atoms: C_4  and  C_5
REMARK    6  A    between atoms: N_10  and  C_11
REMARK    7  A    between atoms: N_10  and  S_12
REMARK    8  A    between atoms: S_12  and  C_15
REMARK    9  A    between atoms: C_18  and  C_19
REMARK                            x       y       z     vdW  Elec       q    Type
REMARK                         _______ _______ _______ _____ _____    ______ ____
ROOT
ATOM      1  S   UNL     1       4.007   2.491  19.597  0.00  0.00    +0.000 S 
ATOM      2  O   UNL     1       5.152   2.033  20.350  0.00  0.00    +0.000 OA
ATOM      3  O   UNL     1       3.249   1.566  18.779  0.00  0.00    +0.000 OA
ENDROOT
BRANCH   1   4
ATOM      4  C   UNL     1       4.662   3.620  18.446  0.00  0.00    +0.000 A 
ATOM      5  C   UNL     1       4.256   3.740  17.135  0.00  0.00    +0.000 A 
ATOM      6  S   UNL     1       5.196   4.897  16.286  0.00  0.00    +0.000 S 
ATOM      7  C   UNL     1       6.149   5.248  17.670  0.00  0.00    +0.000 A 
ATOM      8  C   UNL     1       5.742   4.498  18.754  0.00  0.00    +0.000 A 
BRANCH   7   9
ATOM      9  C   UNL     1       7.241   6.211  17.660  0.00  0.00    +0.000 C 
ATOM     10  N   UNL     1       7.631   6.706  16.453  0.00  0.00    +0.000 N 
ATOM     11  O   UNL     1       7.823   6.586  18.677  0.00  0.00    +0.000 OA
ATOM     12  H   UNL     1       7.166   6.458  15.592  0.00  0.00    +0.000 HD
ATOM     13  H   UNL     1       8.366   7.398  16.446  0.00  0.00    +0.000 HD
ENDBRANCH   7   9
ENDBRANCH   1   4
BRANCH   1  14
ATOM     14  N   UNL     1       2.890   3.378  20.582  0.00  0.00    +0.000 NA
ATOM     15  C   UNL     1       2.361   2.515  21.683  0.00  0.00    +0.000 C 
BRANCH  14  17
ATOM     16  C   UNL     1       0.462   3.495  19.981  0.00  0.00    +0.000 C 
ATOM     17  C   UNL     1       1.816   4.233  19.925  0.00  0.00    +0.000 C 
BRANCH  17  18
ATOM     18  C   UNL     1       1.661   5.599  20.620  0.00  0.00    +0.000 C 
BRANCH  18  19
ATOM     19  C   UNL     1       2.324   6.787  19.915  0.00  0.00    +0.000 C 
BRANCH  19  20
ATOM     20  C   UNL     1       1.648   8.055  20.304  0.00  0.00    +0.000 A 
ATOM     21  C   UNL     1       1.235   8.566  21.517  0.00  0.00    +0.000 A 
ATOM     22  C   UNL     1       0.679   9.836  21.244  0.00  0.00    +0.000 A 
ATOM     23  C   UNL     1       0.790  10.018  19.885  0.00  0.00    +0.000 A 
ATOM     24  O   UNL     1       1.376   8.939  19.306  0.00  0.00    +0.000 OA
ENDBRANCH  19  20
ENDBRANCH  18  19
ENDBRANCH  17  18
ENDBRANCH  14  17
ENDBRANCH   1  14
TORSDOF 7
ENDMDL
MODEL 6
REMARK VINA RESULT:      -7.0      2.695      4.763
REMARK  Name = 
REMARK  9 active torsions:
REMARK  status: ('A' for Active; 'I' for Inactive)
REMARK    1  A    between atoms: C_1  and  C_2
REMARK    2  A    between atoms: C_2  and  C_3
REMARK    3  A    between atoms: C_2  and  N_10
REMARK    4  A    between atoms: C_3  and  C_4
REMARK    5  A    between atoms: C_4  and  C_5
REMARK    6  A    between atoms: N_10  and  C_11
REMARK    7  A    between atoms: N_10  and  S_12
REMARK    8  A    between atoms: S_12  and  C_15
REMARK    9  A    between atoms: C_18  and  C_19
REMARK                            x       y       z     vdW  Elec       q    Type
REMARK                         _______ _______ _______ _____ _____    ______ ____
ROOT
ATOM      1  S   UNL     1       6.745   5.281  16.187  0.00  0.00    +0.000 S 
ATOM      2  O   UNL     1       7.557   6.475  16.230  0.00  0.00    +0.000 OA
ATOM      3  O   UNL     1       7.131   4.103  16.938  0.00  0.00    +0.000 OA
ENDROOT
BRANCH   1   4
ATOM      4  C   UNL     1       6.822   4.757  14.529  0.00  0.00    +0.000 A 
ATOM      5  C   UNL     1       7.688   5.253  13.581  0.00  0.00    +0.000 A 
ATOM      6  S   UNL     1       7.403   4.556  12.040  0.00  0.00    +0.000 S 
ATOM      7  C   UNL     1       6.120   3.582  12.634  0.00  0.00    +0.000 A 
ATOM      8  C   UNL     1       5.930   3.787  13.985  0.00  0.00    +0.000 A 
BRANCH   7   9
ATOM      9  C   UNL     1       5.353   2.677  11.791  0.00  0.00    +0.000 C 
ATOM     10  N   UNL     1       5.895   1.457  11.524  0.00  0.00    +0.000 N 
ATOM     11  O   UNL     1       4.257   2.964  11.310  0.00  0.00    +0.000 OA
ATOM     12  H   UNL     1       6.773   1.158  11.920  0.00  0.00    +0.000 HD
ATOM     13  H   UNL     1       5.350   0.815  10.965  0.00  0.00    +0.000 HD
ENDBRANCH   7   9
ENDBRANCH   1   4
BRANCH   1  14
ATOM     14  N   UNL     1       5.078   5.612  16.527  0.00  0.00    +0.000 NA
ATOM     15  C   UNL     1       4.742   7.028  16.180  0.00  0.00    +0.000 C 
BRANCH  14  17
ATOM     16  C   UNL     1       5.389   5.588  19.010  0.00  0.00    +0.000 C 
ATOM     17  C   UNL     1       4.471   5.161  17.847  0.00  0.00    +0.000 C 
BRANCH  17  18
ATOM     18  C   UNL     1       3.072   5.765  18.075  0.00  0.00    +0.000 C 
BRANCH  18  19
ATOM     19  C   UNL     1       1.891   4.805  17.896  0.00  0.00    +0.000 C 
BRANCH  19  20
ATOM     20  C   UNL     1       1.704   3.990  19.127  0.00  0.00    +0.000 A 
ATOM     21  C   UNL     1       1.225   4.285  20.386  0.00  0.00    +0.000 A 
ATOM     22  C   UNL     1       1.265   3.078  21.120  0.00  0.00    +0.000 A 
ATOM     23  C   UNL     1       1.763   2.125  20.261  0.00  0.00    +0.000 A 
ATOM     24  O   UNL     1       2.035   2.671  19.048  0.00  0.00    +0.000 OA
ENDBRANCH  19  20
ENDBRANCH  18  19
ENDBRANCH  17  18
ENDBRANCH  14  17
ENDBRANCH   1  14
TORSDOF 7
ENDMDL
MODEL 7
REMARK VINA RESULT:      -6.9      1.027      1.243
REMARK  Name = 
REMARK  9 active torsions:
REMARK  status: ('A' for Active; 'I' for Inactive)
REMARK    1  A    between atoms: C_1  and  C_2
REMARK    2  A    between atoms: C_2  and  C_3
REMARK    3  A    between atoms: C_2  and  N_10
REMARK    4  A    between atoms: C_3  and  C_4
REMARK    5  A    between atoms: C_4  and  C_5
REMARK    6  A    between atoms: N_10  and  C_11
REMARK    7  A    between atoms: N_10  and  S_12
REMARK    8  A    between atoms: S_12  and  C_15
REMARK    9  A    between atoms: C_18  and  C_19
REMARK                            x       y       z     vdW  Elec       q    Type
REMARK                         _______ _______ _______ _____ _____    ______ ____
ROOT
ATOM      1  S   UNL     1       3.106   3.106  17.804  0.00  0.00    +0.000 S 
ATOM      2  O   UNL     1       3.762   1.826  17.672  0.00  0.00    +0.000 OA
ATOM      3  O   UNL     1       1.814   3.336  17.190  0.00  0.00    +0.000 OA
ENDROOT
BRANCH   1   4
ATOM      4  C   UNL     1       4.157   4.226  16.986  0.00  0.00    +0.000 A 
ATOM      5  C   UNL     1       4.163   5.590  17.175  0.00  0.00    +0.000 A 
ATOM      6  S   UNL     1       5.273   6.368  16.124  0.00  0.00    +0.000 S 
ATOM      7  C   UNL     1       5.758   4.882  15.414  0.00  0.00    +0.000 A 
ATOM      8  C   UNL     1       5.085   3.820  15.982  0.00  0.00    +0.000 A 
BRANCH   7   9
ATOM      9  C   UNL     1       6.746   4.794  14.349  0.00  0.00    +0.000 C 
ATOM     10  N   UNL     1       6.475   3.960  13.308  0.00  0.00    +0.000 N 
ATOM     11  O   UNL     1       7.803   5.424  14.351  0.00  0.00    +0.000 OA
ATOM     12  H   UNL     1       5.609   3.446  13.240  0.00  0.00    +0.000 HD
ATOM     13  H   UNL     1       7.144   3.921  12.552  0.00  0.00    +0.000 HD
ENDBRANCH   7   9
ENDBRANCH   1   4
BRANCH   1  14
ATOM     14  N   UNL     1       3.016   3.626  19.456  0.00  0.00    +0.000 NA
ATOM     15  C   UNL     1       3.669   2.627  20.357  0.00  0.00    +0.000 C 
BRANCH  14  17
ATOM     16  C   UNL     1       1.135   3.167  21.043  0.00  0.00    +0.000 C 
ATOM     17  C   UNL     1       1.704   4.162  20.010  0.00  0.00    +0.000 C 
BRANCH  17  18
ATOM     18  C   UNL     1       1.882   5.532  20.691  0.00  0.00    +0.000 C 
BRANCH  18  19
ATOM     19  C   UNL     1       2.254   6.696  19.766  0.00  0.00    +0.000 C 
BRANCH  19  20
ATOM     20  C   UNL     1       1.627   7.955  20.252  0.00  0.00    +0.000 A 
ATOM     21  C   UNL     1       1.235   9.116  19.618  0.00  0.00    +0.000 A 
ATOM     22  C   UNL     1       0.674   9.944  20.616  0.00  0.00    +0.000 A 
ATOM     23  C   UNL     1       0.759   9.236  21.792  0.00  0.00    +0.000 A 
ATOM     24  O   UNL     1       1.338   8.027  21.581  0.00  0.00    +0.000 OA
ENDBRANCH  19  20
ENDBRANCH  18  19
ENDBRANCH  17  18
ENDBRANCH  14  17
ENDBRANCH   1  14
TORSDOF 7
ENDMDL
MODEL 8
REMARK VINA RESULT:      -6.8      4.351      6.257
REMARK  Name = 
REMARK  9 active torsions:
REMARK  status: ('A' for Active; 'I' for Inactive)
REMARK    1  A    between atoms: C_1  and  C_2
REMARK    2  A    between atoms: C_2  and  C_3
REMARK    3  A    between atoms: C_2  and  N_10
REMARK    4  A    between atoms: C_3  and  C_4
REMARK    5  A    between atoms: C_4  and  C_5
REMARK    6  A    between atoms: N_10  and  C_11
REMARK    7  A    between atoms: N_10  and  S_12
REMARK    8  A    between atoms: S_12  and  C_15
REMARK    9  A    between atoms: C_18  and  C_19
REMARK                            x       y       z     vdW  Elec       q    Type
REMARK                         _______ _______ _______ _____ _____    ______ ____
ROOT
ATOM      1  S   UNL     1       5.486   5.806  15.808  0.00  0.00    +0.000 S 
ATOM      2  O   UNL     1       5.016   7.068  15.285  0.00  0.00    +0.000 OA
ATOM      3  O   UNL     1       5.564   4.640  14.952  0.00  0.00    +0.000 OA
ENDROOT
BRANCH   1   4
ATOM      4  C   UNL     1       4.305   5.361  17.006  0.00  0.00    +0.000 A 
ATOM      5  C   UNL     1       3.536   6.246  17.728  0.00  0.00    +0.000 A 
ATOM      6  S   UNL     1       2.555   5.437  18.879  0.00  0.00    +0.000 S 
ATOM      7  C   UNL     1       3.149   3.896  18.414  0.00  0.00    +0.000 A 
ATOM      8  C   UNL     1       4.071   4.009  17.393  0.00  0.00    +0.000 A 
BRANCH   7   9
ATOM      9  C   UNL     1       2.720   2.655  19.042  0.00  0.00    +0.000 C 
ATOM     10  N   UNL     1       1.761   1.928  18.405  0.00  0.00    +0.000 N 
ATOM     11  O   UNL     1       3.171   2.243  20.110  0.00  0.00    +0.000 OA
ATOM     12  H   UNL     1       1.381   2.201  17.510  0.00  0.00    +0.000 HD
ATOM     13  H   UNL     1       1.483   1.051  18.822  0.00  0.00    +0.000 HD
ENDBRANCH   7   9
ENDBRANCH   1   4
BRANCH   1  14
ATOM     14  N   UNL     1       6.999   5.966  16.638  0.00  0.00    +0.000 NA
ATOM     15  C   UNL     1       7.613   4.622  16.873  0.00  0.00    +0.000 C 
BRANCH  14  17
ATOM     16  C   UNL     1       7.859   6.171  18.980  0.00  0.00    +0.000 C 
ATOM     17  C   UNL     1       7.109   6.891  17.840  0.00  0.00    +0.000 C 
BRANCH  17  18
ATOM     18  C   UNL     1       7.861   8.192  17.501  0.00  0.00    +0.000 C 
BRANCH  18  19
ATOM     19  C   UNL     1       8.648   8.829  18.651  0.00  0.00    +0.000 C 
BRANCH  19  20
ATOM     20  C   UNL     1       8.943  10.255  18.340  0.00  0.00    +0.000 A 
ATOM     21  C   UNL     1      10.056  11.047  18.530  0.00  0.00    +0.000 A 
ATOM     22  C   UNL     1       9.736  12.317  17.998  0.00  0.00    +0.000 A 
ATOM     23  C   UNL     1       8.450  12.216  17.517  0.00  0.00    +0.000 A 
ATOM     24  O   UNL     1       7.960  10.967  17.723  0.00  0.00    +0.000 OA
ENDBRANCH  19  20
ENDBRANCH  18  19
ENDBRANCH  17  18
ENDBRANCH  14  17
ENDBRANCH   1  14
TORSDOF 7
ENDMDL
MODEL 9
REMARK VINA RESULT:      -6.8      2.895      4.750
REMARK  Name = 
REMARK  9 active torsions:
REMARK  status: ('A' for Active; 'I' for Inactive)
REMARK    1  A    between atoms: C_1  and  C_2
REMARK    2  A    between atoms: C_2  and  C_3
REMARK    3  A    between atoms: C_2  and  N_10
REMARK    4  A    between atoms: C_3  and  C_4
REMARK    5  A    between atoms: C_4  and  C_5
REMARK    6  A    between atoms: N_10  and  C_11
REMARK    7  A    between atoms: N_10  and  S_12
REMARK    8  A    between atoms: S_12  and  C_15
REMARK    9  A    between atoms: C_18  and  C_19
REMARK                            x       y       z     vdW  Elec       q    Type
REMARK                         _______ _______ _______ _____ _____    ______ ____
ROOT
ATOM      1  S   UNL     1       7.083   5.227  16.156  0.00  0.00    +0.000 S 
ATOM      2  O   UNL     1       7.634   6.562  16.151  0.00  0.00    +0.000 OA
ATOM      3  O   UNL     1       7.807   4.136  16.778  0.00  0.00    +0.000 OA
ENDROOT
BRANCH   1   4
ATOM      4  C   UNL     1       7.015   4.773  14.477  0.00  0.00    +0.000 A 
ATOM      5  C   UNL     1       7.779   5.328  13.475  0.00  0.00    +0.000 A 
ATOM      6  S   UNL     1       7.365   4.688  11.938  0.00  0.00    +0.000 S 
ATOM      7  C   UNL     1       6.163   3.661  12.606  0.00  0.00    +0.000 A 
ATOM      8  C   UNL     1       6.096   3.805  13.977  0.00  0.00    +0.000 A 
BRANCH   7   9
ATOM      9  C   UNL     1       5.338   2.773  11.800  0.00  0.00    +0.000 C 
ATOM     10  N   UNL     1       4.147   3.257  11.352  0.00  0.00    +0.000 N 
ATOM     11  O   UNL     1       5.661   1.620  11.516  0.00  0.00    +0.000 OA
ATOM     12  H   UNL     1       3.850   4.205  11.527  0.00  0.00    +0.000 HD
ATOM     13  H   UNL     1       3.588   2.654  10.766  0.00  0.00    +0.000 HD
ENDBRANCH   7   9
ENDBRANCH   1   4
BRANCH   1  14
ATOM     14  N   UNL     1       5.453   5.194  16.746  0.00  0.00    +0.000 NA
ATOM     15  C   UNL     1       5.081   6.520  17.331  0.00  0.00    +0.000 C 
BRANCH  14  17
ATOM     16  C   UNL     1       5.027   4.390  19.078  0.00  0.00    +0.000 C 
ATOM     17  C   UNL     1       4.974   4.017  17.581  0.00  0.00    +0.000 C 
BRANCH  17  18
ATOM     18  C   UNL     1       3.533   3.606  17.226  0.00  0.00    +0.000 C 
BRANCH  18  19
ATOM     19  C   UNL     1       2.424   4.489  17.806  0.00  0.00    +0.000 C 
BRANCH  19  20
ATOM     20  C   UNL     1       1.967   3.944  19.114  0.00  0.00    +0.000 A 
ATOM     21  C   UNL     1       1.514   4.539  20.273  0.00  0.00    +0.000 A 
ATOM     22  C   UNL     1       1.202   3.487  21.164  0.00  0.00    +0.000 A 
ATOM     23  C   UNL     1       1.484   2.321  20.491  0.00  0.00    +0.000 A 
ATOM     24  O   UNL     1       1.951   2.589  19.245  0.00  0.00    +0.000 OA
ENDBRANCH  19  20
ENDBRANCH  18  19
ENDBRANCH  17  18
ENDBRANCH  14  17
ENDBRANCH   1  14
TORSDOF 7
ENDMDL
