MODEL 1
REMARK VINA RESULT:      -7.4      0.000      0.000
REMARK  Name = 
REMARK  11 active torsions:
REMARK  status: ('A' for Active; 'I' for Inactive)
REMARK    1  A    between atoms: C_1  and  C_2
REMARK    2  A    between atoms: C_2  and  C_3
REMARK    3  A    between atoms: C_3  and  N_4
REMARK    4  A    between atoms: N_4  and  C_5
REMARK    5  A    between atoms: N_4  and  C_18
REMARK    6  A    between atoms: C_5  and  C_6
REMARK    7  A    between atoms: N_8  and  C_9
REMARK    8  A    between atoms: C_12  and  C_13
REMARK    9  A    between atoms: C_18  and  C_19
REMARK   10  A    between atoms: N_21  and  C_22
REMARK   11  A    between atoms: C_27  and  C_28
REMARK                            x       y       z     vdW  Elec       q    Type
REMARK                         _______ _______ _______ _____ _____    ______ ____
ROOT
ATOM      1  N   UNL     1       6.219   4.998  15.908  0.00  0.00    +0.000 NA
ENDROOT
BRANCH   1   2
ATOM      2  C   UNL     1       7.133   4.809  14.765  0.00  0.00    +0.000 C 
BRANCH   2   4
ATOM      3  C   UNL     1       7.116   4.284  12.259  0.00  0.00    +0.000 C 
ATOM      4  C   UNL     1       6.564   3.939  13.635  0.00  0.00    +0.000 C 
ENDBRANCH   2   4
ENDBRANCH   1   2
BRANCH   1   5
ATOM      5  C   UNL     1       5.134   5.986  15.639  0.00  0.00    +0.000 C 
BRANCH   5   6
ATOM      6  C   UNL     1       4.654   6.799  16.856  0.00  0.00    +0.000 C 
ATOM      7  O   UNL     1       5.433   7.457  17.544  0.00  0.00    +0.000 OA
ATOM      8  N   UNL     1       3.290   6.696  17.099  0.00  0.00    +0.000 N 
ATOM      9  H   UNL     1       2.839   5.853  16.771  0.00  0.00    +0.000 HD
BRANCH   8  10
ATOM     10  C   UNL     1       2.656   7.377  18.155  0.00  0.00    +0.000 A 
ATOM     11  C   UNL     1       2.590   6.843  19.445  0.00  0.00    +0.000 A 
ATOM     12  C   UNL     1       1.946   7.546  20.472  0.00  0.00    +0.000 A 
ATOM     13  C   UNL     1       1.336   8.777  20.206  0.00  0.00    +0.000 A 
ATOM     14  C   UNL     1       1.408   9.304  18.908  0.00  0.00    +0.000 A 
ATOM     15  C   UNL     1       2.093   8.625  17.896  0.00  0.00    +0.000 A 
BRANCH  13  16
ATOM     16  C   UNL     1       0.601   9.573  21.233  0.00  0.00    +0.000 C 
ATOM     17  N   UNL     1       0.805   9.293  22.555  0.00  0.00    +0.000 N 
ATOM     18  O   UNL     1      -0.166  10.475  20.913  0.00  0.00    +0.000 OA
ATOM     19  H   UNL     1       1.436   8.596  22.915  0.00  0.00    +0.000 HD
ATOM     20  H   UNL     1       0.304   9.867  23.221  0.00  0.00    +0.000 HD
ENDBRANCH  13  16
ENDBRANCH   8  10
ENDBRANCH   5   6
ENDBRANCH   1   5
BRANCH   1  21
ATOM     21  C   UNL     1       5.617   3.704  16.334  0.00  0.00    +0.000 C 
BRANCH  21  22
ATOM     22  C   UNL     1       5.010   3.728  17.739  0.00  0.00    +0.000 C 
ATOM     23  O   UNL     1       5.639   4.276  18.648  0.00  0.00    +0.000 OA
ATOM     24  N   UNL     1       3.812   3.046  17.888  0.00  0.00    +0.000 N 
ATOM     25  H   UNL     1       3.526   2.489  17.095  0.00  0.00    +0.000 HD
BRANCH  24  26
ATOM     26  C   UNL     1       3.000   3.036  19.048  0.00  0.00    +0.000 A 
ATOM     27  C   UNL     1       3.507   2.583  20.276  0.00  0.00    +0.000 A 
ATOM     28  C   UNL     1       2.716   2.547  21.429  0.00  0.00    +0.000 A 
ATOM     29  C   UNL     1       1.409   2.994  21.376  0.00  0.00    +0.000 A 
ATOM     30  C   UNL     1       0.896   3.491  20.174  0.00  0.00    +0.000 A 
ATOM     31  C   UNL     1       1.674   3.512  19.004  0.00  0.00    +0.000 A 
ATOM     32  C   UNL     1       1.038   4.055  17.747  0.00  0.00    +0.000 C 
ENDBRANCH  24  26
ENDBRANCH  21  22
ENDBRANCH   1  21
TORSDOF 9
ENDMDL
MODEL 2
REMARK VINA RESULT:      -7.0      0.669      1.131
REMARK  Name = 
REMARK  11 active torsions:
REMARK  status: ('A' for Active; 'I' for Inactive)
REMARK    1  A    between atoms: C_1  and  C_2
REMARK    2  A    between atoms: C_2  and  C_3
REMARK    3  A    between atoms: C_3  and  N_4
REMARK    4  A    between atoms: N_4  and  C_5
REMARK    5  A    between atoms: N_4  and  C_18
REMARK    6  A    between atoms: C_5  and  C_6
REMARK    7  A    between atoms: N_8  and  C_9
REMARK    8  A    between atoms: C_12  and  C_13
REMARK    9  A    between atoms: C_18  and  C_19
REMARK   10  A    between atoms: N_21  and  C_22
REMARK   11  A    between atoms: C_27  and  C_28
REMARK                            x       y       z     vdW  Elec       q    Type
REMARK                         _______ _______ _______ _____ _____    ______ ____
ROOT
ATOM      1  N   UNL     1       6.292   4.848  16.084  0.00  0.00    +0.000 NA
ENDROOT
BRANCH   1   2
ATOM      2  C   UNL     1       7.335   4.524  15.091  0.00  0.00    +0.000 C 
BRANCH   2   4
ATOM      3  C   UNL     1       8.057   5.566  12.866  0.00  0.00    +0.000 C 
ATOM      4  C   UNL     1       6.955   4.857  13.641  0.00  0.00    +0.000 C 
ENDBRANCH   2   4
ENDBRANCH   1   2
BRANCH   1   5
ATOM      5  C   UNL     1       5.402   5.968  15.661  0.00  0.00    +0.000 C 
BRANCH   5   6
ATOM      6  C   UNL     1       4.827   6.830  16.801  0.00  0.00    +0.000 C 
ATOM      7  O   UNL     1       5.538   7.576  17.471  0.00  0.00    +0.000 OA
ATOM      8  N   UNL     1       3.461   6.663  16.998  0.00  0.00    +0.000 N 
ATOM      9  H   UNL     1       3.073   5.775  16.711  0.00  0.00    +0.000 HD
BRANCH   8  10
ATOM     10  C   UNL     1       2.746   7.374  17.980  0.00  0.00    +0.000 A 
ATOM     11  C   UNL     1       2.116   8.590  17.701  0.00  0.00    +0.000 A 
ATOM     12  C   UNL     1       1.417   9.274  18.705  0.00  0.00    +0.000 A 
ATOM     13  C   UNL     1       1.370   8.759  20.005  0.00  0.00    +0.000 A 
ATOM     14  C   UNL     1       2.005   7.537  20.274  0.00  0.00    +0.000 A 
ATOM     15  C   UNL     1       2.661   6.831  19.261  0.00  0.00    +0.000 A 
BRANCH  13  16
ATOM     16  C   UNL     1       0.677   9.440  21.138  0.00  0.00    +0.000 C 
ATOM     17  N   UNL     1       0.893  10.774  21.336  0.00  0.00    +0.000 N 
ATOM     18  O   UNL     1      -0.085   8.829  21.880  0.00  0.00    +0.000 OA
ATOM     19  H   UNL     1       1.473  11.365  20.764  0.00  0.00    +0.000 HD
ATOM     20  H   UNL     1       0.391  11.204  22.103  0.00  0.00    +0.000 HD
ENDBRANCH  13  16
ENDBRANCH   8  10
ENDBRANCH   5   6
ENDBRANCH   1   5
BRANCH   1  21
ATOM     21  C   UNL     1       5.465   3.651  16.403  0.00  0.00    +0.000 C 
BRANCH  21  22
ATOM     22  C   UNL     1       4.923   3.628  17.835  0.00  0.00    +0.000 C 
ATOM     23  O   UNL     1       5.609   4.116  18.737  0.00  0.00    +0.000 OA
ATOM     24  N   UNL     1       3.712   2.975  18.009  0.00  0.00    +0.000 N 
ATOM     25  H   UNL     1       3.373   2.464  17.206  0.00  0.00    +0.000 HD
BRANCH  24  26
ATOM     26  C   UNL     1       2.953   2.936  19.203  0.00  0.00    +0.000 A 
ATOM     27  C   UNL     1       3.528   2.498  20.406  0.00  0.00    +0.000 A 
ATOM     28  C   UNL     1       2.790   2.435  21.592  0.00  0.00    +0.000 A 
ATOM     29  C   UNL     1       1.468   2.838  21.599  0.00  0.00    +0.000 A 
ATOM     30  C   UNL     1       0.887   3.319  20.422  0.00  0.00    +0.000 A 
ATOM     31  C   UNL     1       1.611   3.368  19.218  0.00  0.00    +0.000 A 
ATOM     32  C   UNL     1       0.902   3.891  17.993  0.00  0.00    +0.000 C 
ENDBRANCH  24  26
ENDBRANCH  21  22
ENDBRANCH   1  21
TORSDOF 9
ENDMDL
MODEL 3
REMARK VINA RESULT:      -6.8      5.095      6.021
REMARK  Name = 
REMARK  11 active torsions:
REMARK  status: ('A' for Active; 'I' for Inactive)
REMARK    1  A    between atoms: C_1  and  C_2
REMARK    2  A    between atoms: C_2  and  C_3
REMARK    3  A    between atoms: C_3  and  N_4
REMARK    4  A    between atoms: N_4  and  C_5
REMARK    5  A    between atoms: N_4  and  C_18
REMARK    6  A    between atoms: C_5  and  C_6
REMARK    7  A    between atoms: N_8  and  C_9
REMARK    8  A    between atoms: C_12  and  C_13
REMARK    9  A    between atoms: C_18  and  C_19
REMARK   10  A    between atoms: N_21  and  C_22
REMARK   11  A    between atoms: C_27  and  C_28
REMARK                            x       y       z     vdW  Elec       q    Type
REMARK                         _______ _______ _______ _____ _____    ______ ____
ROOT
ATOM      1  N   UNL     1       6.631   6.106  17.646  0.00  0.00    +0.000 NA
ENDROOT
BRANCH   1   2
ATOM      2  C   UNL     1       6.944   5.681  16.267  0.00  0.00    +0.000 C 
BRANCH   2   4
ATOM      3  C   UNL     1       6.202   4.011  14.474  0.00  0.00    +0.000 C 
ATOM      4  C   UNL     1       6.538   4.237  15.941  0.00  0.00    +0.000 C 
ENDBRANCH   2   4
ENDBRANCH   1   2
BRANCH   1   5
ATOM      5  C   UNL     1       7.813   6.639  18.382  0.00  0.00    +0.000 C 
BRANCH   5   6
ATOM      6  C   UNL     1       8.144   8.122  18.130  0.00  0.00    +0.000 C 
ATOM      7  O   UNL     1       7.829   8.688  17.084  0.00  0.00    +0.000 OA
ATOM      8  N   UNL     1       8.833   8.730  19.172  0.00  0.00    +0.000 N 
ATOM      9  H   UNL     1       9.388   8.121  19.757  0.00  0.00    +0.000 HD
BRANCH   8  10
ATOM     10  C   UNL     1       9.212  10.085  19.140  0.00  0.00    +0.000 A 
ATOM     11  C   UNL     1       9.287  10.804  17.943  0.00  0.00    +0.000 A 
ATOM     12  C   UNL     1       9.673  12.152  17.948  0.00  0.00    +0.000 A 
ATOM     13  C   UNL     1      10.016  12.781  19.150  0.00  0.00    +0.000 A 
ATOM     14  C   UNL     1       9.937  12.050  20.345  0.00  0.00    +0.000 A 
ATOM     15  C   UNL     1       9.505  10.721  20.345  0.00  0.00    +0.000 A 
BRANCH  13  16
ATOM     16  C   UNL     1      10.469  14.200  19.238  0.00  0.00    +0.000 C 
ATOM     17  N   UNL     1      11.198  14.725  18.208  0.00  0.00    +0.000 N 
ATOM     18  O   UNL     1      10.191  14.899  20.206  0.00  0.00    +0.000 OA
ATOM     19  H   UNL     1      11.447  14.241  17.361  0.00  0.00    +0.000 HD
ATOM     20  H   UNL     1      11.470  15.696  18.296  0.00  0.00    +0.000 HD
ENDBRANCH  13  16
ENDBRANCH   8  10
ENDBRANCH   5   6
ENDBRANCH   1   5
BRANCH   1  21
ATOM     21  C   UNL     1       5.540   7.121  17.659  0.00  0.00    +0.000 C 
BRANCH  21  22
ATOM     22  C   UNL     1       4.166   6.558  18.036  0.00  0.00    +0.000 C 
ATOM     23  O   UNL     1       3.157   7.188  17.710  0.00  0.00    +0.000 OA
ATOM     24  N   UNL     1       4.180   5.400  18.797  0.00  0.00    +0.000 N 
ATOM     25  H   UNL     1       5.086   5.115  19.143  0.00  0.00    +0.000 HD
BRANCH  24  26
ATOM     26  C   UNL     1       3.050   4.625  19.153  0.00  0.00    +0.000 A 
ATOM     27  C   UNL     1       2.369   4.860  20.359  0.00  0.00    +0.000 A 
ATOM     28  C   UNL     1       1.262   4.095  20.738  0.00  0.00    +0.000 A 
ATOM     29  C   UNL     1       0.798   3.099  19.899  0.00  0.00    +0.000 A 
ATOM     30  C   UNL     1       1.434   2.876  18.674  0.00  0.00    +0.000 A 
ATOM     31  C   UNL     1       2.561   3.624  18.291  0.00  0.00    +0.000 A 
ATOM     32  C   UNL     1       3.191   3.310  16.955  0.00  0.00    +0.000 C 
ENDBRANCH  24  26
ENDBRANCH  21  22
ENDBRANCH   1  21
TORSDOF 9
ENDMDL
MODEL 4
REMARK VINA RESULT:      -6.7      4.763      5.725
REMARK  Name = 
REMARK  11 active torsions:
REMARK  status: ('A' for Active; 'I' for Inactive)
REMARK    1  A    between atoms: C_1  and  C_2
REMARK    2  A    between atoms: C_2  and  C_3
REMARK    3  A    between atoms: C_3  and  N_4
REMARK    4  A    between atoms: N_4  and  C_5
REMARK    5  A    between atoms: N_4  and  C_18
REMARK    6  A    between atoms: C_5  and  C_6
REMARK    7  A    between atoms: N_8  and  C_9
REMARK    8  A    between atoms: C_12  and  C_13
REMARK    9  A    between atoms: C_18  and  C_19
REMARK   10  A    between atoms: N_21  and  C_22
REMARK   11  A    between atoms: C_27  and  C_28
REMARK                            x       y       z     vdW  Elec       q    Type
REMARK                         _______ _______ _______ _____ _____    ______ ____
ROOT
ATOM      1  N   UNL     1       7.225   5.825  16.324  0.00  0.00    +0.000 NA
ENDROOT
BRANCH   1   2
ATOM      2  C   UNL     1       6.567   5.836  15.003  0.00  0.00    +0.000 C 
BRANCH   2   4
ATOM      3  C   UNL     1       5.764   3.704  13.834  0.00  0.00    +0.000 C 
ATOM      4  C   UNL     1       6.929   4.645  14.103  0.00  0.00    +0.000 C 
ENDBRANCH   2   4
ENDBRANCH   1   2
BRANCH   1   5
ATOM      5  C   UNL     1       6.686   6.853  17.260  0.00  0.00    +0.000 C 
BRANCH   5   6
ATOM      6  C   UNL     1       7.738   7.705  17.994  0.00  0.00    +0.000 C 
ATOM      7  O   UNL     1       8.566   7.203  18.752  0.00  0.00    +0.000 OA
ATOM      8  N   UNL     1       7.643   9.066  17.730  0.00  0.00    +0.000 N 
ATOM      9  H   UNL     1       6.731   9.407  17.460  0.00  0.00    +0.000 HD
BRANCH   8  10
ATOM     10  C   UNL     1       8.525  10.010  18.292  0.00  0.00    +0.000 A 
ATOM     11  C   UNL     1       8.992   9.895  19.604  0.00  0.00    +0.000 A 
ATOM     12  C   UNL     1       9.865  10.856  20.133  0.00  0.00    +0.000 A 
ATOM     13  C   UNL     1      10.253  11.955  19.359  0.00  0.00    +0.000 A 
ATOM     14  C   UNL     1       9.778  12.060  18.042  0.00  0.00    +0.000 A 
ATOM     15  C   UNL     1       8.946  11.076  17.500  0.00  0.00    +0.000 A 
BRANCH  13  16
ATOM     16  C   UNL     1      11.151  13.039  19.856  0.00  0.00    +0.000 C 
ATOM     17  N   UNL     1      12.333  13.264  19.208  0.00  0.00    +0.000 N 
ATOM     18  O   UNL     1      10.842  13.732  20.818  0.00  0.00    +0.000 OA
ATOM     19  H   UNL     1      12.658  12.770  18.393  0.00  0.00    +0.000 HD
ATOM     20  H   UNL     1      12.905  14.019  19.563  0.00  0.00    +0.000 HD
ENDBRANCH  13  16
ENDBRANCH   8  10
ENDBRANCH   5   6
ENDBRANCH   1   5
BRANCH   1  21
ATOM     21  C   UNL     1       7.133   4.480  16.957  0.00  0.00    +0.000 C 
BRANCH  21  22
ATOM     22  C   UNL     1       6.066   4.375  18.051  0.00  0.00    +0.000 C 
ATOM     23  O   UNL     1       6.400   4.551  19.225  0.00  0.00    +0.000 OA
ATOM     24  N   UNL     1       4.800   4.006  17.622  0.00  0.00    +0.000 N 
ATOM     25  H   UNL     1       4.735   3.711  16.657  0.00  0.00    +0.000 HD
BRANCH  24  26
ATOM     26  C   UNL     1       3.630   3.970  18.417  0.00  0.00    +0.000 A 
ATOM     27  C   UNL     1       2.984   5.158  18.798  0.00  0.00    +0.000 A 
ATOM     28  C   UNL     1       1.838   5.146  19.599  0.00  0.00    +0.000 A 
ATOM     29  C   UNL     1       1.301   3.939  20.008  0.00  0.00    +0.000 A 
ATOM     30  C   UNL     1       1.902   2.743  19.604  0.00  0.00    +0.000 A 
ATOM     31  C   UNL     1       3.067   2.742  18.818  0.00  0.00    +0.000 A 
ATOM     32  C   UNL     1       3.655   1.405  18.436  0.00  0.00    +0.000 C 
ENDBRANCH  24  26
ENDBRANCH  21  22
ENDBRANCH   1  21
TORSDOF 9
ENDMDL
MODEL 5
REMARK VINA RESULT:      -6.7      5.178      5.999
REMARK  Name = 
REMARK  11 active torsions:
REMARK  status: ('A' for Active; 'I' for Inactive)
REMARK    1  A    between atoms: C_1  and  C_2
REMARK    2  A    between atoms: C_2  and  C_3
REMARK    3  A    between atoms: C_3  and  N_4
REMARK    4  A    between atoms: N_4  and  C_5
REMARK    5  A    between atoms: N_4  and  C_18
REMARK    6  A    between atoms: C_5  and  C_6
REMARK    7  A    between atoms: N_8  and  C_9
REMARK    8  A    between atoms: C_12  and  C_13
REMARK    9  A    between atoms: C_18  and  C_19
REMARK   10  A    between atoms: N_21  and  C_22
REMARK   11  A    between atoms: C_27  and  C_28
REMARK                            x       y       z     vdW  Elec       q    Type
REMARK                         _______ _______ _______ _____ _____    ______ ____
ROOT
ATOM      1  N   UNL     1       7.092   6.240  17.327  0.00  0.00    +0.000 NA
ENDROOT
BRANCH   1   2
ATOM      2  C   UNL     1       5.788   6.909  17.156  0.00  0.00    +0.000 C 
BRANCH   2   4
ATOM      3  C   UNL     1       5.804   5.551  14.985  0.00  0.00    +0.000 C 
ATOM      4  C   UNL     1       5.071   6.575  15.840  0.00  0.00    +0.000 C 
ENDBRANCH   2   4
ENDBRANCH   1   2
BRANCH   1   5
ATOM      5  C   UNL     1       7.960   6.890  18.351  0.00  0.00    +0.000 C 
BRANCH   5   6
ATOM      6  C   UNL     1       8.185   8.403  18.171  0.00  0.00    +0.000 C 
ATOM      7  O   UNL     1       7.678   9.028  17.241  0.00  0.00    +0.000 OA
ATOM      8  N   UNL     1       9.016   8.966  19.132  0.00  0.00    +0.000 N 
ATOM      9  H   UNL     1       9.684   8.345  19.566  0.00  0.00    +0.000 HD
BRANCH   8  10
ATOM     10  C   UNL     1       9.331  10.339  19.150  0.00  0.00    +0.000 A 
ATOM     11  C   UNL     1       9.278  11.095  20.324  0.00  0.00    +0.000 A 
ATOM     12  C   UNL     1       9.593  12.460  20.304  0.00  0.00    +0.000 A 
ATOM     13  C   UNL     1       9.935  13.085  19.100  0.00  0.00    +0.000 A 
ATOM     14  C   UNL     1       9.986  12.317  17.927  0.00  0.00    +0.000 A 
ATOM     15  C   UNL     1       9.719  10.945  17.957  0.00  0.00    +0.000 A 
BRANCH  13  16
ATOM     16  C   UNL     1      10.251  14.540  18.986  0.00  0.00    +0.000 C 
ATOM     17  N   UNL     1      10.454  15.262  20.128  0.00  0.00    +0.000 N 
ATOM     18  O   UNL     1      10.343  15.088  17.893  0.00  0.00    +0.000 OA
ATOM     19  H   UNL     1      10.431  14.895  21.065  0.00  0.00    +0.000 HD
ATOM     20  H   UNL     1      10.684  16.240  20.009  0.00  0.00    +0.000 HD
ENDBRANCH  13  16
ENDBRANCH   8  10
ENDBRANCH   5   6
ENDBRANCH   1   5
BRANCH   1  21
ATOM     21  C   UNL     1       6.915   4.801  17.669  0.00  0.00    +0.000 C 
BRANCH  21  22
ATOM     22  C   UNL     1       5.863   4.540  18.750  0.00  0.00    +0.000 C 
ATOM     23  O   UNL     1       6.184   4.671  19.935  0.00  0.00    +0.000 OA
ATOM     24  N   UNL     1       4.633   4.091  18.295  0.00  0.00    +0.000 N 
ATOM     25  H   UNL     1       4.591   3.852  17.314  0.00  0.00    +0.000 HD
BRANCH  24  26
ATOM     26  C   UNL     1       3.471   3.909  19.084  0.00  0.00    +0.000 A 
ATOM     27  C   UNL     1       2.855   4.999  19.718  0.00  0.00    +0.000 A 
ATOM     28  C   UNL     1       1.718   4.838  20.516  0.00  0.00    +0.000 A 
ATOM     29  C   UNL     1       1.160   3.582  20.667  0.00  0.00    +0.000 A 
ATOM     30  C   UNL     1       1.731   2.488  20.009  0.00  0.00    +0.000 A 
ATOM     31  C   UNL     1       2.886   2.634  19.222  0.00  0.00    +0.000 A 
ATOM     32  C   UNL     1       3.442   1.398  18.556  0.00  0.00    +0.000 C 
ENDBRANCH  24  26
ENDBRANCH  21  22
ENDBRANCH   1  21
TORSDOF 9
ENDMDL
MODEL 6
REMARK VINA RESULT:      -6.7      3.552      8.930
REMARK  Name = 
REMARK  11 active torsions:
REMARK  status: ('A' for Active; 'I' for Inactive)
REMARK    1  A    between atoms: C_1  and  C_2
REMARK    2  A    between atoms: C_2  and  C_3
REMARK    3  A    between atoms: C_3  and  N_4
REMARK    4  A    between atoms: N_4  and  C_5
REMARK    5  A    between atoms: N_4  and  C_18
REMARK    6  A    between atoms: C_5  and  C_6
REMARK    7  A    between atoms: N_8  and  C_9
REMARK    8  A    between atoms: C_12  and  C_13
REMARK    9  A    between atoms: C_18  and  C_19
REMARK   10  A    between atoms: N_21  and  C_22
REMARK   11  A    between atoms: C_27  and  C_28
REMARK                            x       y       z     vdW  Elec       q    Type
REMARK                         _______ _______ _______ _____ _____    ______ ____
ROOT
ATOM      1  N   UNL     1       0.743  10.912  21.413  0.00  0.00    +0.000 NA
ENDROOT
BRANCH   1   2
ATOM      2  C   UNL     1      -0.698  11.176  21.592  0.00  0.00    +0.000 C 
BRANCH   2   4
ATOM      3  C   UNL     1      -2.428  12.002  23.289  0.00  0.00    +0.000 C 
ATOM      4  C   UNL     1      -1.027  12.166  22.720  0.00  0.00    +0.000 C 
ENDBRANCH   2   4
ENDBRANCH   1   2
BRANCH   1   5
ATOM      5  C   UNL     1       1.217   9.703  22.147  0.00  0.00    +0.000 C 
BRANCH   5   6
ATOM      6  C   UNL     1       0.923   8.352  21.466  0.00  0.00    +0.000 C 
ATOM      7  O   UNL     1      -0.218   7.902  21.384  0.00  0.00    +0.000 OA
ATOM      8  N   UNL     1       2.056   7.706  20.988  0.00  0.00    +0.000 N 
ATOM      9  H   UNL     1       2.927   7.926  21.451  0.00  0.00    +0.000 HD
BRANCH   8  10
ATOM     10  C   UNL     1       1.995   6.468  20.320  0.00  0.00    +0.000 A 
ATOM     11  C   UNL     1       1.701   5.278  20.993  0.00  0.00    +0.000 A 
ATOM     12  C   UNL     1       1.654   4.062  20.298  0.00  0.00    +0.000 A 
ATOM     13  C   UNL     1       1.932   4.025  18.927  0.00  0.00    +0.000 A 
ATOM     14  C   UNL     1       2.225   5.225  18.261  0.00  0.00    +0.000 A 
ATOM     15  C   UNL     1       2.224   6.444  18.946  0.00  0.00    +0.000 A 
BRANCH  13  16
ATOM     16  C   UNL     1       1.937   2.770  18.119  0.00  0.00    +0.000 C 
ATOM     17  N   UNL     1       1.057   1.775  18.442  0.00  0.00    +0.000 N 
ATOM     18  O   UNL     1       2.702   2.623  17.173  0.00  0.00    +0.000 OA
ATOM     19  H   UNL     1       0.371   1.816  19.178  0.00  0.00    +0.000 HD
ATOM     20  H   UNL     1       1.078   0.948  17.859  0.00  0.00    +0.000 HD
ENDBRANCH  13  16
ENDBRANCH   8  10
ENDBRANCH   5   6
ENDBRANCH   1   5
BRANCH   1  21
ATOM     21  C   UNL     1       1.089  10.784  19.970  0.00  0.00    +0.000 C 
BRANCH  21  22
ATOM     22  C   UNL     1       0.000  11.288  19.018  0.00  0.00    +0.000 C 
ATOM     23  O   UNL     1       0.064  12.449  18.605  0.00  0.00    +0.000 OA
ATOM     24  N   UNL     1      -1.030  10.397  18.759  0.00  0.00    +0.000 N 
ATOM     25  H   UNL     1      -1.035   9.560  19.324  0.00  0.00    +0.000 HD
BRANCH  24  26
ATOM     26  C   UNL     1      -2.072  10.582  17.819  0.00  0.00    +0.000 A 
ATOM     27  C   UNL     1      -2.048   9.920  16.581  0.00  0.00    +0.000 A 
ATOM     28  C   UNL     1      -3.057  10.103  15.631  0.00  0.00    +0.000 A 
ATOM     29  C   UNL     1      -4.127  10.931  15.918  0.00  0.00    +0.000 A 
ATOM     30  C   UNL     1      -4.194  11.566  17.162  0.00  0.00    +0.000 A 
ATOM     31  C   UNL     1      -3.175  11.408  18.117  0.00  0.00    +0.000 A 
ATOM     32  C   UNL     1      -3.323  12.139  19.429  0.00  0.00    +0.000 C 
ENDBRANCH  24  26
ENDBRANCH  21  22
ENDBRANCH   1  21
TORSDOF 9
ENDMDL
MODEL 7
REMARK VINA RESULT:      -6.5      4.891      5.791
REMARK  Name = 
REMARK  11 active torsions:
REMARK  status: ('A' for Active; 'I' for Inactive)
REMARK    1  A    between atoms: C_1  and  C_2
REMARK    2  A    between atoms: C_2  and  C_3
REMARK    3  A    between atoms: C_3  and  N_4
REMARK    4  A    between atoms: N_4  and  C_5
REMARK    5  A    between atoms: N_4  and  C_18
REMARK    6  A    between atoms: C_5  and  C_6
REMARK    7  A    between atoms: N_8  and  C_9
REMARK    8  A    between atoms: C_12  and  C_13
REMARK    9  A    between atoms: C_18  and  C_19
REMARK   10  A    between atoms: N_21  and  C_22
REMARK   11  A    between atoms: C_27  and  C_28
REMARK                            x       y       z     vdW  Elec       q    Type
REMARK                         _______ _______ _______ _____ _____    ______ ____
ROOT
ATOM      1  N   UNL     1       7.239   5.490  17.740  0.00  0.00    +0.000 NA
ENDROOT
BRANCH   1   2
ATOM      2  C   UNL     1       6.763   4.469  16.788  0.00  0.00    +0.000 C 
BRANCH   2   4
ATOM      3  C   UNL     1       6.364   4.017  14.299  0.00  0.00    +0.000 C 
ATOM      4  C   UNL     1       6.302   5.029  15.434  0.00  0.00    +0.000 C 
ENDBRANCH   2   4
ENDBRANCH   1   2
BRANCH   1   5
ATOM      5  C   UNL     1       7.185   6.877  17.194  0.00  0.00    +0.000 C 
BRANCH   5   6
ATOM      6  C   UNL     1       7.989   7.934  17.975  0.00  0.00    +0.000 C 
ATOM      7  O   UNL     1       8.689   7.633  18.940  0.00  0.00    +0.000 OA
ATOM      8  N   UNL     1       7.827   9.229  17.499  0.00  0.00    +0.000 N 
ATOM      9  H   UNL     1       6.961   9.424  17.016  0.00  0.00    +0.000 HD
BRANCH   8  10
ATOM     10  C   UNL     1       8.490  10.333  18.068  0.00  0.00    +0.000 A 
ATOM     11  C   UNL     1       8.300  11.635  17.595  0.00  0.00    +0.000 A 
ATOM     12  C   UNL     1       8.981  12.710  18.182  0.00  0.00    +0.000 A 
ATOM     13  C   UNL     1       9.882  12.485  19.229  0.00  0.00    +0.000 A 
ATOM     14  C   UNL     1      10.065  11.174  19.696  0.00  0.00    +0.000 A 
ATOM     15  C   UNL     1       9.349  10.109  19.143  0.00  0.00    +0.000 A 
BRANCH  13  16
ATOM     16  C   UNL     1      10.672  13.567  19.885  0.00  0.00    +0.000 C 
ATOM     17  N   UNL     1      12.034  13.550  19.774  0.00  0.00    +0.000 N 
ATOM     18  O   UNL     1      10.122  14.470  20.507  0.00  0.00    +0.000 OA
ATOM     19  H   UNL     1      12.571  12.871  19.260  0.00  0.00    +0.000 HD
ATOM     20  H   UNL     1      12.532  14.311  20.217  0.00  0.00    +0.000 HD
ENDBRANCH  13  16
ENDBRANCH   8  10
ENDBRANCH   5   6
ENDBRANCH   1   5
BRANCH   1  21
ATOM     21  C   UNL     1       6.474   5.431  19.017  0.00  0.00    +0.000 C 
BRANCH  21  22
ATOM     22  C   UNL     1       4.981   5.143  18.839  0.00  0.00    +0.000 C 
ATOM     23  O   UNL     1       4.283   5.972  18.249  0.00  0.00    +0.000 OA
ATOM     24  N   UNL     1       4.516   3.984  19.441  0.00  0.00    +0.000 N 
ATOM     25  H   UNL     1       5.173   3.515  20.049  0.00  0.00    +0.000 HD
BRANCH  24  26
ATOM     26  C   UNL     1       3.216   3.441  19.308  0.00  0.00    +0.000 A 
ATOM     27  C   UNL     1       2.967   2.381  18.421  0.00  0.00    +0.000 A 
ATOM     28  C   UNL     1       1.686   1.843  18.261  0.00  0.00    +0.000 A 
ATOM     29  C   UNL     1       0.636   2.340  19.010  0.00  0.00    +0.000 A 
ATOM     30  C   UNL     1       0.869   3.366  19.931  0.00  0.00    +0.000 A 
ATOM     31  C   UNL     1       2.147   3.930  20.086  0.00  0.00    +0.000 A 
ATOM     32  C   UNL     1       2.306   5.041  21.095  0.00  0.00    +0.000 C 
ENDBRANCH  24  26
ENDBRANCH  21  22
ENDBRANCH   1  21
TORSDOF 9
ENDMDL
MODEL 8
REMARK VINA RESULT:      -6.4      2.073      5.274
REMARK  Name = 
REMARK  11 active torsions:
REMARK  status: ('A' for Active; 'I' for Inactive)
REMARK    1  A    between atoms: C_1  and  C_2
REMARK    2  A    between atoms: C_2  and  C_3
REMARK    3  A    between atoms: C_3  and  N_4
REMARK    4  A    between atoms: N_4  and  C_5
REMARK    5  A    between atoms: N_4  and  C_18
REMARK    6  A    between atoms: C_5  and  C_6
REMARK    7  A    between atoms: N_8  and  C_9
REMARK    8  A    between atoms: C_12  and  C_13
REMARK    9  A    between atoms: C_18  and  C_19
REMARK   10  A    between atoms: N_21  and  C_22
REMARK   11  A    between atoms: C_27  and  C_28
REMARK                            x       y       z     vdW  Elec       q    Type
REMARK                         _______ _______ _______ _____ _____    ______ ____
ROOT
ATOM      1  N   UNL     1       2.923   4.209  19.963  0.00  0.00    +0.000 NA
ENDROOT
BRANCH   1   2
ATOM      2  C   UNL     1       2.073   3.716  21.065  0.00  0.00    +0.000 C 
BRANCH   2   4
ATOM      3  C   UNL     1       0.753   2.735  19.103  0.00  0.00    +0.000 C 
ATOM      4  C   UNL     1       0.829   2.941  20.608  0.00  0.00    +0.000 C 
ENDBRANCH   2   4
ENDBRANCH   1   2
BRANCH   1   5
ATOM      5  C   UNL     1       3.334   5.634  20.127  0.00  0.00    +0.000 C 
BRANCH   5   6
ATOM      6  C   UNL     1       2.417   6.674  19.457  0.00  0.00    +0.000 C 
ATOM      7  O   UNL     1       2.054   6.562  18.288  0.00  0.00    +0.000 OA
ATOM      8  N   UNL     1       2.070   7.735  20.286  0.00  0.00    +0.000 N 
ATOM      9  H   UNL     1       2.717   7.951  21.031  0.00  0.00    +0.000 HD
BRANCH   8  10
ATOM     10  C   UNL     1       1.226   8.780  19.864  0.00  0.00    +0.000 A 
ATOM     11  C   UNL     1       0.246   9.322  20.701  0.00  0.00    +0.000 A 
ATOM     12  C   UNL     1      -0.581  10.359  20.246  0.00  0.00    +0.000 A 
ATOM     13  C   UNL     1      -0.451  10.839  18.939  0.00  0.00    +0.000 A 
ATOM     14  C   UNL     1       0.537  10.289  18.108  0.00  0.00    +0.000 A 
ATOM     15  C   UNL     1       1.393   9.288  18.578  0.00  0.00    +0.000 A 
BRANCH  13  16
ATOM     16  C   UNL     1      -1.312  11.916  18.366  0.00  0.00    +0.000 C 
ATOM     17  N   UNL     1      -1.322  13.142  18.968  0.00  0.00    +0.000 N 
ATOM     18  O   UNL     1      -1.994  11.722  17.366  0.00  0.00    +0.000 OA
ATOM     19  H   UNL     1      -0.775  13.405  19.771  0.00  0.00    +0.000 HD
ATOM     20  H   UNL     1      -1.904  13.851  18.539  0.00  0.00    +0.000 HD
ENDBRANCH  13  16
ENDBRANCH   8  10
ENDBRANCH   5   6
ENDBRANCH   1   5
BRANCH   1  21
ATOM     21  C   UNL     1       4.135   3.359  19.799  0.00  0.00    +0.000 C 
BRANCH  21  22
ATOM     22  C   UNL     1       5.107   3.856  18.726  0.00  0.00    +0.000 C 
ATOM     23  O   UNL     1       6.264   4.133  19.054  0.00  0.00    +0.000 OA
ATOM     24  N   UNL     1       4.567   4.030  17.461  0.00  0.00    +0.000 N 
ATOM     25  H   UNL     1       3.562   3.943  17.400  0.00  0.00    +0.000 HD
BRANCH  24  26
ATOM     26  C   UNL     1       5.288   4.351  16.285  0.00  0.00    +0.000 A 
ATOM     27  C   UNL     1       5.616   3.356  15.350  0.00  0.00    +0.000 A 
ATOM     28  C   UNL     1       6.343   3.649  14.192  0.00  0.00    +0.000 A 
ATOM     29  C   UNL     1       6.731   4.951  13.937  0.00  0.00    +0.000 A 
ATOM     30  C   UNL     1       6.378   5.965  14.833  0.00  0.00    +0.000 A 
ATOM     31  C   UNL     1       5.665   5.681  16.011  0.00  0.00    +0.000 A 
ATOM     32  C   UNL     1       5.335   6.834  16.928  0.00  0.00    +0.000 C 
ENDBRANCH  24  26
ENDBRANCH  21  22
ENDBRANCH   1  21
TORSDOF 9
ENDMDL
MODEL 9
REMARK VINA RESULT:      -6.4      2.030      7.384
REMARK  Name = 
REMARK  11 active torsions:
REMARK  status: ('A' for Active; 'I' for Inactive)
REMARK    1  A    between atoms: C_1  and  C_2
REMARK    2  A    between atoms: C_2  and  C_3
REMARK    3  A    between atoms: C_3  and  N_4
REMARK    4  A    between atoms: N_4  and  C_5
REMARK    5  A    between atoms: N_4  and  C_18
REMARK    6  A    between atoms: C_5  and  C_6
REMARK    7  A    between atoms: N_8  and  C_9
REMARK    8  A    between atoms: C_12  and  C_13
REMARK    9  A    between atoms: C_18  and  C_19
REMARK   10  A    between atoms: N_21  and  C_22
REMARK   11  A    between atoms: C_27  and  C_28
REMARK                            x       y       z     vdW  Elec       q    Type
REMARK                         _______ _______ _______ _____ _____    ______ ____
ROOT
ATOM      1  N   UNL     1       2.124   4.080  20.319  0.00  0.00    +0.000 NA
ENDROOT
BRANCH   1   2
ATOM      2  C   UNL     1       2.026   2.864  21.150  0.00  0.00    +0.000 C 
BRANCH   2   4
ATOM      3  C   UNL     1       4.347   2.337  20.204  0.00  0.00    +0.000 C 
ATOM      4  C   UNL     1       3.353   2.112  21.335  0.00  0.00    +0.000 C 
ENDBRANCH   2   4
ENDBRANCH   1   2
BRANCH   1   5
ATOM      5  C   UNL     1       1.387   3.972  19.027  0.00  0.00    +0.000 C 
BRANCH   5   6
ATOM      6  C   UNL     1       2.259   3.993  17.758  0.00  0.00    +0.000 C 
ATOM      7  O   UNL     1       1.882   3.485  16.703  0.00  0.00    +0.000 OA
ATOM      8  N   UNL     1       3.491   4.612  17.932  0.00  0.00    +0.000 N 
ATOM      9  H   UNL     1       3.863   4.612  18.871  0.00  0.00    +0.000 HD
BRANCH   8  10
ATOM     10  C   UNL     1       4.425   4.748  16.886  0.00  0.00    +0.000 A 
ATOM     11  C   UNL     1       4.679   5.980  16.277  0.00  0.00    +0.000 A 
ATOM     12  C   UNL     1       5.612   6.077  15.236  0.00  0.00    +0.000 A 
ATOM     13  C   UNL     1       6.274   4.934  14.775  0.00  0.00    +0.000 A 
ATOM     14  C   UNL     1       6.011   3.702  15.394  0.00  0.00    +0.000 A 
ATOM     15  C   UNL     1       5.118   3.614  16.466  0.00  0.00    +0.000 A 
BRANCH  13  16
ATOM     16  C   UNL     1       7.255   4.944  13.650  0.00  0.00    +0.000 C 
ATOM     17  N   UNL     1       7.027   4.138  12.570  0.00  0.00    +0.000 N 
ATOM     18  O   UNL     1       8.245   5.666  13.674  0.00  0.00    +0.000 OA
ATOM     19  H   UNL     1       6.229   3.537  12.446  0.00  0.00    +0.000 HD
ATOM     20  H   UNL     1       7.704   4.188  11.820  0.00  0.00    +0.000 HD
ENDBRANCH  13  16
ENDBRANCH   8  10
ENDBRANCH   5   6
ENDBRANCH   1   5
BRANCH   1  21
ATOM     21  C   UNL     1       1.647   5.278  21.064  0.00  0.00    +0.000 C 
BRANCH  21  22
ATOM     22  C   UNL     1       1.994   6.611  20.394  0.00  0.00    +0.000 C 
ATOM     23  O   UNL     1       3.029   6.687  19.726  0.00  0.00    +0.000 OA
ATOM     24  N   UNL     1       1.133   7.662  20.668  0.00  0.00    +0.000 N 
ATOM     25  H   UNL     1       0.443   7.486  21.384  0.00  0.00    +0.000 HD
BRANCH  24  26
ATOM     26  C   UNL     1       1.169   8.944  20.066  0.00  0.00    +0.000 A 
ATOM     27  C   UNL     1       1.610   9.104  18.744  0.00  0.00    +0.000 A 
ATOM     28  C   UNL     1       1.671  10.363  18.138  0.00  0.00    +0.000 A 
ATOM     29  C   UNL     1       1.261  11.482  18.839  0.00  0.00    +0.000 A 
ATOM     30  C   UNL     1       0.776  11.340  20.143  0.00  0.00    +0.000 A 
ATOM     31  C   UNL     1       0.730  10.083  20.771  0.00  0.00    +0.000 A 
ATOM     32  C   UNL     1       0.203  10.023  22.184  0.00  0.00    +0.000 C 
ENDBRANCH  24  26
ENDBRANCH  21  22
ENDBRANCH   1  21
TORSDOF 9
ENDMDL
