MODEL 1
REMARK VINA RESULT:      -8.3      0.000      0.000
REMARK  Name = 
REMARK  8 active torsions:
REMARK  status: ('A' for Active; 'I' for Inactive)
REMARK    1  A    between atoms: N_1  and  C_2
REMARK    2  A    between atoms: C_4  and  C_5
REMARK    3  A    between atoms: N_7  and  C_8
REMARK    4  A    between atoms: C_8  and  C_9
REMARK    5  A    between atoms: N_11  and  C_12
REMARK    6  A    between atoms: C_15  and  N_16
REMARK    7  A    between atoms: C_19  and  C_20
REMARK    8  A    between atoms: C_20  and  O_22
REMARK                            x       y       z     vdW  Elec       q    Type
REMARK                         _______ _______ _______ _____ _____    ______ ____
ROOT
ATOM      1  C   UNL     1       0.759  13.728  19.480  0.00  0.00    +0.000 C 
ATOM      2  C   UNL     1       1.551  12.475  19.798  0.00  0.00    +0.000 C 
ATOM      3  N   UNL     1       0.677  11.413  19.400  0.00  0.00    +0.000 N 
ATOM      4  C   UNL     1      -0.400  11.935  18.693  0.00  0.00    +0.000 C 
ATOM      5  O   UNL     1      -1.355  11.352  18.213  0.00  0.00    +0.000 OA
ATOM      6  O   UNL     1      -0.252  13.291  18.561  0.00  0.00    +0.000 OA
ENDROOT
BRANCH   3   7
ATOM      7  C   UNL     1       1.053  10.044  19.468  0.00  0.00    +0.000 A 
ATOM      8  C   UNL     1       1.681   9.406  18.400  0.00  0.00    +0.000 A 
ATOM      9  C   UNL     1       2.141   8.086  18.506  0.00  0.00    +0.000 A 
ATOM     10  C   UNL     1       1.979   7.331  19.673  0.00  0.00    +0.000 A 
ATOM     11  C   UNL     1       1.323   7.967  20.730  0.00  0.00    +0.000 A 
ATOM     12  C   UNL     1       0.870   9.298  20.639  0.00  0.00    +0.000 A 
BRANCH  10  13
ATOM     13  N   UNL     1       2.490   6.052  19.764  0.00  0.00    +0.000 N 
ATOM     14  C   UNL     1       3.740   5.660  19.125  0.00  0.00    +0.000 C 
ATOM     15  C   UNL     1       3.485   4.363  18.350  0.00  0.00    +0.000 C 
ATOM     16  C   UNL     1       2.888   3.260  19.237  0.00  0.00    +0.000 C 
ATOM     17  C   UNL     1       1.664   3.778  20.014  0.00  0.00    +0.000 C 
ATOM     18  C   UNL     1       1.954   5.094  20.737  0.00  0.00    +0.000 C 
BRANCH  16  19
ATOM     19  C   UNL     1       3.929   2.675  20.177  0.00  0.00    +0.000 C 
ATOM     20  O   UNL     1       3.705   2.268  21.307  0.00  0.00    +0.000 OA
BRANCH  19  21
ATOM     21  O   UNL     1       5.164   2.604  19.632  0.00  0.00    +0.000 OA
ATOM     22  H   UNL     1       5.183   2.300  18.705  0.00  0.00    +0.000 HD
ENDBRANCH  19  21
ENDBRANCH  16  19
ENDBRANCH  10  13
ENDBRANCH   3   7
BRANCH   1  23
ATOM     23  C   UNL     1       1.636  14.810  18.848  0.00  0.00    +0.000 C 
BRANCH  23  26
ATOM     24  C   UNL     1       4.006  15.056  18.196  0.00  0.00    +0.000 C 
ATOM     25  O   UNL     1       3.690  15.583  17.130  0.00  0.00    +0.000 OA
ATOM     26  N   UNL     1       3.056  14.614  19.093  0.00  0.00    +0.000 N 
ATOM     27  H   UNL     1       3.312  14.032  19.878  0.00  0.00    +0.000 HD
BRANCH  24  30
ATOM     28  C   UNL     1       7.749  14.204  18.067  0.00  0.00    +0.000 A 
ATOM     29  C   UNL     1       6.405  14.338  17.682  0.00  0.00    +0.000 A 
ATOM     30  C   UNL     1       5.453  14.894  18.548  0.00  0.00    +0.000 A 
ATOM     31  C   UNL     1       5.855  15.274  19.842  0.00  0.00    +0.000 A 
ATOM     32  C   UNL     1       7.176  15.101  20.258  0.00  0.00    +0.000 A 
ATOM     33  C   UNL     1       8.111  14.553  19.381  0.00  0.00    +0.000 A 
ATOM     34 CL   UNL     1       9.734  14.337  19.937  0.00  0.00    +0.000 Cl
BRANCH  28  35
ATOM     35  N   UNL     1       8.632  13.514  17.215  0.00  0.00    +0.000 N 
ATOM     36  H   UNL     1       8.666  12.510  17.356  0.00  0.00    +0.000 HD
ATOM     37  H   UNL     1       8.507  13.767  16.235  0.00  0.00    +0.000 HD
ENDBRANCH  28  35
ENDBRANCH  24  30
ENDBRANCH  23  26
ENDBRANCH   1  23
TORSDOF 8
ENDMDL
MODEL 2
REMARK VINA RESULT:      -8.2      0.947      1.300
REMARK  Name = 
REMARK  8 active torsions:
REMARK  status: ('A' for Active; 'I' for Inactive)
REMARK    1  A    between atoms: N_1  and  C_2
REMARK    2  A    between atoms: C_4  and  C_5
REMARK    3  A    between atoms: N_7  and  C_8
REMARK    4  A    between atoms: C_8  and  C_9
REMARK    5  A    between atoms: N_11  and  C_12
REMARK    6  A    between atoms: C_15  and  N_16
REMARK    7  A    between atoms: C_19  and  C_20
REMARK    8  A    between atoms: C_20  and  O_22
REMARK                            x       y       z     vdW  Elec       q    Type
REMARK                         _______ _______ _______ _____ _____    ______ ____
ROOT
ATOM      1  C   UNL     1       0.224  13.918  19.382  0.00  0.00    +0.000 C 
ATOM      2  C   UNL     1       1.220  12.808  19.654  0.00  0.00    +0.000 C 
ATOM      3  N   UNL     1       0.494  11.616  19.332  0.00  0.00    +0.000 N 
ATOM      4  C   UNL     1      -0.697  11.952  18.699  0.00  0.00    +0.000 C 
ATOM      5  O   UNL     1      -1.582  11.220  18.296  0.00  0.00    +0.000 OA
ATOM      6  O   UNL     1      -0.769  13.312  18.544  0.00  0.00    +0.000 OA
ENDROOT
BRANCH   3   7
ATOM      7  C   UNL     1       1.081  10.323  19.387  0.00  0.00    +0.000 A 
ATOM      8  C   UNL     1       1.046   9.554  20.549  0.00  0.00    +0.000 A 
ATOM      9  C   UNL     1       1.537   8.241  20.571  0.00  0.00    +0.000 A 
ATOM     10  C   UNL     1       2.104   7.638  19.444  0.00  0.00    +0.000 A 
ATOM     11  C   UNL     1       2.162   8.423  18.290  0.00  0.00    +0.000 A 
ATOM     12  C   UNL     1       1.658   9.738  18.252  0.00  0.00    +0.000 A 
BRANCH  10  13
ATOM     13  N   UNL     1       2.529   6.325  19.484  0.00  0.00    +0.000 N 
ATOM     14  C   UNL     1       3.797   5.895  18.909  0.00  0.00    +0.000 C 
ATOM     15  C   UNL     1       3.525   4.669  18.031  0.00  0.00    +0.000 C 
ATOM     16  C   UNL     1       2.799   3.553  18.796  0.00  0.00    +0.000 C 
ATOM     17  C   UNL     1       1.554   4.097  19.518  0.00  0.00    +0.000 C 
ATOM     18  C   UNL     1       1.867   5.343  20.349  0.00  0.00    +0.000 C 
BRANCH  16  19
ATOM     19  C   UNL     1       3.731   2.843  19.765  0.00  0.00    +0.000 C 
ATOM     20  O   UNL     1       3.419   2.453  20.879  0.00  0.00    +0.000 OA
BRANCH  19  21
ATOM     21  O   UNL     1       4.970   2.638  19.264  0.00  0.00    +0.000 OA
ATOM     22  H   UNL     1       5.427   1.852  19.618  0.00  0.00    +0.000 HD
ENDBRANCH  19  21
ENDBRANCH  16  19
ENDBRANCH  10  13
ENDBRANCH   3   7
BRANCH   1  23
ATOM     23  C   UNL     1       0.877  15.107  18.677  0.00  0.00    +0.000 C 
BRANCH  23  26
ATOM     24  C   UNL     1       3.111  16.102  18.327  0.00  0.00    +0.000 C 
ATOM     25  O   UNL     1       2.617  17.206  18.099  0.00  0.00    +0.000 OA
ATOM     26  N   UNL     1       2.325  15.000  18.592  0.00  0.00    +0.000 N 
ATOM     27  H   UNL     1       2.720  14.070  18.607  0.00  0.00    +0.000 HD
BRANCH  24  30
ATOM     28  C   UNL     1       6.661  14.735  17.799  0.00  0.00    +0.000 A 
ATOM     29  C   UNL     1       5.261  14.842  17.760  0.00  0.00    +0.000 A 
ATOM     30  C   UNL     1       4.600  15.937  18.333  0.00  0.00    +0.000 A 
ATOM     31  C   UNL     1       5.361  16.914  19.001  0.00  0.00    +0.000 A 
ATOM     32  C   UNL     1       6.749  16.797  19.093  0.00  0.00    +0.000 A 
ATOM     33  C   UNL     1       7.391  15.705  18.511  0.00  0.00    +0.000 A 
ATOM     34 CL   UNL     1       9.109  15.584  18.660  0.00  0.00    +0.000 Cl
BRANCH  28  35
ATOM     35  N   UNL     1       7.264  13.552  17.333  0.00  0.00    +0.000 N 
ATOM     36  H   UNL     1       8.176  13.350  17.731  0.00  0.00    +0.000 HD
ATOM     37  H   UNL     1       6.634  12.750  17.375  0.00  0.00    +0.000 HD
ENDBRANCH  28  35
ENDBRANCH  24  30
ENDBRANCH  23  26
ENDBRANCH   1  23
TORSDOF 8
ENDMDL
MODEL 3
REMARK VINA RESULT:      -8.1      3.227      7.212
REMARK  Name = 
REMARK  8 active torsions:
REMARK  status: ('A' for Active; 'I' for Inactive)
REMARK    1  A    between atoms: N_1  and  C_2
REMARK    2  A    between atoms: C_4  and  C_5
REMARK    3  A    between atoms: N_7  and  C_8
REMARK    4  A    between atoms: C_8  and  C_9
REMARK    5  A    between atoms: N_11  and  C_12
REMARK    6  A    between atoms: C_15  and  N_16
REMARK    7  A    between atoms: C_19  and  C_20
REMARK    8  A    between atoms: C_20  and  O_22
REMARK                            x       y       z     vdW  Elec       q    Type
REMARK                         _______ _______ _______ _____ _____    ______ ____
ROOT
ATOM      1  C   UNL     1       5.550   5.875  16.586  0.00  0.00    +0.000 C 
ATOM      2  C   UNL     1       4.728   7.079  17.003  0.00  0.00    +0.000 C 
ATOM      3  N   UNL     1       3.721   6.520  17.855  0.00  0.00    +0.000 N 
ATOM      4  C   UNL     1       4.030   5.195  18.137  0.00  0.00    +0.000 C 
ATOM      5  O   UNL     1       3.408   4.389  18.805  0.00  0.00    +0.000 OA
ATOM      6  O   UNL     1       5.224   4.865  17.550  0.00  0.00    +0.000 OA
ENDROOT
BRANCH   3   7
ATOM      7  C   UNL     1       2.756   7.319  18.526  0.00  0.00    +0.000 A 
ATOM      8  C   UNL     1       2.387   7.062  19.846  0.00  0.00    +0.000 A 
ATOM      9  C   UNL     1       1.510   7.911  20.537  0.00  0.00    +0.000 A 
ATOM     10  C   UNL     1       0.944   9.043  19.943  0.00  0.00    +0.000 A 
ATOM     11  C   UNL     1       1.296   9.279  18.611  0.00  0.00    +0.000 A 
ATOM     12  C   UNL     1       2.187   8.441  17.911  0.00  0.00    +0.000 A 
BRANCH  10  13
ATOM     13  N   UNL     1       0.127   9.888  20.666  0.00  0.00    +0.000 N 
ATOM     14  C   UNL     1      -0.274  11.200  20.176  0.00  0.00    +0.000 C 
ATOM     15  C   UNL     1      -0.018  12.218  21.292  0.00  0.00    +0.000 C 
ATOM     16  C   UNL     1      -0.707  11.828  22.608  0.00  0.00    +0.000 C 
ATOM     17  C   UNL     1      -0.378  10.376  22.995  0.00  0.00    +0.000 C 
ATOM     18  C   UNL     1      -0.611   9.403  21.838  0.00  0.00    +0.000 C 
BRANCH  16  19
ATOM     19  C   UNL     1      -2.210  12.052  22.538  0.00  0.00    +0.000 C 
ATOM     20  O   UNL     1      -3.018  11.650  23.360  0.00  0.00    +0.000 OA
BRANCH  19  21
ATOM     21  O   UNL     1      -2.593  12.790  21.472  0.00  0.00    +0.000 OA
ATOM     22  H   UNL     1      -3.062  12.290  20.778  0.00  0.00    +0.000 HD
ENDBRANCH  19  21
ENDBRANCH  16  19
ENDBRANCH  10  13
ENDBRANCH   3   7
BRANCH   1  23
ATOM     23  C   UNL     1       7.049   6.178  16.602  0.00  0.00    +0.000 C 
BRANCH  23  26
ATOM     24  C   UNL     1       8.045   7.920  18.043  0.00  0.00    +0.000 C 
ATOM     25  O   UNL     1       8.387   7.080  18.874  0.00  0.00    +0.000 OA
ATOM     26  N   UNL     1       7.351   7.568  16.904  0.00  0.00    +0.000 N 
ATOM     27  H   UNL     1       6.924   8.270  16.316  0.00  0.00    +0.000 HD
BRANCH  24  30
ATOM     28  C   UNL     1       8.196  11.746  17.747  0.00  0.00    +0.000 A 
ATOM     29  C   UNL     1       7.829  10.411  17.512  0.00  0.00    +0.000 A 
ATOM     30  C   UNL     1       8.392   9.362  18.252  0.00  0.00    +0.000 A 
ATOM     31  C   UNL     1       9.379   9.662  19.209  0.00  0.00    +0.000 A 
ATOM     32  C   UNL     1       9.793  10.979  19.419  0.00  0.00    +0.000 A 
ATOM     33  C   UNL     1       9.216  12.010  18.680  0.00  0.00    +0.000 A 
ATOM     34 CL   UNL     1       9.765  13.627  18.954  0.00  0.00    +0.000 Cl
BRANCH  28  35
ATOM     35  N   UNL     1       7.706  12.746  16.885  0.00  0.00    +0.000 N 
ATOM     36  H   UNL     1       8.387  13.121  16.233  0.00  0.00    +0.000 HD
ATOM     37  H   UNL     1       6.836  12.473  16.426  0.00  0.00    +0.000 HD
ENDBRANCH  28  35
ENDBRANCH  24  30
ENDBRANCH  23  26
ENDBRANCH   1  23
TORSDOF 8
ENDMDL
MODEL 4
REMARK VINA RESULT:      -8.0      1.572      2.067
REMARK  Name = 
REMARK  8 active torsions:
REMARK  status: ('A' for Active; 'I' for Inactive)
REMARK    1  A    between atoms: N_1  and  C_2
REMARK    2  A    between atoms: C_4  and  C_5
REMARK    3  A    between atoms: N_7  and  C_8
REMARK    4  A    between atoms: C_8  and  C_9
REMARK    5  A    between atoms: N_11  and  C_12
REMARK    6  A    between atoms: C_15  and  N_16
REMARK    7  A    between atoms: C_19  and  C_20
REMARK    8  A    between atoms: C_20  and  O_22
REMARK                            x       y       z     vdW  Elec       q    Type
REMARK                         _______ _______ _______ _____ _____    ______ ____
ROOT
ATOM      1  C   UNL     1      -0.087  13.276  19.720  0.00  0.00    +0.000 C 
ATOM      2  C   UNL     1       0.998  12.226  19.846  0.00  0.00    +0.000 C 
ATOM      3  N   UNL     1       0.355  11.021  19.413  0.00  0.00    +0.000 N 
ATOM      4  C   UNL     1      -0.879  11.328  18.850  0.00  0.00    +0.000 C 
ATOM      5  O   UNL     1      -1.719  10.575  18.391  0.00  0.00    +0.000 OA
ATOM      6  O   UNL     1      -1.058  12.687  18.845  0.00  0.00    +0.000 OA
ENDROOT
BRANCH   3   7
ATOM      7  C   UNL     1       1.039   9.780  19.313  0.00  0.00    +0.000 A 
ATOM      8  C   UNL     1       1.155   8.920  20.404  0.00  0.00    +0.000 A 
ATOM      9  C   UNL     1       1.742   7.654  20.277  0.00  0.00    +0.000 A 
ATOM     10  C   UNL     1       2.261   7.191  19.064  0.00  0.00    +0.000 A 
ATOM     11  C   UNL     1       2.168   8.068  17.980  0.00  0.00    +0.000 A 
ATOM     12  C   UNL     1       1.566   9.337  18.093  0.00  0.00    +0.000 A 
BRANCH  10  13
ATOM     13  N   UNL     1       2.785   5.918  18.959  0.00  0.00    +0.000 N 
ATOM     14  C   UNL     1       4.021   5.522  19.621  0.00  0.00    +0.000 C 
ATOM     15  C   UNL     1       4.911   4.829  18.584  0.00  0.00    +0.000 C 
ATOM     16  C   UNL     1       4.196   3.659  17.890  0.00  0.00    +0.000 C 
ATOM     17  C   UNL     1       2.822   4.094  17.350  0.00  0.00    +0.000 C 
ATOM     18  C   UNL     1       1.987   4.816  18.408  0.00  0.00    +0.000 C 
BRANCH  16  19
ATOM     19  C   UNL     1       4.069   2.457  18.812  0.00  0.00    +0.000 C 
ATOM     20  O   UNL     1       3.178   1.623  18.760  0.00  0.00    +0.000 OA
BRANCH  19  21
ATOM     21  O   UNL     1       5.078   2.359  19.707  0.00  0.00    +0.000 OA
ATOM     22  H   UNL     1       5.628   3.161  19.790  0.00  0.00    +0.000 HD
ENDBRANCH  19  21
ENDBRANCH  16  19
ENDBRANCH  10  13
ENDBRANCH   3   7
BRANCH   1  23
ATOM     23  C   UNL     1       0.451  14.582  19.132  0.00  0.00    +0.000 C 
BRANCH  23  26
ATOM     24  C   UNL     1       2.563  15.716  18.538  0.00  0.00    +0.000 C 
ATOM     25  O   UNL     1       1.952  16.687  18.092  0.00  0.00    +0.000 OA
ATOM     26  N   UNL     1       1.902  14.616  19.043  0.00  0.00    +0.000 N 
ATOM     27  H   UNL     1       2.397  13.759  19.246  0.00  0.00    +0.000 HD
BRANCH  24  30
ATOM     28  C   UNL     1       6.235  16.650  19.171  0.00  0.00    +0.000 A 
ATOM     29  C   UNL     1       4.831  16.694  19.198  0.00  0.00    +0.000 A 
ATOM     30  C   UNL     1       4.061  15.718  18.549  0.00  0.00    +0.000 A 
ATOM     31  C   UNL     1       4.719  14.712  17.818  0.00  0.00    +0.000 A 
ATOM     32  C   UNL     1       6.113  14.684  17.739  0.00  0.00    +0.000 A 
ATOM     33  C   UNL     1       6.863  15.657  18.398  0.00  0.00    +0.000 A 
ATOM     34 CL   UNL     1       8.585  15.601  18.263  0.00  0.00    +0.000 Cl
BRANCH  28  35
ATOM     35  N   UNL     1       6.957  17.727  19.720  0.00  0.00    +0.000 N 
ATOM     36  H   UNL     1       6.462  18.257  20.429  0.00  0.00    +0.000 HD
ATOM     37  H   UNL     1       7.894  17.456  20.019  0.00  0.00    +0.000 HD
ENDBRANCH  28  35
ENDBRANCH  24  30
ENDBRANCH  23  26
ENDBRANCH   1  23
TORSDOF 8
ENDMDL
MODEL 5
REMARK VINA RESULT:      -8.0      1.178      1.708
REMARK  Name = 
REMARK  8 active torsions:
REMARK  status: ('A' for Active; 'I' for Inactive)
REMARK    1  A    between atoms: N_1  and  C_2
REMARK    2  A    between atoms: C_4  and  C_5
REMARK    3  A    between atoms: N_7  and  C_8
REMARK    4  A    between atoms: C_8  and  C_9
REMARK    5  A    between atoms: N_11  and  C_12
REMARK    6  A    between atoms: C_15  and  N_16
REMARK    7  A    between atoms: C_19  and  C_20
REMARK    8  A    between atoms: C_20  and  O_22
REMARK                            x       y       z     vdW  Elec       q    Type
REMARK                         _______ _______ _______ _____ _____    ______ ____
ROOT
ATOM      1  C   UNL     1      -0.182  13.313  19.385  0.00  0.00    +0.000 C 
ATOM      2  C   UNL     1       0.801  12.254  19.843  0.00  0.00    +0.000 C 
ATOM      3  N   UNL     1       0.273  11.042  19.290  0.00  0.00    +0.000 N 
ATOM      4  C   UNL     1      -0.748  11.344  18.397  0.00  0.00    +0.000 C 
ATOM      5  O   UNL     1      -1.447  10.585  17.749  0.00  0.00    +0.000 OA
ATOM      6  O   UNL     1      -0.887  12.703  18.296  0.00  0.00    +0.000 OA
ENDROOT
BRANCH   3   7
ATOM      7  C   UNL     1       0.929   9.789  19.425  0.00  0.00    +0.000 A 
ATOM      8  C   UNL     1       0.863   9.055  20.609  0.00  0.00    +0.000 A 
ATOM      9  C   UNL     1       1.426   7.775  20.707  0.00  0.00    +0.000 A 
ATOM     10  C   UNL     1       2.098   7.172  19.639  0.00  0.00    +0.000 A 
ATOM     11  C   UNL     1       2.186   7.924  18.464  0.00  0.00    +0.000 A 
ATOM     12  C   UNL     1       1.611   9.206  18.350  0.00  0.00    +0.000 A 
BRANCH  10  13
ATOM     13  N   UNL     1       2.595   5.889  19.749  0.00  0.00    +0.000 N 
ATOM     14  C   UNL     1       3.884   5.497  19.193  0.00  0.00    +0.000 C 
ATOM     15  C   UNL     1       3.677   4.211  18.386  0.00  0.00    +0.000 C 
ATOM     16  C   UNL     1       3.014   3.101  19.217  0.00  0.00    +0.000 C 
ATOM     17  C   UNL     1       1.743   3.617  19.914  0.00  0.00    +0.000 C 
ATOM     18  C   UNL     1       1.990   4.923  20.672  0.00  0.00    +0.000 C 
BRANCH  16  19
ATOM     19  C   UNL     1       3.986   2.499  20.219  0.00  0.00    +0.000 C 
ATOM     20  O   UNL     1       3.714   2.211  21.374  0.00  0.00    +0.000 OA
BRANCH  19  21
ATOM     21  O   UNL     1       5.214   2.266  19.702  0.00  0.00    +0.000 OA
ATOM     22  H   UNL     1       5.227   1.641  18.953  0.00  0.00    +0.000 HD
ENDBRANCH  19  21
ENDBRANCH  16  19
ENDBRANCH  10  13
ENDBRANCH   3   7
BRANCH   1  23
ATOM     23  C   UNL     1       0.529  14.588  18.926  0.00  0.00    +0.000 C 
BRANCH  23  26
ATOM     24  C   UNL     1       2.814  15.516  19.063  0.00  0.00    +0.000 C 
ATOM     25  O   UNL     1       2.375  16.646  19.273  0.00  0.00    +0.000 OA
ATOM     26  N   UNL     1       1.974  14.443  18.848  0.00  0.00    +0.000 N 
ATOM     27  H   UNL     1       2.331  13.561  18.507  0.00  0.00    +0.000 HD
BRANCH  24  30
ATOM     28  C   UNL     1       6.522  15.348  20.052  0.00  0.00    +0.000 A 
ATOM     29  C   UNL     1       5.139  15.584  20.124  0.00  0.00    +0.000 A 
ATOM     30  C   UNL     1       4.293  15.280  19.047  0.00  0.00    +0.000 A 
ATOM     31  C   UNL     1       4.860  14.777  17.862  0.00  0.00    +0.000 A 
ATOM     32  C   UNL     1       6.239  14.584  17.757  0.00  0.00    +0.000 A 
ATOM     33  C   UNL     1       7.064  14.884  18.839  0.00  0.00    +0.000 A 
ATOM     34 CL   UNL     1       8.768  14.649  18.667  0.00  0.00    +0.000 Cl
BRANCH  28  35
ATOM     35  N   UNL     1       7.342  15.798  21.104  0.00  0.00    +0.000 N 
ATOM     36  H   UNL     1       6.931  16.520  21.687  0.00  0.00    +0.000 HD
ATOM     37  H   UNL     1       7.732  15.031  21.651  0.00  0.00    +0.000 HD
ENDBRANCH  28  35
ENDBRANCH  24  30
ENDBRANCH  23  26
ENDBRANCH   1  23
TORSDOF 8
ENDMDL
MODEL 6
REMARK VINA RESULT:      -8.0      4.600      7.185
REMARK  Name = 
REMARK  8 active torsions:
REMARK  status: ('A' for Active; 'I' for Inactive)
REMARK    1  A    between atoms: N_1  and  C_2
REMARK    2  A    between atoms: C_4  and  C_5
REMARK    3  A    between atoms: N_7  and  C_8
REMARK    4  A    between atoms: C_8  and  C_9
REMARK    5  A    between atoms: N_11  and  C_12
REMARK    6  A    between atoms: C_15  and  N_16
REMARK    7  A    between atoms: C_19  and  C_20
REMARK    8  A    between atoms: C_20  and  O_22
REMARK                            x       y       z     vdW  Elec       q    Type
REMARK                         _______ _______ _______ _____ _____    ______ ____
ROOT
ATOM      1  C   UNL     1      -0.082  13.438  19.121  0.00  0.00    +0.000 C 
ATOM      2  C   UNL     1      -0.212  11.976  19.498  0.00  0.00    +0.000 C 
ATOM      3  N   UNL     1       0.954  11.374  18.922  0.00  0.00    +0.000 N 
ATOM      4  C   UNL     1       1.819  12.366  18.476  0.00  0.00    +0.000 C 
ATOM      5  O   UNL     1       2.894  12.249  17.917  0.00  0.00    +0.000 OA
ATOM      6  O   UNL     1       1.301  13.599  18.775  0.00  0.00    +0.000 OA
ENDROOT
BRANCH   3   7
ATOM      7  C   UNL     1       1.267   9.998  19.089  0.00  0.00    +0.000 A 
ATOM      8  C   UNL     1       1.841   9.250  18.062  0.00  0.00    +0.000 A 
ATOM      9  C   UNL     1       2.240   7.922  18.261  0.00  0.00    +0.000 A 
ATOM     10  C   UNL     1       2.070   7.267  19.485  0.00  0.00    +0.000 A 
ATOM     11  C   UNL     1       1.469   8.013  20.503  0.00  0.00    +0.000 A 
ATOM     12  C   UNL     1       1.076   9.353  20.318  0.00  0.00    +0.000 A 
BRANCH  10  13
ATOM     13  N   UNL     1       2.523   5.976  19.666  0.00  0.00    +0.000 N 
ATOM     14  C   UNL     1       3.761   5.488  19.071  0.00  0.00    +0.000 C 
ATOM     15  C   UNL     1       3.458   4.156  18.377  0.00  0.00    +0.000 C 
ATOM     16  C   UNL     1       2.802   3.140  19.325  0.00  0.00    +0.000 C 
ATOM     17  C   UNL     1       1.594   3.761  20.049  0.00  0.00    +0.000 C 
ATOM     18  C   UNL     1       1.934   5.106  20.691  0.00  0.00    +0.000 C 
BRANCH  16  19
ATOM     19  C   UNL     1       3.805   2.572  20.315  0.00  0.00    +0.000 C 
ATOM     20  O   UNL     1       3.553   2.260  21.469  0.00  0.00    +0.000 OA
BRANCH  19  21
ATOM     21  O   UNL     1       5.039   2.400  19.789  0.00  0.00    +0.000 OA
ATOM     22  H   UNL     1       5.771   2.685  20.368  0.00  0.00    +0.000 HD
ENDBRANCH  19  21
ENDBRANCH  16  19
ENDBRANCH  10  13
ENDBRANCH   3   7
BRANCH   1  23
ATOM     23  C   UNL     1      -0.461  14.360  20.281  0.00  0.00    +0.000 C 
BRANCH  23  26
ATOM     24  C   UNL     1      -2.733  14.721  21.182  0.00  0.00    +0.000 C 
ATOM     25  O   UNL     1      -2.747  15.879  20.766  0.00  0.00    +0.000 OA
ATOM     26  N   UNL     1      -1.632  13.907  21.015  0.00  0.00    +0.000 N 
ATOM     27  H   UNL     1      -1.557  13.026  21.504  0.00  0.00    +0.000 HD
BRANCH  24  30
ATOM     28  C   UNL     1      -5.028  12.871  23.644  0.00  0.00    +0.000 A 
ATOM     29  C   UNL     1      -3.866  13.374  23.035  0.00  0.00    +0.000 A 
ATOM     30  C   UNL     1      -3.936  14.163  21.878  0.00  0.00    +0.000 A 
ATOM     31  C   UNL     1      -5.195  14.407  21.300  0.00  0.00    +0.000 A 
ATOM     32  C   UNL     1      -6.355  13.872  21.864  0.00  0.00    +0.000 A 
ATOM     33  C   UNL     1      -6.268  13.096  23.019  0.00  0.00    +0.000 A 
ATOM     34 CL   UNL     1      -7.723  12.436  23.680  0.00  0.00    +0.000 Cl
BRANCH  28  35
ATOM     35  N   UNL     1      -4.895  11.972  24.719  0.00  0.00    +0.000 N 
ATOM     36  H   UNL     1      -5.733  11.845  25.277  0.00  0.00    +0.000 HD
ATOM     37  H   UNL     1      -4.476  11.086  24.437  0.00  0.00    +0.000 HD
ENDBRANCH  28  35
ENDBRANCH  24  30
ENDBRANCH  23  26
ENDBRANCH   1  23
TORSDOF 8
ENDMDL
MODEL 7
REMARK VINA RESULT:      -7.9      3.264      7.418
REMARK  Name = 
REMARK  8 active torsions:
REMARK  status: ('A' for Active; 'I' for Inactive)
REMARK    1  A    between atoms: N_1  and  C_2
REMARK    2  A    between atoms: C_4  and  C_5
REMARK    3  A    between atoms: N_7  and  C_8
REMARK    4  A    between atoms: C_8  and  C_9
REMARK    5  A    between atoms: N_11  and  C_12
REMARK    6  A    between atoms: C_15  and  N_16
REMARK    7  A    between atoms: C_19  and  C_20
REMARK    8  A    between atoms: C_20  and  O_22
REMARK                            x       y       z     vdW  Elec       q    Type
REMARK                         _______ _______ _______ _____ _____    ______ ____
ROOT
ATOM      1  C   UNL     1       5.332   5.831  17.007  0.00  0.00    +0.000 C 
ATOM      2  C   UNL     1       4.485   7.088  17.032  0.00  0.00    +0.000 C 
ATOM      3  N   UNL     1       3.587   6.868  18.126  0.00  0.00    +0.000 N 
ATOM      4  C   UNL     1       3.992   5.749  18.843  0.00  0.00    +0.000 C 
ATOM      5  O   UNL     1       3.475   5.239  19.821  0.00  0.00    +0.000 OA
ATOM      6  O   UNL     1       5.147   5.247  18.303  0.00  0.00    +0.000 OA
ENDROOT
BRANCH   3   7
ATOM      7  C   UNL     1       2.642   7.841  18.549  0.00  0.00    +0.000 A 
ATOM      8  C   UNL     1       2.195   8.845  17.691  0.00  0.00    +0.000 A 
ATOM      9  C   UNL     1       1.189   9.742  18.078  0.00  0.00    +0.000 A 
ATOM     10  C   UNL     1       0.595   9.696  19.343  0.00  0.00    +0.000 A 
ATOM     11  C   UNL     1       1.067   8.705  20.208  0.00  0.00    +0.000 A 
ATOM     12  C   UNL     1       2.067   7.790  19.825  0.00  0.00    +0.000 A 
BRANCH  10  13
ATOM     13  N   UNL     1      -0.430  10.559  19.675  0.00  0.00    +0.000 N 
ATOM     14  C   UNL     1      -1.441  10.982  18.715  0.00  0.00    +0.000 C 
ATOM     15  C   UNL     1      -1.554  12.508  18.791  0.00  0.00    +0.000 C 
ATOM     16  C   UNL     1      -1.832  13.003  20.218  0.00  0.00    +0.000 C 
ATOM     17  C   UNL     1      -0.832  12.396  21.218  0.00  0.00    +0.000 C 
ATOM     18  C   UNL     1      -0.724  10.877  21.077  0.00  0.00    +0.000 C 
BRANCH  16  19
ATOM     19  C   UNL     1      -3.267  12.722  20.637  0.00  0.00    +0.000 C 
ATOM     20  O   UNL     1      -3.643  12.562  21.787  0.00  0.00    +0.000 OA
BRANCH  19  21
ATOM     21  O   UNL     1      -4.132  12.697  19.598  0.00  0.00    +0.000 OA
ATOM     22  H   UNL     1      -3.723  12.514  18.732  0.00  0.00    +0.000 HD
ENDBRANCH  19  21
ENDBRANCH  16  19
ENDBRANCH  10  13
ENDBRANCH   3   7
BRANCH   1  23
ATOM     23  C   UNL     1       6.809   6.146  16.760  0.00  0.00    +0.000 C 
BRANCH  23  26
ATOM     24  C   UNL     1       7.997   7.860  18.085  0.00  0.00    +0.000 C 
ATOM     25  O   UNL     1       8.441   7.004  18.849  0.00  0.00    +0.000 OA
ATOM     26  N   UNL     1       7.155   7.530  17.042  0.00  0.00    +0.000 N 
ATOM     27  H   UNL     1       6.658   8.244  16.528  0.00  0.00    +0.000 HD
BRANCH  24  30
ATOM     28  C   UNL     1       8.232  11.677  17.729  0.00  0.00    +0.000 A 
ATOM     29  C   UNL     1       7.834  10.346  17.516  0.00  0.00    +0.000 A 
ATOM     30  C   UNL     1       8.377   9.296  18.270  0.00  0.00    +0.000 A 
ATOM     31  C   UNL     1       9.373   9.589  19.219  0.00  0.00    +0.000 A 
ATOM     32  C   UNL     1       9.816  10.900  19.407  0.00  0.00    +0.000 A 
ATOM     33  C   UNL     1       9.260  11.932  18.654  0.00  0.00    +0.000 A 
ATOM     34 CL   UNL     1       9.846  13.540  18.901  0.00  0.00    +0.000 Cl
BRANCH  28  35
ATOM     35  N   UNL     1       7.761  12.673  16.853  0.00  0.00    +0.000 N 
ATOM     36  H   UNL     1       6.800  12.556  16.549  0.00  0.00    +0.000 HD
ATOM     37  H   UNL     1       7.950  13.615  17.195  0.00  0.00    +0.000 HD
ENDBRANCH  28  35
ENDBRANCH  24  30
ENDBRANCH  23  26
ENDBRANCH   1  23
TORSDOF 8
ENDMDL
MODEL 8
REMARK VINA RESULT:      -7.8      4.115      9.757
REMARK  Name = 
REMARK  8 active torsions:
REMARK  status: ('A' for Active; 'I' for Inactive)
REMARK    1  A    between atoms: N_1  and  C_2
REMARK    2  A    between atoms: C_4  and  C_5
REMARK    3  A    between atoms: N_7  and  C_8
REMARK    4  A    between atoms: C_8  and  C_9
REMARK    5  A    between atoms: N_11  and  C_12
REMARK    6  A    between atoms: C_15  and  N_16
REMARK    7  A    between atoms: C_19  and  C_20
REMARK    8  A    between atoms: C_20  and  O_22
REMARK                            x       y       z     vdW  Elec       q    Type
REMARK                         _______ _______ _______ _____ _____    ______ ____
ROOT
ATOM      1  C   UNL     1       5.329   4.153  17.690  0.00  0.00    +0.000 C 
ATOM      2  C   UNL     1       5.826   5.375  18.436  0.00  0.00    +0.000 C 
ATOM      3  N   UNL     1       6.788   5.949  17.542  0.00  0.00    +0.000 N 
ATOM      4  C   UNL     1       6.709   5.318  16.306  0.00  0.00    +0.000 C 
ATOM      5  O   UNL     1       7.373   5.513  15.304  0.00  0.00    +0.000 OA
ATOM      6  O   UNL     1       5.704   4.387  16.325  0.00  0.00    +0.000 OA
ENDROOT
BRANCH   3   7
ATOM      7  C   UNL     1       7.466   7.165  17.824  0.00  0.00    +0.000 A 
ATOM      8  C   UNL     1       7.183   8.337  17.125  0.00  0.00    +0.000 A 
ATOM      9  C   UNL     1       7.781   9.557  17.472  0.00  0.00    +0.000 A 
ATOM     10  C   UNL     1       8.704   9.665  18.517  0.00  0.00    +0.000 A 
ATOM     11  C   UNL     1       9.005   8.481  19.195  0.00  0.00    +0.000 A 
ATOM     12  C   UNL     1       8.400   7.253  18.865  0.00  0.00    +0.000 A 
BRANCH  10  13
ATOM     13  N   UNL     1       9.235  10.889  18.868  0.00  0.00    +0.000 N 
ATOM     14  C   UNL     1       9.051  12.085  18.056  0.00  0.00    +0.000 C 
ATOM     15  C   UNL     1      10.424  12.737  17.860  0.00  0.00    +0.000 C 
ATOM     16  C   UNL     1      11.134  13.015  19.193  0.00  0.00    +0.000 C 
ATOM     17  C   UNL     1      11.156  11.758  20.080  0.00  0.00    +0.000 C 
ATOM     18  C   UNL     1       9.773  11.121  20.213  0.00  0.00    +0.000 C 
BRANCH  16  19
ATOM     19  C   UNL     1      10.508  14.193  19.923  0.00  0.00    +0.000 C 
ATOM     20  O   UNL     1      10.375  14.277  21.135  0.00  0.00    +0.000 OA
BRANCH  19  21
ATOM     21  O   UNL     1      10.128  15.194  19.098  0.00  0.00    +0.000 OA
ATOM     22  H   UNL     1      10.690  15.991  19.139  0.00  0.00    +0.000 HD
ENDBRANCH  19  21
ENDBRANCH  16  19
ENDBRANCH  10  13
ENDBRANCH   3   7
BRANCH   1  23
ATOM     23  C   UNL     1       3.814   3.987  17.816  0.00  0.00    +0.000 C 
BRANCH  23  26
ATOM     24  C   UNL     1       2.784   5.652  19.322  0.00  0.00    +0.000 C 
ATOM     25  O   UNL     1       3.013   4.949  20.306  0.00  0.00    +0.000 OA
ATOM     26  N   UNL     1       3.117   5.242  18.048  0.00  0.00    +0.000 N 
ATOM     27  H   UNL     1       2.775   5.736  17.236  0.00  0.00    +0.000 HD
BRANCH  24  30
ATOM     28  C   UNL     1       1.526   9.233  18.732  0.00  0.00    +0.000 A 
ATOM     29  C   UNL     1       2.143   7.990  18.512  0.00  0.00    +0.000 A 
ATOM     30  C   UNL     1       2.139   6.993  19.497  0.00  0.00    +0.000 A 
ATOM     31  C   UNL     1       1.547   7.273  20.742  0.00  0.00    +0.000 A 
ATOM     32  C   UNL     1       0.974   8.521  20.995  0.00  0.00    +0.000 A 
ATOM     33  C   UNL     1       0.980   9.499  20.001  0.00  0.00    +0.000 A 
ATOM     34 CL   UNL     1       0.278  11.038  20.355  0.00  0.00    +0.000 Cl
BRANCH  28  35
ATOM     35  N   UNL     1       1.678  10.246  17.766  0.00  0.00    +0.000 N 
ATOM     36  H   UNL     1       1.267  10.040  16.861  0.00  0.00    +0.000 HD
ATOM     37  H   UNL     1       1.408  11.164  18.117  0.00  0.00    +0.000 HD
ENDBRANCH  28  35
ENDBRANCH  24  30
ENDBRANCH  23  26
ENDBRANCH   1  23
TORSDOF 8
ENDMDL
MODEL 9
REMARK VINA RESULT:      -7.8      0.943      1.206
REMARK  Name = 
REMARK  8 active torsions:
REMARK  status: ('A' for Active; 'I' for Inactive)
REMARK    1  A    between atoms: N_1  and  C_2
REMARK    2  A    between atoms: C_4  and  C_5
REMARK    3  A    between atoms: N_7  and  C_8
REMARK    4  A    between atoms: C_8  and  C_9
REMARK    5  A    between atoms: N_11  and  C_12
REMARK    6  A    between atoms: C_15  and  N_16
REMARK    7  A    between atoms: C_19  and  C_20
REMARK    8  A    between atoms: C_20  and  O_22
REMARK                            x       y       z     vdW  Elec       q    Type
REMARK                         _______ _______ _______ _____ _____    ______ ____
ROOT
ATOM      1  C   UNL     1       0.745  13.609  19.421  0.00  0.00    +0.000 C 
ATOM      2  C   UNL     1       1.621  12.377  19.533  0.00  0.00    +0.000 C 
ATOM      3  N   UNL     1       0.742  11.304  19.175  0.00  0.00    +0.000 N 
ATOM      4  C   UNL     1      -0.441  11.822  18.660  0.00  0.00    +0.000 C 
ATOM      5  O   UNL     1      -1.429  11.229  18.268  0.00  0.00    +0.000 OA
ATOM      6  O   UNL     1      -0.364  13.190  18.614  0.00  0.00    +0.000 OA
ENDROOT
BRANCH   3   7
ATOM      7  C   UNL     1       1.176   9.954  19.087  0.00  0.00    +0.000 A 
ATOM      8  C   UNL     1       1.695   9.430  17.904  0.00  0.00    +0.000 A 
ATOM      9  C   UNL     1       2.215   8.129  17.848  0.00  0.00    +0.000 A 
ATOM     10  C   UNL     1       2.225   7.281  18.960  0.00  0.00    +0.000 A 
ATOM     11  C   UNL     1       1.677   7.802  20.135  0.00  0.00    +0.000 A 
ATOM     12  C   UNL     1       1.166   9.112  20.207  0.00  0.00    +0.000 A 
BRANCH  10  13
ATOM     13  N   UNL     1       2.792   6.025  18.887  0.00  0.00    +0.000 N 
ATOM     14  C   UNL     1       3.755   5.541  19.867  0.00  0.00    +0.000 C 
ATOM     15  C   UNL     1       4.955   4.966  19.107  0.00  0.00    +0.000 C 
ATOM     16  C   UNL     1       4.541   3.895  18.087  0.00  0.00    +0.000 C 
ATOM     17  C   UNL     1       3.406   4.404  17.180  0.00  0.00    +0.000 C 
ATOM     18  C   UNL     1       2.251   5.004  17.982  0.00  0.00    +0.000 C 
BRANCH  16  19
ATOM     19  C   UNL     1       4.155   2.593  18.772  0.00  0.00    +0.000 C 
ATOM     20  O   UNL     1       4.453   2.287  19.916  0.00  0.00    +0.000 OA
BRANCH  19  21
ATOM     21  O   UNL     1       3.398   1.784  17.997  0.00  0.00    +0.000 OA
ATOM     22  H   UNL     1       3.059   2.201  17.183  0.00  0.00    +0.000 HD
ENDBRANCH  19  21
ENDBRANCH  16  19
ENDBRANCH  10  13
ENDBRANCH   3   7
BRANCH   1  23
ATOM     23  C   UNL     1       1.485  14.774  18.763  0.00  0.00    +0.000 C 
BRANCH  23  26
ATOM     24  C   UNL     1       3.763  15.448  18.086  0.00  0.00    +0.000 C 
ATOM     25  O   UNL     1       3.316  16.234  17.252  0.00  0.00    +0.000 OA
ATOM     26  N   UNL     1       2.932  14.661  18.856  0.00  0.00    +0.000 N 
ATOM     27  H   UNL     1       3.300  13.900  19.409  0.00  0.00    +0.000 HD
BRANCH  24  30
ATOM     28  C   UNL     1       7.430  14.323  17.878  0.00  0.00    +0.000 A 
ATOM     29  C   UNL     1       6.046  14.385  17.645  0.00  0.00    +0.000 A 
ATOM     30  C   UNL     1       5.243  15.338  18.289  0.00  0.00    +0.000 A 
ATOM     31  C   UNL     1       5.839  16.207  19.220  0.00  0.00    +0.000 A 
ATOM     32  C   UNL     1       7.204  16.125  19.501  0.00  0.00    +0.000 A 
ATOM     33  C   UNL     1       7.989  15.177  18.846  0.00  0.00    +0.000 A 
ATOM     34 CL   UNL     1       9.672  15.092  19.232  0.00  0.00    +0.000 Cl
BRANCH  28  35
ATOM     35  N   UNL     1       8.165  13.263  17.315  0.00  0.00    +0.000 N 
ATOM     36  H   UNL     1       8.329  12.478  17.937  0.00  0.00    +0.000 HD
ATOM     37  H   UNL     1       7.798  12.972  16.408  0.00  0.00    +0.000 HD
ENDBRANCH  28  35
ENDBRANCH  24  30
ENDBRANCH  23  26
ENDBRANCH   1  23
TORSDOF 8
ENDMDL
