MODEL 1
REMARK VINA RESULT:      -7.4      0.000      0.000
REMARK  Name = 
REMARK  3 active torsions:
REMARK  status: ('A' for Active; 'I' for Inactive)
REMARK    1  A    between atoms: C_5  and  C_6
REMARK    2  A    between atoms: C_9  and  C_10
REMARK    3  A    between atoms: C_17  and  N_18
REMARK                            x       y       z     vdW  Elec       q    Type
REMARK                         _______ _______ _______ _____ _____    ______ ____
ROOT
ATOM      1  C   UNL     1       3.844   5.897  18.824  0.00  0.00    +0.000 C 
ATOM      2  N   UNL     1       5.037   5.893  19.343  0.00  0.00    +0.000 NA
ATOM      3  N   UNL     1       5.768   5.002  18.648  0.00  0.00    +0.000 N 
ATOM      4  C   UNL     1       5.002   4.208  17.684  0.00  0.00    +0.000 C 
ATOM      5  C   UNL     1       3.595   4.825  17.784  0.00  0.00    +0.000 C 
ATOM      6  H   UNL     1       6.437   4.465  19.200  0.00  0.00    +0.000 HD
ENDROOT
BRANCH   1  11
ATOM      7 BR   UNL     1      -0.263  10.109  20.701  0.00  0.00    +0.000 Br
ATOM      8  C   UNL     1       0.964   8.804  20.101  0.00  0.00    +0.000 A 
ATOM      9  C   UNL     1       1.282   7.723  20.918  0.00  0.00    +0.000 A 
ATOM     10  C   UNL     1       2.203   6.769  20.476  0.00  0.00    +0.000 A 
ATOM     11  C   UNL     1       2.815   6.898  19.219  0.00  0.00    +0.000 A 
ATOM     12  C   UNL     1       2.481   7.986  18.404  0.00  0.00    +0.000 A 
ATOM     13  C   UNL     1       1.553   8.935  18.844  0.00  0.00    +0.000 A 
ENDBRANCH   1  11
BRANCH   4  14
ATOM     14  C   UNL     1       5.598   4.266  16.285  0.00  0.00    +0.000 A 
ATOM     15  C   UNL     1       6.884   4.799  16.102  0.00  0.00    +0.000 A 
ATOM     16  C   UNL     1       7.443   4.899  14.823  0.00  0.00    +0.000 A 
ATOM     17  C   UNL     1       6.726   4.457  13.715  0.00  0.00    +0.000 A 
ATOM     18 BR   UNL     1       7.475   4.611  11.986  0.00  0.00    +0.000 Br
ATOM     19  C   UNL     1       5.457   3.908  13.873  0.00  0.00    +0.000 A 
ATOM     20  C   UNL     1       4.899   3.806  15.154  0.00  0.00    +0.000 A 
ENDBRANCH   4  14
BRANCH   5  21
ATOM     21  N   UNL     1       2.608   3.831  18.192  0.00  0.00    +0.000 N 
ATOM     22  C   UNL     1       2.863   2.744  18.986  0.00  0.00    +0.000 A 
ATOM     23  C   UNL     1       1.648   2.114  19.131  0.00  0.00    +0.000 A 
ATOM     24  N   UNL     1       0.671   2.786  18.445  0.00  0.00    +0.000 NA
ATOM     25  C   UNL     1       1.274   3.811  17.891  0.00  0.00    +0.000 A 
ENDBRANCH   5  21
TORSDOF 3
ENDMDL
MODEL 2
REMARK VINA RESULT:      -7.3      4.171      5.713
REMARK  Name = 
REMARK  3 active torsions:
REMARK  status: ('A' for Active; 'I' for Inactive)
REMARK    1  A    between atoms: C_5  and  C_6
REMARK    2  A    between atoms: C_9  and  C_10
REMARK    3  A    between atoms: C_17  and  N_18
REMARK                            x       y       z     vdW  Elec       q    Type
REMARK                         _______ _______ _______ _____ _____    ______ ____
ROOT
ATOM      1  C   UNL     1       6.199   5.557  19.022  0.00  0.00    +0.000 C 
ATOM      2  N   UNL     1       7.203   5.328  19.817  0.00  0.00    +0.000 NA
ATOM      3  N   UNL     1       8.221   6.104  19.403  0.00  0.00    +0.000 N 
ATOM      4  C   UNL     1       7.977   6.803  18.140  0.00  0.00    +0.000 C 
ATOM      5  C   UNL     1       6.518   6.429  17.825  0.00  0.00    +0.000 C 
ATOM      6  H   UNL     1       9.146   5.682  19.481  0.00  0.00    +0.000 HD
ENDROOT
BRANCH   1  11
ATOM      7 BR   UNL     1       0.669   3.162  20.366  0.00  0.00    +0.000 Br
ATOM      8  C   UNL     1       2.347   3.903  19.916  0.00  0.00    +0.000 A 
ATOM      9  C   UNL     1       3.440   3.067  19.701  0.00  0.00    +0.000 A 
ATOM     10  C   UNL     1       4.683   3.621  19.384  0.00  0.00    +0.000 A 
ATOM     11  C   UNL     1       4.840   5.012  19.289  0.00  0.00    +0.000 A 
ATOM     12  C   UNL     1       3.732   5.842  19.499  0.00  0.00    +0.000 A 
ATOM     13  C   UNL     1       2.486   5.285  19.808  0.00  0.00    +0.000 A 
ENDBRANCH   1  11
BRANCH   4  14
ATOM     14  C   UNL     1       8.214   8.302  18.255  0.00  0.00    +0.000 A 
ATOM     15  C   UNL     1       7.568   9.176  17.366  0.00  0.00    +0.000 A 
ATOM     16  C   UNL     1       7.795  10.555  17.425  0.00  0.00    +0.000 A 
ATOM     17  C   UNL     1       8.664  11.076  18.380  0.00  0.00    +0.000 A 
ATOM     18 BR   UNL     1       8.985  12.938  18.445  0.00  0.00    +0.000 Br
ATOM     19  C   UNL     1       9.302  10.232  19.284  0.00  0.00    +0.000 A 
ATOM     20  C   UNL     1       9.072   8.852  19.226  0.00  0.00    +0.000 A 
ENDBRANCH   4  14
BRANCH   5  21
ATOM     21  N   UNL     1       6.412   5.732  16.548  0.00  0.00    +0.000 N 
ATOM     22  C   UNL     1       7.238   4.722  16.129  0.00  0.00    +0.000 A 
ATOM     23  C   UNL     1       6.751   4.350  14.896  0.00  0.00    +0.000 A 
ATOM     24  N   UNL     1       5.662   5.108  14.559  0.00  0.00    +0.000 NA
ATOM     25  C   UNL     1       5.480   5.929  15.566  0.00  0.00    +0.000 A 
ENDBRANCH   5  21
TORSDOF 3
ENDMDL
MODEL 3
REMARK VINA RESULT:      -7.3      0.195      1.005
REMARK  Name = 
REMARK  3 active torsions:
REMARK  status: ('A' for Active; 'I' for Inactive)
REMARK    1  A    between atoms: C_5  and  C_6
REMARK    2  A    between atoms: C_9  and  C_10
REMARK    3  A    between atoms: C_17  and  N_18
REMARK                            x       y       z     vdW  Elec       q    Type
REMARK                         _______ _______ _______ _____ _____    ______ ____
ROOT
ATOM      1  C   UNL     1       3.958   5.867  18.738  0.00  0.00    +0.000 C 
ATOM      2  N   UNL     1       5.157   5.821  19.243  0.00  0.00    +0.000 NA
ATOM      3  N   UNL     1       5.852   4.915  18.531  0.00  0.00    +0.000 N 
ATOM      4  C   UNL     1       5.051   4.154  17.569  0.00  0.00    +0.000 C 
ATOM      5  C   UNL     1       3.665   4.812  17.692  0.00  0.00    +0.000 C 
ATOM      6  H   UNL     1       6.511   4.354  19.070  0.00  0.00    +0.000 HD
ENDROOT
BRANCH   1  11
ATOM      7 BR   UNL     1      -0.322  10.060  20.230  0.00  0.00    +0.000 Br
ATOM      8  C   UNL     1       1.014   8.796  19.799  0.00  0.00    +0.000 A 
ATOM      9  C   UNL     1       1.658   8.859  18.566  0.00  0.00    +0.000 A 
ATOM     10  C   UNL     1       2.635   7.913  18.246  0.00  0.00    +0.000 A 
ATOM     11  C   UNL     1       2.965   6.895  19.154  0.00  0.00    +0.000 A 
ATOM     12  C   UNL     1       2.317   6.846  20.394  0.00  0.00    +0.000 A 
ATOM     13  C   UNL     1       1.345   7.800  20.716  0.00  0.00    +0.000 A 
ENDBRANCH   1  11
BRANCH   4  14
ATOM     14  C   UNL     1       5.632   4.206  16.164  0.00  0.00    +0.000 A 
ATOM     15  C   UNL     1       6.899   4.776  15.959  0.00  0.00    +0.000 A 
ATOM     16  C   UNL     1       7.443   4.871  14.674  0.00  0.00    +0.000 A 
ATOM     17  C   UNL     1       6.730   4.387  13.580  0.00  0.00    +0.000 A 
ATOM     18 BR   UNL     1       7.457   4.534  11.841  0.00  0.00    +0.000 Br
ATOM     19  C   UNL     1       5.480   3.802  13.760  0.00  0.00    +0.000 A 
ATOM     20  C   UNL     1       4.937   3.705  15.048  0.00  0.00    +0.000 A 
ENDBRANCH   4  14
BRANCH   5  21
ATOM     21  N   UNL     1       2.653   3.845  18.103  0.00  0.00    +0.000 N 
ATOM     22  C   UNL     1       2.893   2.715  18.840  0.00  0.00    +0.000 A 
ATOM     23  C   UNL     1       1.658   2.132  19.014  0.00  0.00    +0.000 A 
ATOM     24  N   UNL     1       0.684   2.873  18.400  0.00  0.00    +0.000 NA
ATOM     25  C   UNL     1       1.307   3.894  17.862  0.00  0.00    +0.000 A 
ENDBRANCH   5  21
TORSDOF 3
ENDMDL
MODEL 4
REMARK VINA RESULT:      -7.2      0.422      1.244
REMARK  Name = 
REMARK  3 active torsions:
REMARK  status: ('A' for Active; 'I' for Inactive)
REMARK    1  A    between atoms: C_5  and  C_6
REMARK    2  A    between atoms: C_9  and  C_10
REMARK    3  A    between atoms: C_17  and  N_18
REMARK                            x       y       z     vdW  Elec       q    Type
REMARK                         _______ _______ _______ _____ _____    ______ ____
ROOT
ATOM      1  C   UNL     1       3.895   5.919  18.826  0.00  0.00    +0.000 C 
ATOM      2  N   UNL     1       5.100   5.959  19.314  0.00  0.00    +0.000 NA
ATOM      3  N   UNL     1       5.840   5.078  18.616  0.00  0.00    +0.000 N 
ATOM      4  C   UNL     1       5.074   4.244  17.686  0.00  0.00    +0.000 C 
ATOM      5  C   UNL     1       3.653   4.820  17.812  0.00  0.00    +0.000 C 
ATOM      6  H   UNL     1       6.538   4.571  19.160  0.00  0.00    +0.000 HD
ENDROOT
BRANCH   1  11
ATOM      7 BR   UNL     1      -0.293  10.033  20.739  0.00  0.00    +0.000 Br
ATOM      8  C   UNL     1       0.959   8.758  20.128  0.00  0.00    +0.000 A 
ATOM      9  C   UNL     1       1.300   7.677  20.936  0.00  0.00    +0.000 A 
ATOM     10  C   UNL     1       2.239   6.745  20.486  0.00  0.00    +0.000 A 
ATOM     11  C   UNL     1       2.847   6.896  19.230  0.00  0.00    +0.000 A 
ATOM     12  C   UNL     1       2.490   7.983  18.423  0.00  0.00    +0.000 A 
ATOM     13  C   UNL     1       1.544   8.910  18.872  0.00  0.00    +0.000 A 
ENDBRANCH   1  11
BRANCH   4  14
ATOM     14  C   UNL     1       5.633   4.294  16.272  0.00  0.00    +0.000 A 
ATOM     15  C   UNL     1       4.854   3.824  15.202  0.00  0.00    +0.000 A 
ATOM     16  C   UNL     1       5.356   3.824  13.896  0.00  0.00    +0.000 A 
ATOM     17  C   UNL     1       6.639   4.303  13.645  0.00  0.00    +0.000 A 
ATOM     18 BR   UNL     1       7.324   4.283  11.882  0.00  0.00    +0.000 Br
ATOM     19  C   UNL     1       7.423   4.791  14.686  0.00  0.00    +0.000 A 
ATOM     20  C   UNL     1       6.919   4.793  15.993  0.00  0.00    +0.000 A 
ENDBRANCH   4  14
BRANCH   5  21
ATOM     21  N   UNL     1       2.706   3.806  18.262  0.00  0.00    +0.000 N 
ATOM     22  C   UNL     1       1.346   3.868  18.100  0.00  0.00    +0.000 A 
ATOM     23  C   UNL     1       0.868   2.696  18.641  0.00  0.00    +0.000 A 
ATOM     24  N   UNL     1       1.897   1.935  19.128  0.00  0.00    +0.000 NA
ATOM     25  C   UNL     1       2.987   2.623  18.888  0.00  0.00    +0.000 A 
ENDBRANCH   5  21
TORSDOF 3
ENDMDL
MODEL 5
REMARK VINA RESULT:      -7.2      4.172      6.415
REMARK  Name = 
REMARK  3 active torsions:
REMARK  status: ('A' for Active; 'I' for Inactive)
REMARK    1  A    between atoms: C_5  and  C_6
REMARK    2  A    between atoms: C_9  and  C_10
REMARK    3  A    between atoms: C_17  and  N_18
REMARK                            x       y       z     vdW  Elec       q    Type
REMARK                         _______ _______ _______ _____ _____    ______ ____
ROOT
ATOM      1  C   UNL     1       0.290   9.745  18.585  0.00  0.00    +0.000 C 
ATOM      2  N   UNL     1       1.375  10.029  17.925  0.00  0.00    +0.000 NA
ATOM      3  N   UNL     1       2.340   9.207  18.375  0.00  0.00    +0.000 N 
ATOM      4  C   UNL     1       1.959   8.403  19.539  0.00  0.00    +0.000 C 
ATOM      5  C   UNL     1       0.476   8.768  19.728  0.00  0.00    +0.000 C 
ATOM      6  H   UNL     1       3.270   9.621  18.435  0.00  0.00    +0.000 HD
ENDROOT
BRANCH   1  11
ATOM      7 BR   UNL     1      -5.306  11.903  17.120  0.00  0.00    +0.000 Br
ATOM      8  C   UNL     1      -3.577  11.277  17.551  0.00  0.00    +0.000 A 
ATOM      9  C   UNL     1      -3.008  10.243  16.812  0.00  0.00    +0.000 A 
ATOM     10  C   UNL     1      -1.736   9.773  17.145  0.00  0.00    +0.000 A 
ATOM     11  C   UNL     1      -1.030  10.329  18.224  0.00  0.00    +0.000 A 
ATOM     12  C   UNL     1      -1.609  11.373  18.954  0.00  0.00    +0.000 A 
ATOM     13  C   UNL     1      -2.880  11.848  18.614  0.00  0.00    +0.000 A 
ENDBRANCH   1  11
BRANCH   4  14
ATOM     14  C   UNL     1       2.201   6.917  19.319  0.00  0.00    +0.000 A 
ATOM     15  C   UNL     1       2.717   6.474  18.091  0.00  0.00    +0.000 A 
ATOM     16  C   UNL     1       2.916   5.111  17.847  0.00  0.00    +0.000 A 
ATOM     17  C   UNL     1       2.609   4.177  18.832  0.00  0.00    +0.000 A 
ATOM     18 BR   UNL     1       2.859   2.334  18.494  0.00  0.00    +0.000 Br
ATOM     19  C   UNL     1       2.114   4.593  20.065  0.00  0.00    +0.000 A 
ATOM     20  C   UNL     1       1.917   5.958  20.309  0.00  0.00    +0.000 A 
ENDBRANCH   4  14
BRANCH   5  21
ATOM     21  N   UNL     1       0.236   9.353  21.043  0.00  0.00    +0.000 N 
ATOM     22  C   UNL     1      -0.421   8.734  22.074  0.00  0.00    +0.000 A 
ATOM     23  C   UNL     1      -0.382   9.635  23.114  0.00  0.00    +0.000 A 
ATOM     24  N   UNL     1       0.271  10.778  22.739  0.00  0.00    +0.000 NA
ATOM     25  C   UNL     1       0.631  10.583  21.493  0.00  0.00    +0.000 A 
ENDBRANCH   5  21
TORSDOF 3
ENDMDL
MODEL 6
REMARK VINA RESULT:      -7.1      4.185      6.372
REMARK  Name = 
REMARK  3 active torsions:
REMARK  status: ('A' for Active; 'I' for Inactive)
REMARK    1  A    between atoms: C_5  and  C_6
REMARK    2  A    between atoms: C_9  and  C_10
REMARK    3  A    between atoms: C_17  and  N_18
REMARK                            x       y       z     vdW  Elec       q    Type
REMARK                         _______ _______ _______ _____ _____    ______ ____
ROOT
ATOM      1  C   UNL     1       0.180   9.823  18.548  0.00  0.00    +0.000 C 
ATOM      2  N   UNL     1       1.214  10.204  17.855  0.00  0.00    +0.000 NA
ATOM      3  N   UNL     1       2.260   9.466  18.268  0.00  0.00    +0.000 N 
ATOM      4  C   UNL     1       1.988   8.626  19.437  0.00  0.00    +0.000 C 
ATOM      5  C   UNL     1       0.486   8.860  19.676  0.00  0.00    +0.000 C 
ATOM      6  H   UNL     1       3.153   9.959  18.301  0.00  0.00    +0.000 HD
ENDROOT
BRANCH   1  11
ATOM      7 BR   UNL     1      -5.425  12.043  17.212  0.00  0.00    +0.000 Br
ATOM      8  C   UNL     1      -3.728  11.329  17.636  0.00  0.00    +0.000 A 
ATOM      9  C   UNL     1      -3.015  11.832  18.721  0.00  0.00    +0.000 A 
ATOM     10  C   UNL     1      -1.754  11.312  19.021  0.00  0.00    +0.000 A 
ATOM     11  C   UNL     1      -1.197  10.293  18.233  0.00  0.00    +0.000 A 
ATOM     12  C   UNL     1      -1.927   9.790  17.149  0.00  0.00    +0.000 A 
ATOM     13  C   UNL     1      -3.193  10.306  16.856  0.00  0.00    +0.000 A 
ENDBRANCH   1  11
BRANCH   4  14
ATOM     14  C   UNL     1       2.350   7.168  19.197  0.00  0.00    +0.000 A 
ATOM     15  C   UNL     1       3.012   6.804  18.013  0.00  0.00    +0.000 A 
ATOM     16  C   UNL     1       3.325   5.466  17.749  0.00  0.00    +0.000 A 
ATOM     17  C   UNL     1       2.988   4.479  18.671  0.00  0.00    +0.000 A 
ATOM     18 BR   UNL     1       3.394   2.669  18.303  0.00  0.00    +0.000 Br
ATOM     19  C   UNL     1       2.349   4.817  19.860  0.00  0.00    +0.000 A 
ATOM     20  C   UNL     1       2.038   6.156  20.124  0.00  0.00    +0.000 A 
ENDBRANCH   4  14
BRANCH   5  21
ATOM     21  N   UNL     1       0.239   9.415  21.002  0.00  0.00    +0.000 N 
ATOM     22  C   UNL     1      -0.406   8.765  22.022  0.00  0.00    +0.000 A 
ATOM     23  C   UNL     1      -0.380   9.646  23.080  0.00  0.00    +0.000 A 
ATOM     24  N   UNL     1       0.255  10.806  22.726  0.00  0.00    +0.000 NA
ATOM     25  C   UNL     1       0.616  10.642  21.476  0.00  0.00    +0.000 A 
ENDBRANCH   5  21
TORSDOF 3
ENDMDL
MODEL 7
REMARK VINA RESULT:      -7.1      4.325      6.556
REMARK  Name = 
REMARK  3 active torsions:
REMARK  status: ('A' for Active; 'I' for Inactive)
REMARK    1  A    between atoms: C_5  and  C_6
REMARK    2  A    between atoms: C_9  and  C_10
REMARK    3  A    between atoms: C_17  and  N_18
REMARK                            x       y       z     vdW  Elec       q    Type
REMARK                         _______ _______ _______ _____ _____    ______ ____
ROOT
ATOM      1  C   UNL     1       0.013  10.019  18.617  0.00  0.00    +0.000 C 
ATOM      2  N   UNL     1       1.029  10.446  17.924  0.00  0.00    +0.000 NA
ATOM      3  N   UNL     1       2.103   9.741  18.321  0.00  0.00    +0.000 N 
ATOM      4  C   UNL     1       1.869   8.877  19.481  0.00  0.00    +0.000 C 
ATOM      5  C   UNL     1       0.361   9.054  19.730  0.00  0.00    +0.000 C 
ATOM      6  H   UNL     1       2.977  10.266  18.356  0.00  0.00    +0.000 HD
ENDROOT
BRANCH   1  11
ATOM      7 BR   UNL     1      -5.674  12.048  17.327  0.00  0.00    +0.000 Br
ATOM      8  C   UNL     1      -3.951  11.393  17.739  0.00  0.00    +0.000 A 
ATOM      9  C   UNL     1      -3.230  11.950  18.792  0.00  0.00    +0.000 A 
ATOM     10  C   UNL     1      -1.949  11.473  19.082  0.00  0.00    +0.000 A 
ATOM     11  C   UNL     1      -1.382  10.443  18.316  0.00  0.00    +0.000 A 
ATOM     12  C   UNL     1      -2.120   9.885  17.265  0.00  0.00    +0.000 A 
ATOM     13  C   UNL     1      -3.405  10.359  16.981  0.00  0.00    +0.000 A 
ENDBRANCH   1  11
BRANCH   4  14
ATOM     14  C   UNL     1       2.282   7.436  19.220  0.00  0.00    +0.000 A 
ATOM     15  C   UNL     1       1.988   6.447  20.172  0.00  0.00    +0.000 A 
ATOM     16  C   UNL     1       2.388   5.121  19.976  0.00  0.00    +0.000 A 
ATOM     17  C   UNL     1       3.078   4.767  18.820  0.00  0.00    +0.000 A 
ATOM     18 BR   UNL     1       3.636   2.979  18.566  0.00  0.00    +0.000 Br
ATOM     19  C   UNL     1       3.365   5.726  17.852  0.00  0.00    +0.000 A 
ATOM     20  C   UNL     1       2.962   7.053  18.049  0.00  0.00    +0.000 A 
ENDBRANCH   4  14
BRANCH   5  21
ATOM     21  N   UNL     1       0.102   9.582  21.065  0.00  0.00    +0.000 N 
ATOM     22  C   UNL     1      -0.442   8.872  22.104  0.00  0.00    +0.000 A 
ATOM     23  C   UNL     1      -0.471   9.751  23.162  0.00  0.00    +0.000 A 
ATOM     24  N   UNL     1       0.033  10.969  22.791  0.00  0.00    +0.000 NA
ATOM     25  C   UNL     1       0.368  10.841  21.529  0.00  0.00    +0.000 A 
ENDBRANCH   5  21
TORSDOF 3
ENDMDL
MODEL 8
REMARK VINA RESULT:      -7.0      4.753      7.089
REMARK  Name = 
REMARK  3 active torsions:
REMARK  status: ('A' for Active; 'I' for Inactive)
REMARK    1  A    between atoms: C_5  and  C_6
REMARK    2  A    between atoms: C_9  and  C_10
REMARK    3  A    between atoms: C_17  and  N_18
REMARK                            x       y       z     vdW  Elec       q    Type
REMARK                         _______ _______ _______ _____ _____    ______ ____
ROOT
ATOM      1  C   UNL     1      -0.627  10.783  18.821  0.00  0.00    +0.000 C 
ATOM      2  N   UNL     1       0.266  11.419  18.120  0.00  0.00    +0.000 NA
ATOM      3  N   UNL     1       1.456  10.853  18.388  0.00  0.00    +0.000 N 
ATOM      4  C   UNL     1       1.429   9.863  19.468  0.00  0.00    +0.000 C 
ATOM      5  C   UNL     1      -0.068   9.786  19.814  0.00  0.00    +0.000 C 
ATOM      6  H   UNL     1       2.245  11.499  18.427  0.00  0.00    +0.000 HD
ENDROOT
BRANCH   1  11
ATOM      7 BR   UNL     1      -6.727  11.471  18.154  0.00  0.00    +0.000 Br
ATOM      8  C   UNL     1      -4.855  11.294  18.333  0.00  0.00    +0.000 A 
ATOM      9  C   UNL     1      -4.184  10.284  17.649  0.00  0.00    +0.000 A 
ATOM     10  C   UNL     1      -2.802  10.147  17.798  0.00  0.00    +0.000 A 
ATOM     11  C   UNL     1      -2.086  11.015  18.637  0.00  0.00    +0.000 A 
ATOM     12  C   UNL     1      -2.771  12.032  19.314  0.00  0.00    +0.000 A 
ATOM     13  C   UNL     1      -4.154  12.172  19.157  0.00  0.00    +0.000 A 
ENDBRANCH   1  11
BRANCH   4  14
ATOM     14  C   UNL     1       2.030   8.531  19.045  0.00  0.00    +0.000 A 
ATOM     15  C   UNL     1       2.635   8.413  17.783  0.00  0.00    +0.000 A 
ATOM     16  C   UNL     1       3.164   7.191  17.353  0.00  0.00    +0.000 A 
ATOM     17  C   UNL     1       3.101   6.076  18.184  0.00  0.00    +0.000 A 
ATOM     18 BR   UNL     1       3.797   4.420  17.594  0.00  0.00    +0.000 Br
ATOM     19  C   UNL     1       2.523   6.172  19.447  0.00  0.00    +0.000 A 
ATOM     20  C   UNL     1       1.996   7.396  19.877  0.00  0.00    +0.000 A 
ENDBRANCH   4  14
BRANCH   5  21
ATOM     21  N   UNL     1      -0.311  10.148  21.206  0.00  0.00    +0.000 N 
ATOM     22  C   UNL     1      -0.543   9.260  22.224  0.00  0.00    +0.000 A 
ATOM     23  C   UNL     1      -0.683  10.037  23.351  0.00  0.00    +0.000 A 
ATOM     24  N   UNL     1      -0.549  11.364  23.043  0.00  0.00    +0.000 NA
ATOM     25  C   UNL     1      -0.326  11.403  21.750  0.00  0.00    +0.000 A 
ENDBRANCH   5  21
TORSDOF 3
ENDMDL
MODEL 9
REMARK VINA RESULT:      -6.9      4.708      7.547
REMARK  Name = 
REMARK  3 active torsions:
REMARK  status: ('A' for Active; 'I' for Inactive)
REMARK    1  A    between atoms: C_5  and  C_6
REMARK    2  A    between atoms: C_9  and  C_10
REMARK    3  A    between atoms: C_17  and  N_18
REMARK                            x       y       z     vdW  Elec       q    Type
REMARK                         _______ _______ _______ _____ _____    ______ ____
ROOT
ATOM      1  C   UNL     1      -0.456  10.924  19.552  0.00  0.00    +0.000 C 
ATOM      2  N   UNL     1      -1.046  10.456  18.490  0.00  0.00    +0.000 NA
ATOM      3  N   UNL     1      -0.106   9.834  17.756  0.00  0.00    +0.000 N 
ATOM      4  C   UNL     1       1.264  10.013  18.245  0.00  0.00    +0.000 C 
ATOM      5  C   UNL     1       1.054  10.804  19.548  0.00  0.00    +0.000 C 
ATOM      6  H   UNL     1      -0.210   9.931  16.746  0.00  0.00    +0.000 HD
ENDROOT
BRANCH   1  11
ATOM      7 BR   UNL     1      -3.872  13.261  24.134  0.00  0.00    +0.000 Br
ATOM      8  C   UNL     1      -2.796  12.572  22.743  0.00  0.00    +0.000 A 
ATOM      9  C   UNL     1      -3.054  12.930  21.422  0.00  0.00    +0.000 A 
ATOM     10  C   UNL     1      -2.265  12.405  20.396  0.00  0.00    +0.000 A 
ATOM     11  C   UNL     1      -1.220  11.513  20.685  0.00  0.00    +0.000 A 
ATOM     12  C   UNL     1      -0.965  11.167  22.017  0.00  0.00    +0.000 A 
ATOM     13  C   UNL     1      -1.751  11.700  23.044  0.00  0.00    +0.000 A 
ENDBRANCH   1  11
BRANCH   4  14
ATOM     14  C   UNL     1       1.984   8.687  18.443  0.00  0.00    +0.000 A 
ATOM     15  C   UNL     1       1.750   7.938  19.608  0.00  0.00    +0.000 A 
ATOM     16  C   UNL     1       2.425   6.734  19.833  0.00  0.00    +0.000 A 
ATOM     17  C   UNL     1       3.334   6.260  18.891  0.00  0.00    +0.000 A 
ATOM     18 BR   UNL     1       4.260   4.642  19.207  0.00  0.00    +0.000 Br
ATOM     19  C   UNL     1       3.569   6.975  17.720  0.00  0.00    +0.000 A 
ATOM     20  C   UNL     1       2.891   8.179  17.494  0.00  0.00    +0.000 A 
ENDBRANCH   4  14
BRANCH   5  21
ATOM     21  N   UNL     1       1.743  12.090  19.505  0.00  0.00    +0.000 N 
ATOM     22  C   UNL     1       2.284  12.659  18.382  0.00  0.00    +0.000 A 
ATOM     23  C   UNL     1       2.794  13.866  18.803  0.00  0.00    +0.000 A 
ATOM     24  N   UNL     1       2.582  14.038  20.144  0.00  0.00    +0.000 NA
ATOM     25  C   UNL     1       1.950  12.959  20.541  0.00  0.00    +0.000 A 
ENDBRANCH   5  21
TORSDOF 3
ENDMDL
