MODEL 1
REMARK VINA RESULT:      -8.5      0.000      0.000
REMARK  Name = 
REMARK  5 active torsions:
REMARK  status: ('A' for Active; 'I' for Inactive)
REMARK    1  A    between atoms: C_1  and  C_2
REMARK    2  A    between atoms: N_5  and  C_6
REMARK    3  A    between atoms: C_11  and  C_12
REMARK    4  A    between atoms: N_13  and  N_14
REMARK    5  A    between atoms: C_15  and  C_17
REMARK                            x       y       z     vdW  Elec       q    Type
REMARK                         _______ _______ _______ _____ _____    ______ ____
ROOT
ATOM      1  C   UNL     1       2.354   4.797  19.901  0.00  0.00    +0.000 A 
ATOM      2  N   UNL     1       1.846   4.490  21.125  0.00  0.00    +0.000 NA
ATOM      3  C   UNL     1       1.981   3.178  21.365  0.00  0.00    +0.000 A 
ATOM      4  O   UNL     1       1.648   2.579  22.377  0.00  0.00    +0.000 OA
ATOM      5  S   UNL     1       2.743   2.333  20.001  0.00  0.00    +0.000 S 
ATOM      6  C   UNL     1       2.892   3.821  19.148  0.00  0.00    +0.000 A 
ENDROOT
BRANCH   1  11
ATOM      7  C   UNL     1       1.620  10.257  18.321  0.00  0.00    +0.000 C 
ATOM      8  C   UNL     1       1.865   8.836  18.735  0.00  0.00    +0.000 A 
ATOM      9  C   UNL     1       2.357   7.895  17.838  0.00  0.00    +0.000 A 
ATOM     10  C   UNL     1       2.515   6.567  18.232  0.00  0.00    +0.000 A 
ATOM     11  N   UNL     1       2.241   6.160  19.499  0.00  0.00    +0.000 N 
ATOM     12  C   UNL     1       1.751   7.077  20.380  0.00  0.00    +0.000 A 
ATOM     13  C   UNL     1       1.557   8.410  20.022  0.00  0.00    +0.000 A 
ENDBRANCH   1  11
BRANCH   6  14
ATOM     14  C   UNL     1       3.632   3.868  17.879  0.00  0.00    +0.000 C 
ATOM     15  N   UNL     1       4.924   3.836  17.780  0.00  0.00    +0.000 NA
BRANCH  15  16
ATOM     16  N   UNL     1       5.454   3.767  16.518  0.00  0.00    +0.000 N 
ATOM     17  C   UNL     1       5.569   4.851  15.654  0.00  0.00    +0.000 C 
ATOM     18  O   UNL     1       5.274   6.015  15.930  0.00  0.00    +0.000 OA
ATOM     19  H   UNL     1       5.547   2.818  16.168  0.00  0.00    +0.000 HD
BRANCH  17  20
ATOM     20  C   UNL     1       6.133   4.554  14.314  0.00  0.00    +0.000 A 
ATOM     21  C   UNL     1       5.549   3.636  13.434  0.00  0.00    +0.000 A 
ATOM     22  C   UNL     1       6.133   3.410  12.185  0.00  0.00    +0.000 A 
ATOM     23  C   UNL     1       7.289   4.099  11.813  0.00  0.00    +0.000 A 
ATOM     24  C   UNL     1       7.865   5.021  12.685  0.00  0.00    +0.000 A 
ATOM     25  C   UNL     1       7.287   5.251  13.932  0.00  0.00    +0.000 A 
ENDBRANCH  17  20
ENDBRANCH  15  16
ENDBRANCH   6  14
TORSDOF 4
ENDMDL
MODEL 2
REMARK VINA RESULT:      -8.5      0.679      1.192
REMARK  Name = 
REMARK  5 active torsions:
REMARK  status: ('A' for Active; 'I' for Inactive)
REMARK    1  A    between atoms: C_1  and  C_2
REMARK    2  A    between atoms: N_5  and  C_6
REMARK    3  A    between atoms: C_11  and  C_12
REMARK    4  A    between atoms: N_13  and  N_14
REMARK    5  A    between atoms: C_15  and  C_17
REMARK                            x       y       z     vdW  Elec       q    Type
REMARK                         _______ _______ _______ _____ _____    ______ ____
ROOT
ATOM      1  C   UNL     1       2.413   5.023  19.902  0.00  0.00    +0.000 A 
ATOM      2  N   UNL     1       2.020   4.659  21.154  0.00  0.00    +0.000 NA
ATOM      3  C   UNL     1       2.221   3.346  21.337  0.00  0.00    +0.000 A 
ATOM      4  O   UNL     1       1.996   2.704  22.352  0.00  0.00    +0.000 OA
ATOM      5  S   UNL     1       2.897   2.573  19.888  0.00  0.00    +0.000 S 
ATOM      6  C   UNL     1       2.921   4.091  19.076  0.00  0.00    +0.000 A 
ENDROOT
BRANCH   1  11
ATOM      7  C   UNL     1       1.351  10.490  18.550  0.00  0.00    +0.000 C 
ATOM      8  C   UNL     1       1.682   9.071  18.905  0.00  0.00    +0.000 A 
ATOM      9  C   UNL     1       2.224   8.198  17.969  0.00  0.00    +0.000 A 
ATOM     10  C   UNL     1       2.462   6.866  18.308  0.00  0.00    +0.000 A 
ATOM     11  N   UNL     1       2.218   6.392  19.557  0.00  0.00    +0.000 N 
ATOM     12  C   UNL     1       1.679   7.241  20.477  0.00  0.00    +0.000 A 
ATOM     13  C   UNL     1       1.405   8.574  20.174  0.00  0.00    +0.000 A 
ENDBRANCH   1  11
BRANCH   6  14
ATOM     14  C   UNL     1       3.550   4.205  17.752  0.00  0.00    +0.000 C 
ATOM     15  N   UNL     1       4.830   4.200  17.544  0.00  0.00    +0.000 NA
BRANCH  15  16
ATOM     16  N   UNL     1       5.253   4.195  16.241  0.00  0.00    +0.000 N 
ATOM     17  C   UNL     1       6.543   4.513  15.833  0.00  0.00    +0.000 C 
ATOM     18  O   UNL     1       7.483   4.774  16.585  0.00  0.00    +0.000 OA
ATOM     19  H   UNL     1       4.493   4.167  15.567  0.00  0.00    +0.000 HD
BRANCH  17  20
ATOM     20  C   UNL     1       6.784   4.489  14.369  0.00  0.00    +0.000 A 
ATOM     21  C   UNL     1       7.689   5.350  13.737  0.00  0.00    +0.000 A 
ATOM     22  C   UNL     1       7.868   5.268  12.353  0.00  0.00    +0.000 A 
ATOM     23  C   UNL     1       7.156   4.329  11.606  0.00  0.00    +0.000 A 
ATOM     24  C   UNL     1       6.262   3.465  12.236  0.00  0.00    +0.000 A 
ATOM     25  C   UNL     1       6.079   3.542  13.615  0.00  0.00    +0.000 A 
ENDBRANCH  17  20
ENDBRANCH  15  16
ENDBRANCH   6  14
TORSDOF 4
ENDMDL
MODEL 3
REMARK VINA RESULT:      -8.3      0.131      1.384
REMARK  Name = 
REMARK  5 active torsions:
REMARK  status: ('A' for Active; 'I' for Inactive)
REMARK    1  A    between atoms: C_1  and  C_2
REMARK    2  A    between atoms: N_5  and  C_6
REMARK    3  A    between atoms: C_11  and  C_12
REMARK    4  A    between atoms: N_13  and  N_14
REMARK    5  A    between atoms: C_15  and  C_17
REMARK                            x       y       z     vdW  Elec       q    Type
REMARK                         _______ _______ _______ _____ _____    ______ ____
ROOT
ATOM      1  C   UNL     1       2.326   4.736  19.900  0.00  0.00    +0.000 A 
ATOM      2  N   UNL     1       1.832   4.418  21.127  0.00  0.00    +0.000 NA
ATOM      3  C   UNL     1       2.022   3.115  21.378  0.00  0.00    +0.000 A 
ATOM      4  O   UNL     1       1.715   2.511  22.395  0.00  0.00    +0.000 OA
ATOM      5  S   UNL     1       2.820   2.291  20.022  0.00  0.00    +0.000 S 
ATOM      6  C   UNL     1       2.906   3.777  19.156  0.00  0.00    +0.000 A 
ENDROOT
BRANCH   1  11
ATOM      7  C   UNL     1       1.919  10.193  18.196  0.00  0.00    +0.000 C 
ATOM      8  C   UNL     1       1.972   8.761  18.641  0.00  0.00    +0.000 A 
ATOM      9  C   UNL     1       1.639   8.394  19.940  0.00  0.00    +0.000 A 
ATOM     10  C   UNL     1       1.758   7.065  20.344  0.00  0.00    +0.000 A 
ATOM     11  N   UNL     1       2.155   6.089  19.486  0.00  0.00    +0.000 N 
ATOM     12  C   UNL     1       2.490   6.445  18.214  0.00  0.00    +0.000 A 
ATOM     13  C   UNL     1       2.406   7.765  17.774  0.00  0.00    +0.000 A 
ENDBRANCH   1  11
BRANCH   6  14
ATOM     14  C   UNL     1       3.643   3.844  17.886  0.00  0.00    +0.000 C 
ATOM     15  N   UNL     1       4.934   3.902  17.789  0.00  0.00    +0.000 NA
BRANCH  15  16
ATOM     16  N   UNL     1       5.471   3.839  16.529  0.00  0.00    +0.000 N 
ATOM     17  C   UNL     1       5.646   4.938  15.694  0.00  0.00    +0.000 C 
ATOM     18  O   UNL     1       5.404   6.107  15.997  0.00  0.00    +0.000 OA
ATOM     19  H   UNL     1       5.521   2.896  16.156  0.00  0.00    +0.000 HD
BRANCH  17  20
ATOM     20  C   UNL     1       6.206   4.648  14.351  0.00  0.00    +0.000 A 
ATOM     21  C   UNL     1       7.345   5.290  13.852  0.00  0.00    +0.000 A 
ATOM     22  C   UNL     1       7.819   4.963  12.579  0.00  0.00    +0.000 A 
ATOM     23  C   UNL     1       7.166   3.997  11.811  0.00  0.00    +0.000 A 
ATOM     24  C   UNL     1       6.037   3.351  12.311  0.00  0.00    +0.000 A 
ATOM     25  C   UNL     1       5.560   3.672  13.581  0.00  0.00    +0.000 A 
ENDBRANCH  17  20
ENDBRANCH  15  16
ENDBRANCH   6  14
TORSDOF 4
ENDMDL
MODEL 4
REMARK VINA RESULT:      -8.1      3.314      7.601
REMARK  Name = 
REMARK  5 active torsions:
REMARK  status: ('A' for Active; 'I' for Inactive)
REMARK    1  A    between atoms: C_1  and  C_2
REMARK    2  A    between atoms: N_5  and  C_6
REMARK    3  A    between atoms: C_11  and  C_12
REMARK    4  A    between atoms: N_13  and  N_14
REMARK    5  A    between atoms: C_15  and  C_17
REMARK                            x       y       z     vdW  Elec       q    Type
REMARK                         _______ _______ _______ _____ _____    ______ ____
ROOT
ATOM      1  C   UNL     1       4.352   4.079  18.932  0.00  0.00    +0.000 A 
ATOM      2  N   UNL     1       4.624   2.877  18.355  0.00  0.00    +0.000 NA
ATOM      3  C   UNL     1       3.725   1.962  18.746  0.00  0.00    +0.000 A 
ATOM      4  O   UNL     1       3.670   0.793  18.398  0.00  0.00    +0.000 OA
ATOM      5  S   UNL     1       2.537   2.646  19.876  0.00  0.00    +0.000 S 
ATOM      6  C   UNL     1       3.290   4.189  19.751  0.00  0.00    +0.000 A 
ENDROOT
BRANCH   1  11
ATOM      7  C   UNL     1       8.032   8.222  17.473  0.00  0.00    +0.000 C 
ATOM      8  C   UNL     1       7.057   7.166  17.899  0.00  0.00    +0.000 A 
ATOM      9  C   UNL     1       7.350   6.285  18.934  0.00  0.00    +0.000 A 
ATOM     10  C   UNL     1       6.451   5.272  19.267  0.00  0.00    +0.000 A 
ATOM     11  N   UNL     1       5.257   5.138  18.633  0.00  0.00    +0.000 N 
ATOM     12  C   UNL     1       4.968   5.994  17.613  0.00  0.00    +0.000 A 
ATOM     13  C   UNL     1       5.847   7.007  17.233  0.00  0.00    +0.000 A 
ENDBRANCH   1  11
BRANCH   6  14
ATOM     14  C   UNL     1       2.673   5.361  20.390  0.00  0.00    +0.000 C 
ATOM     15  N   UNL     1       2.407   6.474  19.781  0.00  0.00    +0.000 NA
BRANCH  15  16
ATOM     16  N   UNL     1       1.722   7.427  20.489  0.00  0.00    +0.000 N 
ATOM     17  C   UNL     1       1.337   8.660  19.975  0.00  0.00    +0.000 C 
ATOM     18  O   UNL     1       1.500   9.029  18.812  0.00  0.00    +0.000 OA
ATOM     19  H   UNL     1       1.717   7.262  21.491  0.00  0.00    +0.000 HD
BRANCH  17  20
ATOM     20  C   UNL     1       0.640   9.567  20.922  0.00  0.00    +0.000 A 
ATOM     21  C   UNL     1       0.352  10.902  20.617  0.00  0.00    +0.000 A 
ATOM     22  C   UNL     1      -0.311  11.697  21.555  0.00  0.00    +0.000 A 
ATOM     23  C   UNL     1      -0.690  11.162  22.788  0.00  0.00    +0.000 A 
ATOM     24  C   UNL     1      -0.412   9.830  23.089  0.00  0.00    +0.000 A 
ATOM     25  C   UNL     1       0.249   9.032  22.156  0.00  0.00    +0.000 A 
ENDBRANCH  17  20
ENDBRANCH  15  16
ENDBRANCH   6  14
TORSDOF 4
ENDMDL
MODEL 5
REMARK VINA RESULT:      -7.9      3.120      7.519
REMARK  Name = 
REMARK  5 active torsions:
REMARK  status: ('A' for Active; 'I' for Inactive)
REMARK    1  A    between atoms: C_1  and  C_2
REMARK    2  A    between atoms: N_5  and  C_6
REMARK    3  A    between atoms: C_11  and  C_12
REMARK    4  A    between atoms: N_13  and  N_14
REMARK    5  A    between atoms: C_15  and  C_17
REMARK                            x       y       z     vdW  Elec       q    Type
REMARK                         _______ _______ _______ _____ _____    ______ ____
ROOT
ATOM      1  C   UNL     1       4.558   5.001  18.017  0.00  0.00    +0.000 A 
ATOM      2  N   UNL     1       5.761   4.390  17.839  0.00  0.00    +0.000 NA
ATOM      3  C   UNL     1       6.484   5.051  16.924  0.00  0.00    +0.000 A 
ATOM      4  O   UNL     1       7.614   4.781  16.546  0.00  0.00    +0.000 OA
ATOM      5  S   UNL     1       5.605   6.452  16.275  0.00  0.00    +0.000 S 
ATOM      6  C   UNL     1       4.274   6.111  17.313  0.00  0.00    +0.000 A 
ENDROOT
BRANCH   1  11
ATOM      7  C   UNL     1       1.176   2.526  21.927  0.00  0.00    +0.000 C 
ATOM      8  C   UNL     1       2.020   3.174  20.869  0.00  0.00    +0.000 A 
ATOM      9  C   UNL     1       2.494   2.453  19.779  0.00  0.00    +0.000 A 
ATOM     10  C   UNL     1       3.328   3.065  18.845  0.00  0.00    +0.000 A 
ATOM     11  N   UNL     1       3.668   4.377  18.940  0.00  0.00    +0.000 N 
ATOM     12  C   UNL     1       3.213   5.086  20.010  0.00  0.00    +0.000 A 
ATOM     13  C   UNL     1       2.394   4.509  20.979  0.00  0.00    +0.000 A 
ENDBRANCH   1  11
BRANCH   6  14
ATOM     14  C   UNL     1       3.146   7.051  17.393  0.00  0.00    +0.000 C 
ATOM     15  N   UNL     1       3.237   8.271  17.821  0.00  0.00    +0.000 NA
BRANCH  15  16
ATOM     16  N   UNL     1       2.117   9.055  17.721  0.00  0.00    +0.000 N 
ATOM     17  C   UNL     1       1.233   9.300  18.766  0.00  0.00    +0.000 C 
ATOM     18  O   UNL     1       1.373   8.903  19.923  0.00  0.00    +0.000 OA
ATOM     19  H   UNL     1       1.850   9.260  16.762  0.00  0.00    +0.000 HD
BRANCH  17  20
ATOM     20  C   UNL     1       0.057  10.143  18.436  0.00  0.00    +0.000 A 
ATOM     21  C   UNL     1      -0.077  11.462  18.884  0.00  0.00    +0.000 A 
ATOM     22  C   UNL     1      -1.210  12.199  18.530  0.00  0.00    +0.000 A 
ATOM     23  C   UNL     1      -2.201  11.626  17.730  0.00  0.00    +0.000 A 
ATOM     24  C   UNL     1      -2.063  10.315  17.276  0.00  0.00    +0.000 A 
ATOM     25  C   UNL     1      -0.935   9.576  17.626  0.00  0.00    +0.000 A 
ENDBRANCH  17  20
ENDBRANCH  15  16
ENDBRANCH   6  14
TORSDOF 4
ENDMDL
MODEL 6
REMARK VINA RESULT:      -7.9      3.168      7.585
REMARK  Name = 
REMARK  5 active torsions:
REMARK  status: ('A' for Active; 'I' for Inactive)
REMARK    1  A    between atoms: C_1  and  C_2
REMARK    2  A    between atoms: N_5  and  C_6
REMARK    3  A    between atoms: C_11  and  C_12
REMARK    4  A    between atoms: N_13  and  N_14
REMARK    5  A    between atoms: C_15  and  C_17
REMARK                            x       y       z     vdW  Elec       q    Type
REMARK                         _______ _______ _______ _____ _____    ______ ____
ROOT
ATOM      1  C   UNL     1       4.510   5.083  18.053  0.00  0.00    +0.000 A 
ATOM      2  N   UNL     1       5.744   4.534  17.892  0.00  0.00    +0.000 NA
ATOM      3  C   UNL     1       6.441   5.224  16.978  0.00  0.00    +0.000 A 
ATOM      4  O   UNL     1       7.588   5.010  16.613  0.00  0.00    +0.000 OA
ATOM      5  S   UNL     1       5.497   6.572  16.308  0.00  0.00    +0.000 S 
ATOM      6  C   UNL     1       4.175   6.171  17.335  0.00  0.00    +0.000 A 
ENDROOT
BRANCH   1  11
ATOM      7  C   UNL     1       1.225   2.464  21.950  0.00  0.00    +0.000 C 
ATOM      8  C   UNL     1       2.043   3.148  20.896  0.00  0.00    +0.000 A 
ATOM      9  C   UNL     1       2.537   2.453  19.798  0.00  0.00    +0.000 A 
ATOM     10  C   UNL     1       3.348   3.100  18.866  0.00  0.00    +0.000 A 
ATOM     11  N   UNL     1       3.644   4.422  18.972  0.00  0.00    +0.000 N 
ATOM     12  C   UNL     1       3.168   5.106  20.050  0.00  0.00    +0.000 A 
ATOM     13  C   UNL     1       2.372   4.494  21.016  0.00  0.00    +0.000 A 
ENDBRANCH   1  11
BRANCH   6  14
ATOM     14  C   UNL     1       3.000   7.052  17.396  0.00  0.00    +0.000 C 
ATOM     15  N   UNL     1       2.987   8.221  17.955  0.00  0.00    +0.000 NA
BRANCH  15  16
ATOM     16  N   UNL     1       1.845   8.967  17.822  0.00  0.00    +0.000 N 
ATOM     17  C   UNL     1       1.056   9.392  18.885  0.00  0.00    +0.000 C 
ATOM     18  O   UNL     1       1.311   9.212  20.076  0.00  0.00    +0.000 OA
ATOM     19  H   UNL     1       1.486   8.993  16.872  0.00  0.00    +0.000 HD
BRANCH  17  20
ATOM     20  C   UNL     1      -0.165  10.154  18.521  0.00  0.00    +0.000 A 
ATOM     21  C   UNL     1      -1.042   9.740  17.512  0.00  0.00    +0.000 A 
ATOM     22  C   UNL     1      -2.175  10.506  17.226  0.00  0.00    +0.000 A 
ATOM     23  C   UNL     1      -2.436  11.673  17.947  0.00  0.00    +0.000 A 
ATOM     24  C   UNL     1      -1.568  12.080  18.958  0.00  0.00    +0.000 A 
ATOM     25  C   UNL     1      -0.436  11.320  19.248  0.00  0.00    +0.000 A 
ENDBRANCH  17  20
ENDBRANCH  15  16
ENDBRANCH   6  14
TORSDOF 4
ENDMDL
MODEL 7
REMARK VINA RESULT:      -7.8      3.179      7.723
REMARK  Name = 
REMARK  5 active torsions:
REMARK  status: ('A' for Active; 'I' for Inactive)
REMARK    1  A    between atoms: C_1  and  C_2
REMARK    2  A    between atoms: N_5  and  C_6
REMARK    3  A    between atoms: C_11  and  C_12
REMARK    4  A    between atoms: N_13  and  N_14
REMARK    5  A    between atoms: C_15  and  C_17
REMARK                            x       y       z     vdW  Elec       q    Type
REMARK                         _______ _______ _______ _____ _____    ______ ____
ROOT
ATOM      1  C   UNL     1       4.545   5.352  18.192  0.00  0.00    +0.000 A 
ATOM      2  N   UNL     1       5.773   4.825  17.934  0.00  0.00    +0.000 NA
ATOM      3  C   UNL     1       6.375   5.515  16.955  0.00  0.00    +0.000 A 
ATOM      4  O   UNL     1       7.490   5.318  16.496  0.00  0.00    +0.000 OA
ATOM      5  S   UNL     1       5.350   6.834  16.350  0.00  0.00    +0.000 S 
ATOM      6  C   UNL     1       4.129   6.422  17.492  0.00  0.00    +0.000 A 
ENDROOT
BRANCH   1  11
ATOM      7  C   UNL     1       1.308   2.548  22.000  0.00  0.00    +0.000 C 
ATOM      8  C   UNL     1       2.186   3.299  21.044  0.00  0.00    +0.000 A 
ATOM      9  C   UNL     1       2.117   4.683  20.933  0.00  0.00    +0.000 A 
ATOM     10  C   UNL     1       2.900   5.350  19.991  0.00  0.00    +0.000 A 
ATOM     11  N   UNL     1       3.775   4.688  19.191  0.00  0.00    +0.000 N 
ATOM     12  C   UNL     1       3.841   3.330  19.291  0.00  0.00    +0.000 A 
ATOM     13  C   UNL     1       3.062   2.622  20.203  0.00  0.00    +0.000 A 
ENDBRANCH   1  11
BRANCH   6  14
ATOM     14  C   UNL     1       2.945   7.281  17.641  0.00  0.00    +0.000 C 
ATOM     15  N   UNL     1       2.973   8.576  17.646  0.00  0.00    +0.000 NA
BRANCH  15  16
ATOM     16  N   UNL     1       1.769   9.230  17.675  0.00  0.00    +0.000 N 
ATOM     17  C   UNL     1       1.025   9.456  18.828  0.00  0.00    +0.000 C 
ATOM     18  O   UNL     1       1.377   9.161  19.971  0.00  0.00    +0.000 OA
ATOM     19  H   UNL     1       1.342   9.336  16.759  0.00  0.00    +0.000 HD
BRANCH  17  20
ATOM     20  C   UNL     1      -0.275  10.145  18.636  0.00  0.00    +0.000 A 
ATOM     21  C   UNL     1      -1.133   9.857  17.568  0.00  0.00    +0.000 A 
ATOM     22  C   UNL     1      -2.345  10.544  17.453  0.00  0.00    +0.000 A 
ATOM     23  C   UNL     1      -2.701  11.506  18.399  0.00  0.00    +0.000 A 
ATOM     24  C   UNL     1      -1.852  11.786  19.467  0.00  0.00    +0.000 A 
ATOM     25  C   UNL     1      -0.642  11.105  19.588  0.00  0.00    +0.000 A 
ENDBRANCH  17  20
ENDBRANCH  15  16
ENDBRANCH   6  14
TORSDOF 4
ENDMDL
MODEL 8
REMARK VINA RESULT:      -7.7      2.646      7.968
REMARK  Name = 
REMARK  5 active torsions:
REMARK  status: ('A' for Active; 'I' for Inactive)
REMARK    1  A    between atoms: C_1  and  C_2
REMARK    2  A    between atoms: N_5  and  C_6
REMARK    3  A    between atoms: C_11  and  C_12
REMARK    4  A    between atoms: N_13  and  N_14
REMARK    5  A    between atoms: C_15  and  C_17
REMARK                            x       y       z     vdW  Elec       q    Type
REMARK                         _______ _______ _______ _____ _____    ______ ____
ROOT
ATOM      1  C   UNL     1       4.288   4.864  17.549  0.00  0.00    +0.000 A 
ATOM      2  N   UNL     1       5.113   4.101  16.782  0.00  0.00    +0.000 NA
ATOM      3  C   UNL     1       5.699   4.856  15.841  0.00  0.00    +0.000 A 
ATOM      4  O   UNL     1       6.510   4.488  15.004  0.00  0.00    +0.000 OA
ATOM      5  S   UNL     1       5.170   6.550  15.931  0.00  0.00    +0.000 S 
ATOM      6  C   UNL     1       4.180   6.180  17.290  0.00  0.00    +0.000 A 
ENDROOT
BRANCH   1  11
ATOM      7  C   UNL     1       1.306   2.355  21.750  0.00  0.00    +0.000 C 
ATOM      8  C   UNL     1       2.094   2.963  20.629  0.00  0.00    +0.000 A 
ATOM      9  C   UNL     1       3.478   2.844  20.569  0.00  0.00    +0.000 A 
ATOM     10  C   UNL     1       4.191   3.474  19.549  0.00  0.00    +0.000 A 
ATOM     11  N   UNL     1       3.567   4.177  18.569  0.00  0.00    +0.000 N 
ATOM     12  C   UNL     1       2.211   4.303  18.627  0.00  0.00    +0.000 A 
ATOM     13  C   UNL     1       1.461   3.708  19.640  0.00  0.00    +0.000 A 
ENDBRANCH   1  11
BRANCH   6  14
ATOM     14  C   UNL     1       3.500   7.261  18.018  0.00  0.00    +0.000 C 
ATOM     15  N   UNL     1       2.250   7.572  17.872  0.00  0.00    +0.000 NA
BRANCH  15  16
ATOM     16  N   UNL     1       1.739   8.527  18.711  0.00  0.00    +0.000 N 
ATOM     17  C   UNL     1       1.383   8.299  20.036  0.00  0.00    +0.000 C 
ATOM     18  O   UNL     1       1.540   7.239  20.642  0.00  0.00    +0.000 OA
ATOM     19  H   UNL     1       1.419   9.362  18.229  0.00  0.00    +0.000 HD
BRANCH  17  20
ATOM     20  C   UNL     1       0.807   9.459  20.760  0.00  0.00    +0.000 A 
ATOM     21  C   UNL     1       0.817  10.758  20.238  0.00  0.00    +0.000 A 
ATOM     22  C   UNL     1       0.252  11.802  20.975  0.00  0.00    +0.000 A 
ATOM     23  C   UNL     1      -0.326  11.552  22.221  0.00  0.00    +0.000 A 
ATOM     24  C   UNL     1      -0.345  10.257  22.737  0.00  0.00    +0.000 A 
ATOM     25  C   UNL     1       0.217   9.211  22.007  0.00  0.00    +0.000 A 
ENDBRANCH  17  20
ENDBRANCH  15  16
ENDBRANCH   6  14
TORSDOF 4
ENDMDL
MODEL 9
REMARK VINA RESULT:      -7.7      3.067      6.716
REMARK  Name = 
REMARK  5 active torsions:
REMARK  status: ('A' for Active; 'I' for Inactive)
REMARK    1  A    between atoms: C_1  and  C_2
REMARK    2  A    between atoms: N_5  and  C_6
REMARK    3  A    between atoms: C_11  and  C_12
REMARK    4  A    between atoms: N_13  and  N_14
REMARK    5  A    between atoms: C_15  and  C_17
REMARK                            x       y       z     vdW  Elec       q    Type
REMARK                         _______ _______ _______ _____ _____    ______ ____
ROOT
ATOM      1  C   UNL     1       4.140   4.263  18.398  0.00  0.00    +0.000 A 
ATOM      2  N   UNL     1       4.504   2.959  18.259  0.00  0.00    +0.000 NA
ATOM      3  C   UNL     1       3.475   2.156  18.567  0.00  0.00    +0.000 A 
ATOM      4  O   UNL     1       3.459   0.935  18.527  0.00  0.00    +0.000 OA
ATOM      5  S   UNL     1       2.040   3.083  19.058  0.00  0.00    +0.000 S 
ATOM      6  C   UNL     1       2.887   4.557  18.789  0.00  0.00    +0.000 A 
ENDROOT
BRANCH   1  11
ATOM      7  C   UNL     1       8.172   8.258  17.609  0.00  0.00    +0.000 C 
ATOM      8  C   UNL     1       7.134   7.187  17.771  0.00  0.00    +0.000 A 
ATOM      9  C   UNL     1       6.004   7.147  16.963  0.00  0.00    +0.000 A 
ATOM     10  C   UNL     1       5.024   6.179  17.177  0.00  0.00    +0.000 A 
ATOM     11  N   UNL     1       5.156   5.228  18.139  0.00  0.00    +0.000 N 
ATOM     12  C   UNL     1       6.259   5.267  18.938  0.00  0.00    +0.000 A 
ATOM     13  C   UNL     1       7.252   6.231  18.773  0.00  0.00    +0.000 A 
ENDBRANCH   1  11
BRANCH   6  14
ATOM     14  C   UNL     1       2.175   5.840  18.884  0.00  0.00    +0.000 C 
ATOM     15  N   UNL     1       2.597   6.866  19.554  0.00  0.00    +0.000 NA
BRANCH  15  16
ATOM     16  N   UNL     1       1.876   8.026  19.445  0.00  0.00    +0.000 N 
ATOM     17  C   UNL     1       1.908   8.871  18.341  0.00  0.00    +0.000 C 
ATOM     18  O   UNL     1       2.531   8.657  17.300  0.00  0.00    +0.000 OA
ATOM     19  H   UNL     1       1.489   8.348  20.327  0.00  0.00    +0.000 HD
BRANCH  17  20
ATOM     20  C   UNL     1       1.084  10.100  18.441  0.00  0.00    +0.000 A 
ATOM     21  C   UNL     1      -0.316  10.075  18.442  0.00  0.00    +0.000 A 
ATOM     22  C   UNL     1      -1.028  11.273  18.544  0.00  0.00    +0.000 A 
ATOM     23  C   UNL     1      -0.349  12.488  18.651  0.00  0.00    +0.000 A 
ATOM     24  C   UNL     1       1.045  12.513  18.660  0.00  0.00    +0.000 A 
ATOM     25  C   UNL     1       1.760  11.321  18.559  0.00  0.00    +0.000 A 
ENDBRANCH  17  20
ENDBRANCH  15  16
ENDBRANCH   6  14
TORSDOF 4
ENDMDL
