MODEL 1
REMARK VINA RESULT:      -5.8      0.000      0.000
REMARK  Name = 
REMARK  7 active torsions:
REMARK  status: ('A' for Active; 'I' for Inactive)
REMARK    1  A    between atoms: C_1  and  C_2
REMARK    2  A    between atoms: C_2  and  C_3
REMARK    3  A    between atoms: C_2  and  N_10
REMARK    4  A    between atoms: C_3  and  C_4
REMARK    5  A    between atoms: N_10  and  C_11
REMARK    6  A    between atoms: C_11  and  C_12
REMARK    7  A    between atoms: C_12  and  C_13
REMARK                            x       y       z     vdW  Elec       q    Type
REMARK                         _______ _______ _______ _____ _____    ______ ____
ROOT
ATOM      1  C   UNL     1       5.753   4.236  14.504  0.00  0.00    +0.000 C 
ATOM      2  C   UNL     1       5.341   5.136  15.676  0.00  0.00    +0.000 C 
ENDROOT
BRANCH   2   3
ATOM      3  N   UNL     1       6.262   6.281  15.785  0.00  0.00    +0.000 NA
ATOM      4  H   UNL     1       6.057   6.962  15.053  0.00  0.00    +0.000 HD
BRANCH   3   5
ATOM      5  C   UNL     1       6.230   6.901  17.107  0.00  0.00    +0.000 C 
BRANCH   5   6
ATOM      6  C   UNL     1       7.629   6.998  17.678  0.00  0.00    +0.000 C 
BRANCH   6   7
ATOM      7  C   UNL     1       7.705   6.140  18.930  0.00  0.00    +0.000 C 
ATOM      8  N   UNL     1       7.769   5.428  19.969  0.00  0.00    +0.000 NA
ENDBRANCH   6   7
ENDBRANCH   5   6
ENDBRANCH   3   5
ENDBRANCH   2   3
BRANCH   2   9
ATOM      9  C   UNL     1       5.328   4.307  16.981  0.00  0.00    +0.000 C 
BRANCH   9  10
ATOM     10  C   UNL     1       3.938   3.936  17.455  0.00  0.00    +0.000 A 
ATOM     11  C   UNL     1       3.546   2.592  17.552  0.00  0.00    +0.000 A 
ATOM     12  C   UNL     1       2.246   2.264  17.943  0.00  0.00    +0.000 A 
ATOM     13  C   UNL     1       1.329   3.270  18.245  0.00  0.00    +0.000 A 
ATOM     14  C   UNL     1       1.712   4.605  18.164  0.00  0.00    +0.000 A 
ATOM     15  C   UNL     1       3.010   4.932  17.779  0.00  0.00    +0.000 A 
ENDBRANCH   9  10
ENDBRANCH   2   9
TORSDOF 6
ENDMDL
MODEL 2
REMARK VINA RESULT:      -5.7      2.069      3.205
REMARK  Name = 
REMARK  7 active torsions:
REMARK  status: ('A' for Active; 'I' for Inactive)
REMARK    1  A    between atoms: C_1  and  C_2
REMARK    2  A    between atoms: C_2  and  C_3
REMARK    3  A    between atoms: C_2  and  N_10
REMARK    4  A    between atoms: C_3  and  C_4
REMARK    5  A    between atoms: N_10  and  C_11
REMARK    6  A    between atoms: C_11  and  C_12
REMARK    7  A    between atoms: C_12  and  C_13
REMARK                            x       y       z     vdW  Elec       q    Type
REMARK                         _______ _______ _______ _____ _____    ______ ____
ROOT
ATOM      1  C   UNL     1       4.233   7.289  17.217  0.00  0.00    +0.000 C 
ATOM      2  C   UNL     1       3.998   5.982  17.986  0.00  0.00    +0.000 C 
ENDROOT
BRANCH   2   3
ATOM      3  N   UNL     1       4.826   4.904  17.420  0.00  0.00    +0.000 NA
ATOM      4  H   UNL     1       5.280   5.226  16.566  0.00  0.00    +0.000 HD
BRANCH   3   5
ATOM      5  C   UNL     1       5.803   4.387  18.375  0.00  0.00    +0.000 C 
BRANCH   5   6
ATOM      6  C   UNL     1       7.206   4.776  17.957  0.00  0.00    +0.000 C 
BRANCH   6   7
ATOM      7  C   UNL     1       7.206   5.067  16.466  0.00  0.00    +0.000 C 
ATOM      8  N   UNL     1       7.206   5.310  15.228  0.00  0.00    +0.000 NA
ENDBRANCH   6   7
ENDBRANCH   5   6
ENDBRANCH   3   5
ENDBRANCH   2   3
BRANCH   2   9
ATOM      9  C   UNL     1       2.497   5.618  17.933  0.00  0.00    +0.000 C 
BRANCH   9  10
ATOM     10  C   UNL     1       2.060   4.668  19.029  0.00  0.00    +0.000 A 
ATOM     11  C   UNL     1       2.450   4.877  20.361  0.00  0.00    +0.000 A 
ATOM     12  C   UNL     1       2.081   3.967  21.354  0.00  0.00    +0.000 A 
ATOM     13  C   UNL     1       1.318   2.846  21.031  0.00  0.00    +0.000 A 
ATOM     14  C   UNL     1       0.916   2.636  19.716  0.00  0.00    +0.000 A 
ATOM     15  C   UNL     1       1.280   3.546  18.726  0.00  0.00    +0.000 A 
ENDBRANCH   9  10
ENDBRANCH   2   9
TORSDOF 6
ENDMDL
MODEL 3
REMARK VINA RESULT:      -5.7      2.015      2.711
REMARK  Name = 
REMARK  7 active torsions:
REMARK  status: ('A' for Active; 'I' for Inactive)
REMARK    1  A    between atoms: C_1  and  C_2
REMARK    2  A    between atoms: C_2  and  C_3
REMARK    3  A    between atoms: C_2  and  N_10
REMARK    4  A    between atoms: C_3  and  C_4
REMARK    5  A    between atoms: N_10  and  C_11
REMARK    6  A    between atoms: C_11  and  C_12
REMARK    7  A    between atoms: C_12  and  C_13
REMARK                            x       y       z     vdW  Elec       q    Type
REMARK                         _______ _______ _______ _____ _____    ______ ____
ROOT
ATOM      1  C   UNL     1       5.323   4.155  15.695  0.00  0.00    +0.000 C 
ATOM      2  C   UNL     1       4.972   4.225  17.187  0.00  0.00    +0.000 C 
ENDROOT
BRANCH   2   3
ATOM      3  N   UNL     1       6.148   3.873  18.002  0.00  0.00    +0.000 NA
ATOM      4  H   UNL     1       6.308   2.866  17.964  0.00  0.00    +0.000 HD
BRANCH   3   5
ATOM      5  C   UNL     1       7.343   4.613  17.609  0.00  0.00    +0.000 C 
BRANCH   5   6
ATOM      6  C   UNL     1       7.620   5.729  18.595  0.00  0.00    +0.000 C 
BRANCH   6   7
ATOM      7  C   UNL     1       7.560   7.057  17.858  0.00  0.00    +0.000 C 
ATOM      8  N   UNL     1       7.509   8.159  17.247  0.00  0.00    +0.000 NA
ENDBRANCH   6   7
ENDBRANCH   5   6
ENDBRANCH   3   5
ENDBRANCH   2   3
BRANCH   2   9
ATOM      9  C   UNL     1       3.788   3.276  17.481  0.00  0.00    +0.000 C 
BRANCH   9  10
ATOM     10  C   UNL     1       3.137   3.509  18.829  0.00  0.00    +0.000 A 
ATOM     11  C   UNL     1       2.462   4.708  19.104  0.00  0.00    +0.000 A 
ATOM     12  C   UNL     1       1.909   4.932  20.367  0.00  0.00    +0.000 A 
ATOM     13  C   UNL     1       2.020   3.963  21.363  0.00  0.00    +0.000 A 
ATOM     14  C   UNL     1       2.677   2.766  21.097  0.00  0.00    +0.000 A 
ATOM     15  C   UNL     1       3.224   2.541  19.836  0.00  0.00    +0.000 A 
ENDBRANCH   9  10
ENDBRANCH   2   9
TORSDOF 6
ENDMDL
MODEL 4
REMARK VINA RESULT:      -5.7      1.405      1.896
REMARK  Name = 
REMARK  7 active torsions:
REMARK  status: ('A' for Active; 'I' for Inactive)
REMARK    1  A    between atoms: C_1  and  C_2
REMARK    2  A    between atoms: C_2  and  C_3
REMARK    3  A    between atoms: C_2  and  N_10
REMARK    4  A    between atoms: C_3  and  C_4
REMARK    5  A    between atoms: N_10  and  C_11
REMARK    6  A    between atoms: C_11  and  C_12
REMARK    7  A    between atoms: C_12  and  C_13
REMARK                            x       y       z     vdW  Elec       q    Type
REMARK                         _______ _______ _______ _____ _____    ______ ____
ROOT
ATOM      1  C   UNL     1       5.626   4.410  16.034  0.00  0.00    +0.000 C 
ATOM      2  C   UNL     1       4.777   4.817  17.247  0.00  0.00    +0.000 C 
ENDROOT
BRANCH   2   3
ATOM      3  N   UNL     1       5.412   5.939  17.959  0.00  0.00    +0.000 NA
ATOM      4  H   UNL     1       5.885   5.596  18.796  0.00  0.00    +0.000 HD
BRANCH   3   5
ATOM      5  C   UNL     1       6.327   6.695  17.108  0.00  0.00    +0.000 C 
BRANCH   5   6
ATOM      6  C   UNL     1       7.643   6.924  17.822  0.00  0.00    +0.000 C 
BRANCH   6   7
ATOM      7  C   UNL     1       7.684   6.047  19.063  0.00  0.00    +0.000 C 
ATOM      8  N   UNL     1       7.717   5.319  20.092  0.00  0.00    +0.000 NA
ENDBRANCH   6   7
ENDBRANCH   5   6
ENDBRANCH   3   5
ENDBRANCH   2   3
BRANCH   2   9
ATOM      9  C   UNL     1       4.597   3.597  18.180  0.00  0.00    +0.000 C 
BRANCH   9  10
ATOM     10  C   UNL     1       3.235   3.527  18.838  0.00  0.00    +0.000 A 
ATOM     11  C   UNL     1       2.984   4.196  20.046  0.00  0.00    +0.000 A 
ATOM     12  C   UNL     1       1.739   4.083  20.668  0.00  0.00    +0.000 A 
ATOM     13  C   UNL     1       0.734   3.307  20.092  0.00  0.00    +0.000 A 
ATOM     14  C   UNL     1       0.969   2.650  18.889  0.00  0.00    +0.000 A 
ATOM     15  C   UNL     1       2.209   2.766  18.266  0.00  0.00    +0.000 A 
ENDBRANCH   9  10
ENDBRANCH   2   9
TORSDOF 6
ENDMDL
MODEL 5
REMARK VINA RESULT:      -5.6      2.164      3.473
REMARK  Name = 
REMARK  7 active torsions:
REMARK  status: ('A' for Active; 'I' for Inactive)
REMARK    1  A    between atoms: C_1  and  C_2
REMARK    2  A    between atoms: C_2  and  C_3
REMARK    3  A    between atoms: C_2  and  N_10
REMARK    4  A    between atoms: C_3  and  C_4
REMARK    5  A    between atoms: N_10  and  C_11
REMARK    6  A    between atoms: C_11  and  C_12
REMARK    7  A    between atoms: C_12  and  C_13
REMARK                            x       y       z     vdW  Elec       q    Type
REMARK                         _______ _______ _______ _____ _____    ______ ____
ROOT
ATOM      1  C   UNL     1       2.692   8.175  17.716  0.00  0.00    +0.000 C 
ATOM      2  C   UNL     1       2.973   6.870  18.474  0.00  0.00    +0.000 C 
ENDROOT
BRANCH   2   3
ATOM      3  N   UNL     1       4.353   6.422  18.221  0.00  0.00    +0.000 NA
ATOM      4  H   UNL     1       4.602   5.679  18.874  0.00  0.00    +0.000 HD
BRANCH   3   5
ATOM      5  C   UNL     1       4.560   6.001  16.838  0.00  0.00    +0.000 C 
BRANCH   5   6
ATOM      6  C   UNL     1       5.187   4.623  16.795  0.00  0.00    +0.000 C 
BRANCH   6   7
ATOM      7  C   UNL     1       5.268   4.080  18.212  0.00  0.00    +0.000 C 
ATOM      8  N   UNL     1       5.336   3.630  19.388  0.00  0.00    +0.000 NA
ENDBRANCH   6   7
ENDBRANCH   5   6
ENDBRANCH   3   5
ENDBRANCH   2   3
BRANCH   2   9
ATOM      9  C   UNL     1       1.951   5.794  18.040  0.00  0.00    +0.000 C 
BRANCH   9  10
ATOM     10  C   UNL     1       1.814   4.649  19.022  0.00  0.00    +0.000 A 
ATOM     11  C   UNL     1       1.945   4.865  20.402  0.00  0.00    +0.000 A 
ATOM     12  C   UNL     1       1.866   3.793  21.294  0.00  0.00    +0.000 A 
ATOM     13  C   UNL     1       1.653   2.500  20.819  0.00  0.00    +0.000 A 
ATOM     14  C   UNL     1       1.510   2.277  19.454  0.00  0.00    +0.000 A 
ATOM     15  C   UNL     1       1.584   3.346  18.565  0.00  0.00    +0.000 A 
ENDBRANCH   9  10
ENDBRANCH   2   9
TORSDOF 6
ENDMDL
MODEL 6
REMARK VINA RESULT:      -5.6      2.211      3.825
REMARK  Name = 
REMARK  7 active torsions:
REMARK  status: ('A' for Active; 'I' for Inactive)
REMARK    1  A    between atoms: C_1  and  C_2
REMARK    2  A    between atoms: C_2  and  C_3
REMARK    3  A    between atoms: C_2  and  N_10
REMARK    4  A    between atoms: C_3  and  C_4
REMARK    5  A    between atoms: N_10  and  C_11
REMARK    6  A    between atoms: C_11  and  C_12
REMARK    7  A    between atoms: C_12  and  C_13
REMARK                            x       y       z     vdW  Elec       q    Type
REMARK                         _______ _______ _______ _____ _____    ______ ____
ROOT
ATOM      1  C   UNL     1       4.939   5.910  17.929  0.00  0.00    +0.000 C 
ATOM      2  C   UNL     1       5.234   4.404  17.951  0.00  0.00    +0.000 C 
ENDROOT
BRANCH   2   3
ATOM      3  N   UNL     1       6.292   4.079  16.980  0.00  0.00    +0.000 NA
ATOM      4  H   UNL     1       6.885   3.335  17.348  0.00  0.00    +0.000 HD
BRANCH   3   5
ATOM      5  C   UNL     1       5.758   3.728  15.667  0.00  0.00    +0.000 C 
BRANCH   5   6
ATOM      6  C   UNL     1       6.462   4.519  14.583  0.00  0.00    +0.000 C 
BRANCH   6   7
ATOM      7  C   UNL     1       6.274   3.802  13.257  0.00  0.00    +0.000 C 
ATOM      8  N   UNL     1       6.118   3.208  12.156  0.00  0.00    +0.000 NA
ENDBRANCH   6   7
ENDBRANCH   5   6
ENDBRANCH   3   5
ENDBRANCH   2   3
BRANCH   2   9
ATOM      9  C   UNL     1       3.937   3.622  17.643  0.00  0.00    +0.000 C 
BRANCH   9  10
ATOM     10  C   UNL     1       3.033   3.439  18.845  0.00  0.00    +0.000 A 
ATOM     11  C   UNL     1       3.541   2.955  20.060  0.00  0.00    +0.000 A 
ATOM     12  C   UNL     1       2.688   2.744  21.146  0.00  0.00    +0.000 A 
ATOM     13  C   UNL     1       1.326   3.017  21.032  0.00  0.00    +0.000 A 
ATOM     14  C   UNL     1       0.815   3.508  19.835  0.00  0.00    +0.000 A 
ATOM     15  C   UNL     1       1.666   3.723  18.754  0.00  0.00    +0.000 A 
ENDBRANCH   9  10
ENDBRANCH   2   9
TORSDOF 6
ENDMDL
MODEL 7
REMARK VINA RESULT:      -5.5      1.914      2.765
REMARK  Name = 
REMARK  7 active torsions:
REMARK  status: ('A' for Active; 'I' for Inactive)
REMARK    1  A    between atoms: C_1  and  C_2
REMARK    2  A    between atoms: C_2  and  C_3
REMARK    3  A    between atoms: C_2  and  N_10
REMARK    4  A    between atoms: C_3  and  C_4
REMARK    5  A    between atoms: N_10  and  C_11
REMARK    6  A    between atoms: C_11  and  C_12
REMARK    7  A    between atoms: C_12  and  C_13
REMARK                            x       y       z     vdW  Elec       q    Type
REMARK                         _______ _______ _______ _____ _____    ______ ____
ROOT
ATOM      1  C   UNL     1       3.261   7.856  17.621  0.00  0.00    +0.000 C 
ATOM      2  C   UNL     1       3.499   6.559  18.407  0.00  0.00    +0.000 C 
ENDROOT
BRANCH   2   3
ATOM      3  N   UNL     1       4.883   6.095  18.213  0.00  0.00    +0.000 NA
ATOM      4  H   UNL     1       4.891   5.089  18.041  0.00  0.00    +0.000 HD
BRANCH   3   5
ATOM      5  C   UNL     1       5.573   6.819  17.149  0.00  0.00    +0.000 C 
BRANCH   5   6
ATOM      6  C   UNL     1       7.048   6.473  17.146  0.00  0.00    +0.000 C 
BRANCH   6   7
ATOM      7  C   UNL     1       7.427   5.945  18.520  0.00  0.00    +0.000 C 
ATOM      8  N   UNL     1       7.741   5.507  19.660  0.00  0.00    +0.000 NA
ENDBRANCH   6   7
ENDBRANCH   5   6
ENDBRANCH   3   5
ENDBRANCH   2   3
BRANCH   2   9
ATOM      9  C   UNL     1       2.483   5.488  17.949  0.00  0.00    +0.000 C 
BRANCH   9  10
ATOM     10  C   UNL     1       2.088   4.514  19.040  0.00  0.00    +0.000 A 
ATOM     11  C   UNL     1       1.288   3.398  18.753  0.00  0.00    +0.000 A 
ATOM     12  C   UNL     1       0.890   2.534  19.777  0.00  0.00    +0.000 A 
ATOM     13  C   UNL     1       1.288   2.774  21.091  0.00  0.00    +0.000 A 
ATOM     14  C   UNL     1       2.091   3.872  21.384  0.00  0.00    +0.000 A 
ATOM     15  C   UNL     1       2.492   4.729  20.363  0.00  0.00    +0.000 A 
ENDBRANCH   9  10
ENDBRANCH   2   9
TORSDOF 6
ENDMDL
MODEL 8
REMARK VINA RESULT:      -5.5      2.090      4.096
REMARK  Name = 
REMARK  7 active torsions:
REMARK  status: ('A' for Active; 'I' for Inactive)
REMARK    1  A    between atoms: C_1  and  C_2
REMARK    2  A    between atoms: C_2  and  C_3
REMARK    3  A    between atoms: C_2  and  N_10
REMARK    4  A    between atoms: C_3  and  C_4
REMARK    5  A    between atoms: N_10  and  C_11
REMARK    6  A    between atoms: C_11  and  C_12
REMARK    7  A    between atoms: C_12  and  C_13
REMARK                            x       y       z     vdW  Elec       q    Type
REMARK                         _______ _______ _______ _____ _____    ______ ____
ROOT
ATOM      1  C   UNL     1       7.658   4.618  17.403  0.00  0.00    +0.000 C 
ATOM      2  C   UNL     1       6.455   4.351  16.489  0.00  0.00    +0.000 C 
ENDROOT
BRANCH   2   3
ATOM      3  N   UNL     1       6.861   4.438  15.076  0.00  0.00    +0.000 NA
ATOM      4  H   UNL     1       7.630   3.793  14.895  0.00  0.00    +0.000 HD
BRANCH   3   5
ATOM      5  C   UNL     1       5.749   4.204  14.158  0.00  0.00    +0.000 C 
BRANCH   5   6
ATOM      6  C   UNL     1       6.252   3.603  12.863  0.00  0.00    +0.000 C 
BRANCH   6   7
ATOM      7  C   UNL     1       5.060   3.303  11.969  0.00  0.00    +0.000 C 
ATOM      8  N   UNL     1       4.071   3.054  11.227  0.00  0.00    +0.000 NA
ENDBRANCH   6   7
ENDBRANCH   5   6
ENDBRANCH   3   5
ENDBRANCH   2   3
BRANCH   2   9
ATOM      9  C   UNL     1       5.332   5.366  16.808  0.00  0.00    +0.000 C 
BRANCH   9  10
ATOM     10  C   UNL     1       4.049   4.725  17.296  0.00  0.00    +0.000 A 
ATOM     11  C   UNL     1       3.826   3.349  17.134  0.00  0.00    +0.000 A 
ATOM     12  C   UNL     1       2.618   2.778  17.544  0.00  0.00    +0.000 A 
ATOM     13  C   UNL     1       1.627   3.572  18.121  0.00  0.00    +0.000 A 
ATOM     14  C   UNL     1       1.845   4.934  18.297  0.00  0.00    +0.000 A 
ATOM     15  C   UNL     1       3.050   5.502  17.893  0.00  0.00    +0.000 A 
ENDBRANCH   9  10
ENDBRANCH   2   9
TORSDOF 6
ENDMDL
MODEL 9
REMARK VINA RESULT:      -5.5      1.996      3.081
REMARK  Name = 
REMARK  7 active torsions:
REMARK  status: ('A' for Active; 'I' for Inactive)
REMARK    1  A    between atoms: C_1  and  C_2
REMARK    2  A    between atoms: C_2  and  C_3
REMARK    3  A    between atoms: C_2  and  N_10
REMARK    4  A    between atoms: C_3  and  C_4
REMARK    5  A    between atoms: N_10  and  C_11
REMARK    6  A    between atoms: C_11  and  C_12
REMARK    7  A    between atoms: C_12  and  C_13
REMARK                            x       y       z     vdW  Elec       q    Type
REMARK                         _______ _______ _______ _____ _____    ______ ____
ROOT
ATOM      1  C   UNL     1       3.956   7.425  17.286  0.00  0.00    +0.000 C 
ATOM      2  C   UNL     1       3.822   6.166  18.153  0.00  0.00    +0.000 C 
ENDROOT
BRANCH   2   3
ATOM      3  N   UNL     1       4.846   5.177  17.775  0.00  0.00    +0.000 NA
ATOM      4  H   UNL     1       5.180   5.367  16.831  0.00  0.00    +0.000 HD
BRANCH   3   5
ATOM      5  C   UNL     1       5.952   5.125  18.727  0.00  0.00    +0.000 C 
BRANCH   5   6
ATOM      6  C   UNL     1       7.271   4.988  17.995  0.00  0.00    +0.000 C 
BRANCH   6   7
ATOM      7  C   UNL     1       7.050   5.311  16.527  0.00  0.00    +0.000 C 
ATOM      8  N   UNL     1       6.866   5.579  15.308  0.00  0.00    +0.000 NA
ENDBRANCH   6   7
ENDBRANCH   5   6
ENDBRANCH   3   5
ENDBRANCH   2   3
BRANCH   2   9
ATOM      9  C   UNL     1       2.399   5.583  17.994  0.00  0.00    +0.000 C 
BRANCH   9  10
ATOM     10  C   UNL     1       2.033   4.567  19.057  0.00  0.00    +0.000 A 
ATOM     11  C   UNL     1       1.404   3.361  18.713  0.00  0.00    +0.000 A 
ATOM     12  C   UNL     1       1.027   2.454  19.706  0.00  0.00    +0.000 A 
ATOM     13  C   UNL     1       1.277   2.739  21.048  0.00  0.00    +0.000 A 
ATOM     14  C   UNL     1       1.912   3.926  21.398  0.00  0.00    +0.000 A 
ATOM     15  C   UNL     1       2.292   4.828  20.407  0.00  0.00    +0.000 A 
ENDBRANCH   9  10
ENDBRANCH   2   9
TORSDOF 6
ENDMDL
