MODEL 1
REMARK VINA RESULT:      -9.2      0.000      0.000
REMARK  Name = 
REMARK  6 active torsions:
REMARK  status: ('A' for Active; 'I' for Inactive)
REMARK    1  A    between atoms: C_1  and  C_2
REMARK    2  A    between atoms: C_2  and  C_3
REMARK    3  A    between atoms: C_2  and  C_17
REMARK    4  A    between atoms: C_6  and  O_7
REMARK    5  A    between atoms: O_7  and  C_8
REMARK    6  A    between atoms: C_8  and  C_9
REMARK                            x       y       z     vdW  Elec       q    Type
REMARK                         _______ _______ _______ _____ _____    ______ ____
ROOT
ATOM      1  C   UNL     1       2.268   8.576  17.923  0.00  0.00    +0.000 C 
ATOM      2  C   UNL     1       2.212   7.908  19.315  0.00  0.00    +0.000 C 
ENDROOT
BRANCH   2   3
ATOM      3  C   UNL     1       2.028   6.396  19.235  0.00  0.00    +0.000 A 
ATOM      4  C   UNL     1       1.831   5.688  20.430  0.00  0.00    +0.000 A 
ATOM      5  C   UNL     1       2.315   4.389  20.531  0.00  0.00    +0.000 A 
ATOM      6  C   UNL     1       2.958   3.845  19.417  0.00  0.00    +0.000 A 
ATOM      7  C   UNL     1       2.639   4.309  18.141  0.00  0.00    +0.000 A 
ATOM      8  C   UNL     1       2.293   5.663  18.062  0.00  0.00    +0.000 A 
ATOM      9  N   UNL     1       3.233   3.656  17.009  0.00  0.00    +0.000 N 
ATOM     10  C   UNL     1       4.610   3.978  16.831  0.00  0.00    +0.000 A 
ATOM     11  C   UNL     1       5.109   4.101  15.535  0.00  0.00    +0.000 A 
ATOM     12  C   UNL     1       6.355   4.682  15.336  0.00  0.00    +0.000 A 
ATOM     13  C   UNL     1       7.095   5.124  16.436  0.00  0.00    +0.000 A 
ATOM     14  C   UNL     1       6.647   4.878  17.745  0.00  0.00    +0.000 A 
ATOM     15  C   UNL     1       5.422   4.240  17.956  0.00  0.00    +0.000 A 
ATOM     16  S   UNL     1       4.862   3.734  19.622  0.00  0.00    +0.000 S 
ATOM     17  H   UNL     1       3.211   2.653  17.218  0.00  0.00    +0.000 HD
ENDBRANCH   2   3
BRANCH   2  18
ATOM     18  C   UNL     1       1.217   8.645  20.176  0.00  0.00    +0.000 A 
ATOM     19  C   UNL     1       0.371   9.599  19.610  0.00  0.00    +0.000 A 
ATOM     20  C   UNL     1      -0.399  10.421  20.418  0.00  0.00    +0.000 A 
ATOM     21  C   UNL     1      -0.378  10.270  21.804  0.00  0.00    +0.000 A 
ATOM     22  C   UNL     1       0.438   9.300  22.383  0.00  0.00    +0.000 A 
ATOM     23  C   UNL     1       1.231   8.488  21.568  0.00  0.00    +0.000 A 
BRANCH  21  24
ATOM     24  O   UNL     1      -1.111  11.027  22.681  0.00  0.00    +0.000 OA
BRANCH  24  25
ATOM     25  C   UNL     1      -1.672  12.210  22.107  0.00  0.00    +0.000 C 
BRANCH  25  26
ATOM     26  C   UNL     1      -3.058  12.464  22.634  0.00  0.00    +0.000 A 
ATOM     27  C   UNL     1      -4.120  12.803  21.790  0.00  0.00    +0.000 A 
ATOM     28  C   UNL     1      -5.394  13.014  22.318  0.00  0.00    +0.000 A 
ATOM     29  C   UNL     1      -5.613  12.878  23.689  0.00  0.00    +0.000 A 
ATOM     30  C   UNL     1      -4.567  12.521  24.533  0.00  0.00    +0.000 A 
ATOM     31  C   UNL     1      -3.296  12.307  24.007  0.00  0.00    +0.000 A 
ENDBRANCH  25  26
ENDBRANCH  24  25
ENDBRANCH  21  24
ENDBRANCH   2  18
TORSDOF 5
ENDMDL
MODEL 2
REMARK VINA RESULT:      -8.9      1.004      1.342
REMARK  Name = 
REMARK  6 active torsions:
REMARK  status: ('A' for Active; 'I' for Inactive)
REMARK    1  A    between atoms: C_1  and  C_2
REMARK    2  A    between atoms: C_2  and  C_3
REMARK    3  A    between atoms: C_2  and  C_17
REMARK    4  A    between atoms: C_6  and  O_7
REMARK    5  A    between atoms: O_7  and  C_8
REMARK    6  A    between atoms: C_8  and  C_9
REMARK                            x       y       z     vdW  Elec       q    Type
REMARK                         _______ _______ _______ _____ _____    ______ ____
ROOT
ATOM      1  C   UNL     1       2.294   8.579  17.926  0.00  0.00    +0.000 C 
ATOM      2  C   UNL     1       2.262   7.883  19.304  0.00  0.00    +0.000 C 
ENDROOT
BRANCH   2   3
ATOM      3  C   UNL     1       2.059   6.374  19.198  0.00  0.00    +0.000 A 
ATOM      4  C   UNL     1       1.830   5.652  20.378  0.00  0.00    +0.000 A 
ATOM      5  C   UNL     1       2.296   4.345  20.467  0.00  0.00    +0.000 A 
ATOM      6  C   UNL     1       2.951   3.809  19.356  0.00  0.00    +0.000 A 
ATOM      7  C   UNL     1       2.662   4.297  18.082  0.00  0.00    +0.000 A 
ATOM      8  C   UNL     1       2.335   5.656  18.018  0.00  0.00    +0.000 A 
ATOM      9  N   UNL     1       3.268   3.654  16.952  0.00  0.00    +0.000 N 
ATOM     10  C   UNL     1       4.652   3.960  16.804  0.00  0.00    +0.000 A 
ATOM     11  C   UNL     1       5.177   4.095  15.519  0.00  0.00    +0.000 A 
ATOM     12  C   UNL     1       6.434   4.662  15.352  0.00  0.00    +0.000 A 
ATOM     13  C   UNL     1       7.160   5.077  16.472  0.00  0.00    +0.000 A 
ATOM     14  C   UNL     1       6.685   4.817  17.769  0.00  0.00    +0.000 A 
ATOM     15  C   UNL     1       5.447   4.193  17.948  0.00  0.00    +0.000 A 
ATOM     16  S   UNL     1       4.850   3.669  19.595  0.00  0.00    +0.000 S 
ATOM     17  H   UNL     1       3.229   2.647  17.145  0.00  0.00    +0.000 HD
ENDBRANCH   2   3
BRANCH   2  18
ATOM     18  C   UNL     1       1.295   8.612  20.202  0.00  0.00    +0.000 A 
ATOM     19  C   UNL     1       0.389   9.526  19.663  0.00  0.00    +0.000 A 
ATOM     20  C   UNL     1      -0.361  10.345  20.493  0.00  0.00    +0.000 A 
ATOM     21  C   UNL     1      -0.256  10.232  21.879  0.00  0.00    +0.000 A 
ATOM     22  C   UNL     1       0.621   9.302  22.434  0.00  0.00    +0.000 A 
ATOM     23  C   UNL     1       1.392   8.492  21.595  0.00  0.00    +0.000 A 
BRANCH  21  24
ATOM     24  O   UNL     1      -0.962  10.990  22.777  0.00  0.00    +0.000 OA
BRANCH  24  25
ATOM     25  C   UNL     1      -1.708  12.055  22.187  0.00  0.00    +0.000 C 
BRANCH  25  26
ATOM     26  C   UNL     1      -2.126  13.065  23.220  0.00  0.00    +0.000 A 
ATOM     27  C   UNL     1      -3.365  12.995  23.865  0.00  0.00    +0.000 A 
ATOM     28  C   UNL     1      -3.705  13.942  24.830  0.00  0.00    +0.000 A 
ATOM     29  C   UNL     1      -2.807  14.956  25.162  0.00  0.00    +0.000 A 
ATOM     30  C   UNL     1      -1.564  15.020  24.541  0.00  0.00    +0.000 A 
ATOM     31  C   UNL     1      -1.222  14.075  23.580  0.00  0.00    +0.000 A 
ENDBRANCH  25  26
ENDBRANCH  24  25
ENDBRANCH  21  24
ENDBRANCH   2  18
TORSDOF 5
ENDMDL
MODEL 3
REMARK VINA RESULT:      -8.9      3.751     10.414
REMARK  Name = 
REMARK  6 active torsions:
REMARK  status: ('A' for Active; 'I' for Inactive)
REMARK    1  A    between atoms: C_1  and  C_2
REMARK    2  A    between atoms: C_2  and  C_3
REMARK    3  A    between atoms: C_2  and  C_17
REMARK    4  A    between atoms: C_6  and  O_7
REMARK    5  A    between atoms: O_7  and  C_8
REMARK    6  A    between atoms: C_8  and  C_9
REMARK                            x       y       z     vdW  Elec       q    Type
REMARK                         _______ _______ _______ _____ _____    ______ ____
ROOT
ATOM      1  C   UNL     1      -0.292   9.265  21.525  0.00  0.00    +0.000 C 
ATOM      2  C   UNL     1       0.786   9.782  20.548  0.00  0.00    +0.000 C 
ENDROOT
BRANCH   2   3
ATOM      3  C   UNL     1       0.230  10.770  19.527  0.00  0.00    +0.000 A 
ATOM      4  C   UNL     1       1.119  11.677  18.930  0.00  0.00    +0.000 A 
ATOM      5  C   UNL     1       0.655  12.938  18.574  0.00  0.00    +0.000 A 
ATOM      6  C   UNL     1      -0.690  13.228  18.810  0.00  0.00    +0.000 A 
ATOM      7  C   UNL     1      -1.624  12.192  18.847  0.00  0.00    +0.000 A 
ATOM      8  C   UNL     1      -1.152  10.974  19.347  0.00  0.00    +0.000 A 
ATOM      9  N   UNL     1      -3.012  12.531  18.981  0.00  0.00    +0.000 N 
ATOM     10  C   UNL     1      -3.364  12.956  20.295  0.00  0.00    +0.000 A 
ATOM     11  C   UNL     1      -4.614  12.601  20.803  0.00  0.00    +0.000 A 
ATOM     12  C   UNL     1      -4.866  12.756  22.160  0.00  0.00    +0.000 A 
ATOM     13  C   UNL     1      -3.872  13.275  22.995  0.00  0.00    +0.000 A 
ATOM     14  C   UNL     1      -2.665  13.752  22.457  0.00  0.00    +0.000 A 
ATOM     15  C   UNL     1      -2.425  13.656  21.083  0.00  0.00    +0.000 A 
ATOM     16  S   UNL     1      -0.958  14.412  20.296  0.00  0.00    +0.000 S 
ATOM     17  H   UNL     1      -3.164  13.347  18.379  0.00  0.00    +0.000 HD
ENDBRANCH   2   3
BRANCH   2  18
ATOM     18  C   UNL     1       1.540   8.607  19.979  0.00  0.00    +0.000 A 
ATOM     19  C   UNL     1       1.971   8.625  18.652  0.00  0.00    +0.000 A 
ATOM     20  C   UNL     1       2.483   7.479  18.064  0.00  0.00    +0.000 A 
ATOM     21  C   UNL     1       2.621   6.305  18.806  0.00  0.00    +0.000 A 
ATOM     22  C   UNL     1       2.225   6.280  20.142  0.00  0.00    +0.000 A 
ATOM     23  C   UNL     1       1.689   7.431  20.726  0.00  0.00    +0.000 A 
BRANCH  21  24
ATOM     24  O   UNL     1       3.124   5.129  18.315  0.00  0.00    +0.000 OA
BRANCH  24  25
ATOM     25  C   UNL     1       4.055   5.291  17.243  0.00  0.00    +0.000 C 
BRANCH  25  26
ATOM     26  C   UNL     1       5.398   5.740  17.752  0.00  0.00    +0.000 A 
ATOM     27  C   UNL     1       6.004   5.148  18.864  0.00  0.00    +0.000 A 
ATOM     28  C   UNL     1       7.258   5.584  19.292  0.00  0.00    +0.000 A 
ATOM     29  C   UNL     1       7.915   6.605  18.605  0.00  0.00    +0.000 A 
ATOM     30  C   UNL     1       7.328   7.185  17.485  0.00  0.00    +0.000 A 
ATOM     31  C   UNL     1       6.079   6.749  17.055  0.00  0.00    +0.000 A 
ENDBRANCH  25  26
ENDBRANCH  24  25
ENDBRANCH  21  24
ENDBRANCH   2  18
TORSDOF 5
ENDMDL
MODEL 4
REMARK VINA RESULT:      -8.8      3.553     10.480
REMARK  Name = 
REMARK  6 active torsions:
REMARK  status: ('A' for Active; 'I' for Inactive)
REMARK    1  A    between atoms: C_1  and  C_2
REMARK    2  A    between atoms: C_2  and  C_3
REMARK    3  A    between atoms: C_2  and  C_17
REMARK    4  A    between atoms: C_6  and  O_7
REMARK    5  A    between atoms: O_7  and  C_8
REMARK    6  A    between atoms: C_8  and  C_9
REMARK                            x       y       z     vdW  Elec       q    Type
REMARK                         _______ _______ _______ _____ _____    ______ ____
ROOT
ATOM      1  C   UNL     1      -0.132   9.031  21.545  0.00  0.00    +0.000 C 
ATOM      2  C   UNL     1       1.007   9.381  20.562  0.00  0.00    +0.000 C 
ENDROOT
BRANCH   2   3
ATOM      3  C   UNL     1       0.583  10.398  19.507  0.00  0.00    +0.000 A 
ATOM      4  C   UNL     1       1.561  11.253  18.979  0.00  0.00    +0.000 A 
ATOM      5  C   UNL     1       1.195  12.538  18.594  0.00  0.00    +0.000 A 
ATOM      6  C   UNL     1      -0.147  12.902  18.732  0.00  0.00    +0.000 A 
ATOM      7  C   UNL     1      -1.136  11.919  18.697  0.00  0.00    +0.000 A 
ATOM      8  C   UNL     1      -0.769  10.677  19.226  0.00  0.00    +0.000 A 
ATOM      9  N   UNL     1      -2.510  12.333  18.731  0.00  0.00    +0.000 N 
ATOM     10  C   UNL     1      -2.933  12.777  20.017  0.00  0.00    +0.000 A 
ATOM     11  C   UNL     1      -4.234  12.492  20.431  0.00  0.00    +0.000 A 
ATOM     12  C   UNL     1      -4.577  12.662  21.766  0.00  0.00    +0.000 A 
ATOM     13  C   UNL     1      -3.620  13.126  22.673  0.00  0.00    +0.000 A 
ATOM     14  C   UNL     1      -2.352  13.536  22.226  0.00  0.00    +0.000 A 
ATOM     15  C   UNL     1      -2.018  13.425  20.874  0.00  0.00    +0.000 A 
ATOM     16  S   UNL     1      -0.458  14.099  20.199  0.00  0.00    +0.000 S 
ATOM     17  H   UNL     1      -2.572  13.156  18.122  0.00  0.00    +0.000 HD
ENDBRANCH   2   3
BRANCH   2  18
ATOM     18  C   UNL     1       1.614   8.105  20.036  0.00  0.00    +0.000 A 
ATOM     19  C   UNL     1       2.143   8.059  18.746  0.00  0.00    +0.000 A 
ATOM     20  C   UNL     1       2.517   6.848  18.184  0.00  0.00    +0.000 A 
ATOM     21  C   UNL     1       2.417   5.667  18.918  0.00  0.00    +0.000 A 
ATOM     22  C   UNL     1       1.921   5.700  20.219  0.00  0.00    +0.000 A 
ATOM     23  C   UNL     1       1.524   6.919  20.777  0.00  0.00    +0.000 A 
BRANCH  21  24
ATOM     24  O   UNL     1       2.771   4.428  18.450  0.00  0.00    +0.000 OA
BRANCH  24  25
ATOM     25  C   UNL     1       4.055   3.980  18.889  0.00  0.00    +0.000 C 
BRANCH  25  26
ATOM     26  C   UNL     1       5.092   4.168  17.815  0.00  0.00    +0.000 A 
ATOM     27  C   UNL     1       4.848   3.824  16.482  0.00  0.00    +0.000 A 
ATOM     28  C   UNL     1       5.832   4.030  15.515  0.00  0.00    +0.000 A 
ATOM     29  C   UNL     1       7.058   4.589  15.874  0.00  0.00    +0.000 A 
ATOM     30  C   UNL     1       7.301   4.954  17.194  0.00  0.00    +0.000 A 
ATOM     31  C   UNL     1       6.320   4.751  18.160  0.00  0.00    +0.000 A 
ENDBRANCH  25  26
ENDBRANCH  24  25
ENDBRANCH  21  24
ENDBRANCH   2  18
TORSDOF 5
ENDMDL
MODEL 5
REMARK VINA RESULT:      -8.8      1.421      2.129
REMARK  Name = 
REMARK  6 active torsions:
REMARK  status: ('A' for Active; 'I' for Inactive)
REMARK    1  A    between atoms: C_1  and  C_2
REMARK    2  A    between atoms: C_2  and  C_3
REMARK    3  A    between atoms: C_2  and  C_17
REMARK    4  A    between atoms: C_6  and  O_7
REMARK    5  A    between atoms: O_7  and  C_8
REMARK    6  A    between atoms: C_8  and  C_9
REMARK                            x       y       z     vdW  Elec       q    Type
REMARK                         _______ _______ _______ _____ _____    ______ ____
ROOT
ATOM      1  C   UNL     1       2.149   8.636  18.027  0.00  0.00    +0.000 C 
ATOM      2  C   UNL     1       2.199   7.900  19.384  0.00  0.00    +0.000 C 
ENDROOT
BRANCH   2   3
ATOM      3  C   UNL     1       1.957   6.400  19.251  0.00  0.00    +0.000 A 
ATOM      4  C   UNL     1       1.660   5.670  20.411  0.00  0.00    +0.000 A 
ATOM      5  C   UNL     1       2.084   4.349  20.502  0.00  0.00    +0.000 A 
ATOM      6  C   UNL     1       2.767   3.807  19.411  0.00  0.00    +0.000 A 
ATOM      7  C   UNL     1       2.543   4.319  18.132  0.00  0.00    +0.000 A 
ATOM      8  C   UNL     1       2.259   5.687  18.073  0.00  0.00    +0.000 A 
ATOM      9  N   UNL     1       3.175   3.671  17.019  0.00  0.00    +0.000 N 
ATOM     10  C   UNL     1       4.572   3.938  16.930  0.00  0.00    +0.000 A 
ATOM     11  C   UNL     1       5.151   4.074  15.668  0.00  0.00    +0.000 A 
ATOM     12  C   UNL     1       6.430   4.605  15.559  0.00  0.00    +0.000 A 
ATOM     13  C   UNL     1       7.122   4.985  16.711  0.00  0.00    +0.000 A 
ATOM     14  C   UNL     1       6.589   4.724  17.985  0.00  0.00    +0.000 A 
ATOM     15  C   UNL     1       5.327   4.134  18.107  0.00  0.00    +0.000 A 
ATOM     16  S   UNL     1       4.650   3.609  19.722  0.00  0.00    +0.000 S 
ATOM     17  H   UNL     1       3.099   2.664  17.197  0.00  0.00    +0.000 HD
ENDBRANCH   2   3
BRANCH   2  18
ATOM     18  C   UNL     1       1.313   8.621  20.369  0.00  0.00    +0.000 A 
ATOM     19  C   UNL     1       0.373   9.549  19.918  0.00  0.00    +0.000 A 
ATOM     20  C   UNL     1      -0.300  10.360  20.819  0.00  0.00    +0.000 A 
ATOM     21  C   UNL     1      -0.085  10.224  22.190  0.00  0.00    +0.000 A 
ATOM     22  C   UNL     1       0.827   9.280  22.657  0.00  0.00    +0.000 A 
ATOM     23  C   UNL     1       1.521   8.479  21.747  0.00  0.00    +0.000 A 
BRANCH  21  24
ATOM     24  O   UNL     1      -0.710  10.972  23.154  0.00  0.00    +0.000 OA
BRANCH  24  25
ATOM     25  C   UNL     1      -1.637  11.931  22.642  0.00  0.00    +0.000 C 
BRANCH  25  26
ATOM     26  C   UNL     1      -1.168  13.336  22.905  0.00  0.00    +0.000 A 
ATOM     27  C   UNL     1      -1.675  14.101  23.959  0.00  0.00    +0.000 A 
ATOM     28  C   UNL     1      -1.200  15.394  24.178  0.00  0.00    +0.000 A 
ATOM     29  C   UNL     1      -0.209  15.923  23.351  0.00  0.00    +0.000 A 
ATOM     30  C   UNL     1       0.317  15.161  22.312  0.00  0.00    +0.000 A 
ATOM     31  C   UNL     1      -0.155  13.870  22.095  0.00  0.00    +0.000 A 
ENDBRANCH  25  26
ENDBRANCH  24  25
ENDBRANCH  21  24
ENDBRANCH   2  18
TORSDOF 5
ENDMDL
MODEL 6
REMARK VINA RESULT:      -8.8      3.758     10.378
REMARK  Name = 
REMARK  6 active torsions:
REMARK  status: ('A' for Active; 'I' for Inactive)
REMARK    1  A    between atoms: C_1  and  C_2
REMARK    2  A    between atoms: C_2  and  C_3
REMARK    3  A    between atoms: C_2  and  C_17
REMARK    4  A    between atoms: C_6  and  O_7
REMARK    5  A    between atoms: O_7  and  C_8
REMARK    6  A    between atoms: C_8  and  C_9
REMARK                            x       y       z     vdW  Elec       q    Type
REMARK                         _______ _______ _______ _____ _____    ______ ____
ROOT
ATOM      1  C   UNL     1      -0.246   9.064  21.337  0.00  0.00    +0.000 C 
ATOM      2  C   UNL     1       0.870   9.501  20.362  0.00  0.00    +0.000 C 
ENDROOT
BRANCH   2   3
ATOM      3  C   UNL     1       0.412  10.583  19.389  0.00  0.00    +0.000 A 
ATOM      4  C   UNL     1       1.372  11.474  18.889  0.00  0.00    +0.000 A 
ATOM      5  C   UNL     1       0.993  12.780  18.600  0.00  0.00    +0.000 A 
ATOM      6  C   UNL     1      -0.344  13.130  18.803  0.00  0.00    +0.000 A 
ATOM      7  C   UNL     1      -1.333  12.149  18.735  0.00  0.00    +0.000 A 
ATOM      8  C   UNL     1      -0.949  10.876  19.170  0.00  0.00    +0.000 A 
ATOM      9  N   UNL     1      -2.705  12.555  18.838  0.00  0.00    +0.000 N 
ATOM     10  C   UNL     1      -3.089  12.914  20.163  0.00  0.00    +0.000 A 
ATOM     11  C   UNL     1      -4.376  12.599  20.597  0.00  0.00    +0.000 A 
ATOM     12  C   UNL     1      -4.677  12.680  21.951  0.00  0.00    +0.000 A 
ATOM     13  C   UNL     1      -3.693  13.086  22.856  0.00  0.00    +0.000 A 
ATOM     14  C   UNL     1      -2.440  13.528  22.398  0.00  0.00    +0.000 A 
ATOM     15  C   UNL     1      -2.148  13.507  21.032  0.00  0.00    +0.000 A 
ATOM     16  S   UNL     1      -0.610  14.229  20.354  0.00  0.00    +0.000 S 
ATOM     17  H   UNL     1      -2.787  13.416  18.287  0.00  0.00    +0.000 HD
ENDBRANCH   2   3
BRANCH   2  18
ATOM     18  C   UNL     1       1.485   8.275  19.737  0.00  0.00    +0.000 A 
ATOM     19  C   UNL     1       1.711   7.133  20.507  0.00  0.00    +0.000 A 
ATOM     20  C   UNL     1       2.455   6.080  19.998  0.00  0.00    +0.000 A 
ATOM     21  C   UNL     1       2.945   6.125  18.693  0.00  0.00    +0.000 A 
ATOM     22  C   UNL     1       2.700   7.245  17.901  0.00  0.00    +0.000 A 
ATOM     23  C   UNL     1       1.969   8.315  18.423  0.00  0.00    +0.000 A 
BRANCH  21  24
ATOM     24  O   UNL     1       3.679   5.130  18.102  0.00  0.00    +0.000 OA
BRANCH  24  25
ATOM     25  C   UNL     1       4.535   5.579  17.050  0.00  0.00    +0.000 C 
BRANCH  25  26
ATOM     26  C   UNL     1       5.853   6.064  17.590  0.00  0.00    +0.000 A 
ATOM     27  C   UNL     1       6.464   7.228  17.115  0.00  0.00    +0.000 A 
ATOM     28  C   UNL     1       7.678   7.651  17.656  0.00  0.00    +0.000 A 
ATOM     29  C   UNL     1       8.281   6.920  18.679  0.00  0.00    +0.000 A 
ATOM     30  C   UNL     1       7.668   5.772  19.173  0.00  0.00    +0.000 A 
ATOM     31  C   UNL     1       6.456   5.350  18.636  0.00  0.00    +0.000 A 
ENDBRANCH  25  26
ENDBRANCH  24  25
ENDBRANCH  21  24
ENDBRANCH   2  18
TORSDOF 5
ENDMDL
MODEL 7
REMARK VINA RESULT:      -8.8      1.910      2.400
REMARK  Name = 
REMARK  6 active torsions:
REMARK  status: ('A' for Active; 'I' for Inactive)
REMARK    1  A    between atoms: C_1  and  C_2
REMARK    2  A    between atoms: C_2  and  C_3
REMARK    3  A    between atoms: C_2  and  C_17
REMARK    4  A    between atoms: C_6  and  O_7
REMARK    5  A    between atoms: O_7  and  C_8
REMARK    6  A    between atoms: C_8  and  C_9
REMARK                            x       y       z     vdW  Elec       q    Type
REMARK                         _______ _______ _______ _____ _____    ______ ____
ROOT
ATOM      1  C   UNL     1       3.055   8.588  17.697  0.00  0.00    +0.000 C 
ATOM      2  C   UNL     1       2.282   8.140  18.957  0.00  0.00    +0.000 C 
ENDROOT
BRANCH   2   3
ATOM      3  C   UNL     1       2.103   6.627  19.033  0.00  0.00    +0.000 A 
ATOM      4  C   UNL     1       1.961   6.039  20.298  0.00  0.00    +0.000 A 
ATOM      5  C   UNL     1       2.457   4.757  20.503  0.00  0.00    +0.000 A 
ATOM      6  C   UNL     1       3.054   4.107  19.420  0.00  0.00    +0.000 A 
ATOM      7  C   UNL     1       2.677   4.445  18.120  0.00  0.00    +0.000 A 
ATOM      8  C   UNL     1       2.320   5.784  17.925  0.00  0.00    +0.000 A 
ATOM      9  N   UNL     1       3.225   3.686  17.032  0.00  0.00    +0.000 N 
ATOM     10  C   UNL     1       4.591   3.991  16.764  0.00  0.00    +0.000 A 
ATOM     11  C   UNL     1       5.033   3.988  15.441  0.00  0.00    +0.000 A 
ATOM     12  C   UNL     1       6.266   4.549  15.133  0.00  0.00    +0.000 A 
ATOM     13  C   UNL     1       7.051   5.096  16.152  0.00  0.00    +0.000 A 
ATOM     14  C   UNL     1       6.662   4.978  17.497  0.00  0.00    +0.000 A 
ATOM     15  C   UNL     1       5.450   4.362  17.822  0.00  0.00    +0.000 A 
ATOM     16  S   UNL     1       4.966   4.020  19.552  0.00  0.00    +0.000 S 
ATOM     17  H   UNL     1       3.218   2.707  17.339  0.00  0.00    +0.000 HD
ENDBRANCH   2   3
BRANCH   2  18
ATOM     18  C   UNL     1       1.019   8.956  19.075  0.00  0.00    +0.000 A 
ATOM     19  C   UNL     1       0.337   9.364  17.928  0.00  0.00    +0.000 A 
ATOM     20  C   UNL     1      -0.702  10.277  18.017  0.00  0.00    +0.000 A 
ATOM     21  C   UNL     1      -1.114  10.761  19.259  0.00  0.00    +0.000 A 
ATOM     22  C   UNL     1      -0.463  10.339  20.417  0.00  0.00    +0.000 A 
ATOM     23  C   UNL     1       0.599   9.435  20.323  0.00  0.00    +0.000 A 
BRANCH  21  24
ATOM     24  O   UNL     1      -2.135  11.656  19.446  0.00  0.00    +0.000 OA
BRANCH  24  25
ATOM     25  C   UNL     1      -3.012  11.787  18.326  0.00  0.00    +0.000 C 
BRANCH  25  26
ATOM     26  C   UNL     1      -4.453  11.706  18.752  0.00  0.00    +0.000 A 
ATOM     27  C   UNL     1      -5.401  10.984  18.020  0.00  0.00    +0.000 A 
ATOM     28  C   UNL     1      -6.723  10.921  18.460  0.00  0.00    +0.000 A 
ATOM     29  C   UNL     1      -7.101  11.569  19.636  0.00  0.00    +0.000 A 
ATOM     30  C   UNL     1      -6.159  12.272  20.381  0.00  0.00    +0.000 A 
ATOM     31  C   UNL     1      -4.839  12.334  19.945  0.00  0.00    +0.000 A 
ENDBRANCH  25  26
ENDBRANCH  24  25
ENDBRANCH  21  24
ENDBRANCH   2  18
TORSDOF 5
ENDMDL
MODEL 8
REMARK VINA RESULT:      -8.7      1.706      2.284
REMARK  Name = 
REMARK  6 active torsions:
REMARK  status: ('A' for Active; 'I' for Inactive)
REMARK    1  A    between atoms: C_1  and  C_2
REMARK    2  A    between atoms: C_2  and  C_3
REMARK    3  A    between atoms: C_2  and  C_17
REMARK    4  A    between atoms: C_6  and  O_7
REMARK    5  A    between atoms: O_7  and  C_8
REMARK    6  A    between atoms: C_8  and  C_9
REMARK                            x       y       z     vdW  Elec       q    Type
REMARK                         _______ _______ _______ _____ _____    ______ ____
ROOT
ATOM      1  C   UNL     1       2.991   8.512  17.723  0.00  0.00    +0.000 C 
ATOM      2  C   UNL     1       2.380   8.009  19.049  0.00  0.00    +0.000 C 
ENDROOT
BRANCH   2   3
ATOM      3  C   UNL     1       2.113   6.507  19.042  0.00  0.00    +0.000 A 
ATOM      4  C   UNL     1       1.842   5.876  20.265  0.00  0.00    +0.000 A 
ATOM      5  C   UNL     1       2.248   4.559  20.447  0.00  0.00    +0.000 A 
ATOM      6  C   UNL     1       2.890   3.921  19.383  0.00  0.00    +0.000 A 
ATOM      7  C   UNL     1       2.633   4.335  18.075  0.00  0.00    +0.000 A 
ATOM      8  C   UNL     1       2.368   5.699  17.916  0.00  0.00    +0.000 A 
ATOM      9  N   UNL     1       3.221   3.591  16.998  0.00  0.00    +0.000 N 
ATOM     10  C   UNL     1       4.618   3.826  16.847  0.00  0.00    +0.000 A 
ATOM     11  C   UNL     1       5.160   3.852  15.562  0.00  0.00    +0.000 A 
ATOM     12  C   UNL     1       6.442   4.351  15.372  0.00  0.00    +0.000 A 
ATOM     13  C   UNL     1       7.176   4.808  16.470  0.00  0.00    +0.000 A 
ATOM     14  C   UNL     1       6.678   4.658  17.776  0.00  0.00    +0.000 A 
ATOM     15  C   UNL     1       5.412   4.101  17.981  0.00  0.00    +0.000 A 
ATOM     16  S   UNL     1       4.778   3.716  19.653  0.00  0.00    +0.000 S 
ATOM     17  H   UNL     1       3.136   2.602  17.258  0.00  0.00    +0.000 HD
ENDBRANCH   2   3
BRANCH   2  18
ATOM     18  C   UNL     1       1.207   8.882  19.414  0.00  0.00    +0.000 A 
ATOM     19  C   UNL     1       0.568   9.644  18.436  0.00  0.00    +0.000 A 
ATOM     20  C   UNL     1      -0.374  10.597  18.792  0.00  0.00    +0.000 A 
ATOM     21  C   UNL     1      -0.733  10.771  20.128  0.00  0.00    +0.000 A 
ATOM     22  C   UNL     1      -0.127   9.995  21.114  0.00  0.00    +0.000 A 
ATOM     23  C   UNL     1       0.838   9.051  20.756  0.00  0.00    +0.000 A 
BRANCH  21  24
ATOM     24  O   UNL     1      -1.659  11.678  20.573  0.00  0.00    +0.000 OA
BRANCH  24  25
ATOM     25  C   UNL     1      -2.223  12.493  19.544  0.00  0.00    +0.000 C 
BRANCH  25  26
ATOM     26  C   UNL     1      -3.662  12.134  19.294  0.00  0.00    +0.000 A 
ATOM     27  C   UNL     1      -4.688  12.546  20.151  0.00  0.00    +0.000 A 
ATOM     28  C   UNL     1      -6.011  12.205  19.872  0.00  0.00    +0.000 A 
ATOM     29  C   UNL     1      -6.317  11.462  18.732  0.00  0.00    +0.000 A 
ATOM     30  C   UNL     1      -5.304  11.067  17.862  0.00  0.00    +0.000 A 
ATOM     31  C   UNL     1      -3.984  11.408  18.138  0.00  0.00    +0.000 A 
ENDBRANCH  25  26
ENDBRANCH  24  25
ENDBRANCH  21  24
ENDBRANCH   2  18
TORSDOF 5
ENDMDL
MODEL 9
REMARK VINA RESULT:      -8.6      3.987     10.151
REMARK  Name = 
REMARK  6 active torsions:
REMARK  status: ('A' for Active; 'I' for Inactive)
REMARK    1  A    between atoms: C_1  and  C_2
REMARK    2  A    between atoms: C_2  and  C_3
REMARK    3  A    between atoms: C_2  and  C_17
REMARK    4  A    between atoms: C_6  and  O_7
REMARK    5  A    between atoms: O_7  and  C_8
REMARK    6  A    between atoms: C_8  and  C_9
REMARK                            x       y       z     vdW  Elec       q    Type
REMARK                         _______ _______ _______ _____ _____    ______ ____
ROOT
ATOM      1  C   UNL     1      -1.333  10.185  17.808  0.00  0.00    +0.000 C 
ATOM      2  C   UNL     1      -0.493  10.355  19.092  0.00  0.00    +0.000 C 
ENDROOT
BRANCH   2   3
ATOM      3  C   UNL     1      -0.189  11.816  19.410  0.00  0.00    +0.000 A 
ATOM      4  C   UNL     1       1.012  12.115  20.069  0.00  0.00    +0.000 A 
ATOM      5  C   UNL     1       1.048  13.196  20.942  0.00  0.00    +0.000 A 
ATOM      6  C   UNL     1      -0.119  13.948  21.098  0.00  0.00    +0.000 A 
ATOM      7  C   UNL     1      -1.053  13.995  20.063  0.00  0.00    +0.000 A 
ATOM      8  C   UNL     1      -1.159  12.831  19.294  0.00  0.00    +0.000 A 
ATOM      9  N   UNL     1      -2.187  14.862  20.207  0.00  0.00    +0.000 N 
ATOM     10  C   UNL     1      -3.161  14.369  21.123  0.00  0.00    +0.000 A 
ATOM     11  C   UNL     1      -4.511  14.589  20.852  0.00  0.00    +0.000 A 
ATOM     12  C   UNL     1      -5.473  13.886  21.566  0.00  0.00    +0.000 A 
ATOM     13  C   UNL     1      -5.077  12.980  22.554  0.00  0.00    +0.000 A 
ATOM     14  C   UNL     1      -3.724  12.860  22.913  0.00  0.00    +0.000 A 
ATOM     15  C   UNL     1      -2.753  13.608  22.241  0.00  0.00    +0.000 A 
ATOM     16  S   UNL     1      -1.003  13.633  22.771  0.00  0.00    +0.000 S 
ATOM     17  H   UNL     1      -1.831  15.728  20.626  0.00  0.00    +0.000 HD
ENDBRANCH   2   3
BRANCH   2  18
ATOM     18  C   UNL     1       0.702   9.437  19.025  0.00  0.00    +0.000 A 
ATOM     19  C   UNL     1       1.399   9.280  17.827  0.00  0.00    +0.000 A 
ATOM     20  C   UNL     1       2.365   8.294  17.701  0.00  0.00    +0.000 A 
ATOM     21  C   UNL     1       2.689   7.479  18.786  0.00  0.00    +0.000 A 
ATOM     22  C   UNL     1       2.024   7.645  19.999  0.00  0.00    +0.000 A 
ATOM     23  C   UNL     1       1.035   8.625  20.117  0.00  0.00    +0.000 A 
BRANCH  21  24
ATOM     24  O   UNL     1       3.635   6.487  18.759  0.00  0.00    +0.000 OA
BRANCH  24  25
ATOM     25  C   UNL     1       3.204   5.283  18.123  0.00  0.00    +0.000 C 
BRANCH  25  26
ATOM     26  C   UNL     1       2.483   4.385  19.092  0.00  0.00    +0.000 A 
ATOM     27  C   UNL     1       1.293   3.734  18.753  0.00  0.00    +0.000 A 
ATOM     28  C   UNL     1       0.667   2.896  19.675  0.00  0.00    +0.000 A 
ATOM     29  C   UNL     1       1.231   2.698  20.935  0.00  0.00    +0.000 A 
ATOM     30  C   UNL     1       2.426   3.325  21.273  0.00  0.00    +0.000 A 
ATOM     31  C   UNL     1       3.054   4.159  20.353  0.00  0.00    +0.000 A 
ENDBRANCH  25  26
ENDBRANCH  24  25
ENDBRANCH  21  24
ENDBRANCH   2  18
TORSDOF 5
ENDMDL
