MODEL 1
REMARK VINA RESULT:      -8.3      0.000      0.000
REMARK  Name = 
REMARK  12 active torsions:
REMARK  status: ('A' for Active; 'I' for Inactive)
REMARK    1  A    between atoms: C_1  and  C_2
REMARK    2  A    between atoms: C_2  and  O_3
REMARK    3  A    between atoms: O_3  and  C_4
REMARK    4  A    between atoms: C_7  and  C_8
REMARK    5  A    between atoms: C_8  and  C_9
REMARK    6  A    between atoms: C_14  and  C_15
REMARK    7  A    between atoms: C_15  and  C_16
REMARK    8  A    between atoms: C_19  and  O_20
REMARK    9  A    between atoms: C_21  and  O_22
REMARK   10  A    between atoms: O_22  and  C_23
REMARK   11  A    between atoms: C_26  and  O_27
REMARK   12  A    between atoms: O_27  and  C_28
REMARK                            x       y       z     vdW  Elec       q    Type
REMARK                         _______ _______ _______ _____ _____    ______ ____
ROOT
ATOM      1  C   UNL     1       2.800   5.986  19.216  0.00  0.00    +0.000 C 
ATOM      2  C   UNL     1       1.887   5.465  20.312  0.00  0.00    +0.000 C 
ATOM      3  O   UNL     1       1.113   4.406  19.756  0.00  0.00    +0.000 OA
ATOM      4  C   UNL     1       1.610   4.036  18.553  0.00  0.00    +0.000 C 
ATOM      5  O   UNL     1       1.157   3.124  17.876  0.00  0.00    +0.000 OA
ATOM      6  C   UNL     1       2.787   4.877  18.162  0.00  0.00    +0.000 C 
ENDROOT
BRANCH   1   7
ATOM      7  C   UNL     1       2.327   7.335  18.620  0.00  0.00    +0.000 C 
BRANCH   7  11
ATOM      8  C   UNL     1       0.601  10.066  21.520  0.00  0.00    +0.000 A 
ATOM      9  C   UNL     1       1.186   8.848  21.920  0.00  0.00    +0.000 A 
ATOM     10  C   UNL     1       1.727   7.951  20.993  0.00  0.00    +0.000 A 
ATOM     11  C   UNL     1       1.658   8.230  19.634  0.00  0.00    +0.000 A 
ATOM     12  C   UNL     1       0.948   9.364  19.228  0.00  0.00    +0.000 A 
ATOM     13  C   UNL     1       0.436  10.297  20.149  0.00  0.00    +0.000 A 
BRANCH  13  14
ATOM     14  O   UNL     1      -0.181  11.322  19.491  0.00  0.00    +0.000 OA
ATOM     15  C   UNL     1      -1.213  11.062  18.560  0.00  0.00    +0.000 C 
ENDBRANCH  13  14
BRANCH   8  16
ATOM     16  O   UNL     1       0.185  11.006  22.436  0.00  0.00    +0.000 OA
BRANCH  16  18
ATOM     17  C   UNL     1      -2.003  11.922  22.955  0.00  0.00    +0.000 C 
ATOM     18  C   UNL     1      -1.074  10.728  23.069  0.00  0.00    +0.000 C 
ENDBRANCH  16  18
ENDBRANCH   8  16
ENDBRANCH   7  11
ENDBRANCH   1   7
BRANCH   6  19
ATOM     19  C   UNL     1       4.050   4.004  18.150  0.00  0.00    +0.000 C 
BRANCH  19  20
ATOM     20  C   UNL     1       5.040   4.425  17.088  0.00  0.00    +0.000 A 
ATOM     21  C   UNL     1       5.171   3.688  15.905  0.00  0.00    +0.000 A 
ATOM     22  C   UNL     1       6.149   4.023  14.969  0.00  0.00    +0.000 A 
ATOM     23  C   UNL     1       6.993   5.108  15.211  0.00  0.00    +0.000 A 
ATOM     24  C   UNL     1       6.850   5.893  16.361  0.00  0.00    +0.000 A 
ATOM     25  C   UNL     1       5.863   5.547  17.289  0.00  0.00    +0.000 A 
BRANCH  23  26
ATOM     26  O   UNL     1       7.982   5.409  14.312  0.00  0.00    +0.000 OA
ATOM     27  H   UNL     1       8.116   4.651  13.725  0.00  0.00    +0.000 HD
ENDBRANCH  23  26
BRANCH  24  28
ATOM     28  O   UNL     1       7.714   6.947  16.496  0.00  0.00    +0.000 OA
ATOM     29  C   UNL     1       7.745   7.610  17.750  0.00  0.00    +0.000 C 
ENDBRANCH  24  28
ENDBRANCH  19  20
ENDBRANCH   6  19
TORSDOF 9
ENDMDL
MODEL 2
REMARK VINA RESULT:      -8.2      1.743      4.758
REMARK  Name = 
REMARK  12 active torsions:
REMARK  status: ('A' for Active; 'I' for Inactive)
REMARK    1  A    between atoms: C_1  and  C_2
REMARK    2  A    between atoms: C_2  and  O_3
REMARK    3  A    between atoms: O_3  and  C_4
REMARK    4  A    between atoms: C_7  and  C_8
REMARK    5  A    between atoms: C_8  and  C_9
REMARK    6  A    between atoms: C_14  and  C_15
REMARK    7  A    between atoms: C_15  and  C_16
REMARK    8  A    between atoms: C_19  and  O_20
REMARK    9  A    between atoms: C_21  and  O_22
REMARK   10  A    between atoms: O_22  and  C_23
REMARK   11  A    between atoms: C_26  and  O_27
REMARK   12  A    between atoms: O_27  and  C_28
REMARK                            x       y       z     vdW  Elec       q    Type
REMARK                         _______ _______ _______ _____ _____    ______ ____
ROOT
ATOM      1  C   UNL     1       4.529   5.484  17.100  0.00  0.00    +0.000 C 
ATOM      2  C   UNL     1       4.795   4.884  15.730  0.00  0.00    +0.000 C 
ATOM      3  O   UNL     1       6.192   4.618  15.644  0.00  0.00    +0.000 OA
ATOM      4  C   UNL     1       6.772   4.728  16.863  0.00  0.00    +0.000 C 
ATOM      5  O   UNL     1       7.956   4.514  17.079  0.00  0.00    +0.000 OA
ATOM      6  C   UNL     1       5.779   5.134  17.910  0.00  0.00    +0.000 C 
ENDROOT
BRANCH   1   7
ATOM      7  C   UNL     1       4.295   7.014  17.059  0.00  0.00    +0.000 C 
BRANCH   7  11
ATOM      8  C   UNL     1       1.331   8.523  19.850  0.00  0.00    +0.000 A 
ATOM      9  C   UNL     1       2.053   7.342  20.116  0.00  0.00    +0.000 A 
ATOM     10  C   UNL     1       2.996   6.837  19.215  0.00  0.00    +0.000 A 
ATOM     11  C   UNL     1       3.210   7.476  18.000  0.00  0.00    +0.000 A 
ATOM     12  C   UNL     1       2.390   8.559  17.671  0.00  0.00    +0.000 A 
ATOM     13  C   UNL     1       1.469   9.106  18.584  0.00  0.00    +0.000 A 
BRANCH  13  14
ATOM     14  O   UNL     1       0.825  10.172  18.025  0.00  0.00    +0.000 OA
ATOM     15  C   UNL     1      -0.586  10.188  17.924  0.00  0.00    +0.000 C 
ENDBRANCH  13  14
BRANCH   8  16
ATOM     16  O   UNL     1       0.499   9.092  20.788  0.00  0.00    +0.000 OA
BRANCH  16  18
ATOM     17  C   UNL     1      -0.006   9.542  23.119  0.00  0.00    +0.000 C 
ATOM     18  C   UNL     1       0.676   8.615  22.131  0.00  0.00    +0.000 C 
ENDBRANCH  16  18
ENDBRANCH   8  16
ENDBRANCH   7  11
ENDBRANCH   1   7
BRANCH   6  19
ATOM     19  C   UNL     1       5.587   3.976  18.899  0.00  0.00    +0.000 C 
BRANCH  19  20
ATOM     20  C   UNL     1       4.208   3.361  18.813  0.00  0.00    +0.000 A 
ATOM     21  C   UNL     1       3.825   2.627  17.684  0.00  0.00    +0.000 A 
ATOM     22  C   UNL     1       2.523   2.141  17.567  0.00  0.00    +0.000 A 
ATOM     23  C   UNL     1       1.602   2.380  18.587  0.00  0.00    +0.000 A 
ATOM     24  C   UNL     1       1.973   3.065  19.750  0.00  0.00    +0.000 A 
ATOM     25  C   UNL     1       3.283   3.545  19.856  0.00  0.00    +0.000 A 
BRANCH  23  26
ATOM     26  O   UNL     1       0.312   1.940  18.451  0.00  0.00    +0.000 OA
ATOM     27  H   UNL     1      -0.286   2.587  18.855  0.00  0.00    +0.000 HD
ENDBRANCH  23  26
BRANCH  24  28
ATOM     28  O   UNL     1       1.001   3.230  20.701  0.00  0.00    +0.000 OA
ATOM     29  C   UNL     1       1.238   2.665  21.982  0.00  0.00    +0.000 C 
ENDBRANCH  24  28
ENDBRANCH  19  20
ENDBRANCH   6  19
TORSDOF 9
ENDMDL
MODEL 3
REMARK VINA RESULT:      -8.0      1.833      4.835
REMARK  Name = 
REMARK  12 active torsions:
REMARK  status: ('A' for Active; 'I' for Inactive)
REMARK    1  A    between atoms: C_1  and  C_2
REMARK    2  A    between atoms: C_2  and  O_3
REMARK    3  A    between atoms: O_3  and  C_4
REMARK    4  A    between atoms: C_7  and  C_8
REMARK    5  A    between atoms: C_8  and  C_9
REMARK    6  A    between atoms: C_14  and  C_15
REMARK    7  A    between atoms: C_15  and  C_16
REMARK    8  A    between atoms: C_19  and  O_20
REMARK    9  A    between atoms: C_21  and  O_22
REMARK   10  A    between atoms: O_22  and  C_23
REMARK   11  A    between atoms: C_26  and  O_27
REMARK   12  A    between atoms: O_27  and  C_28
REMARK                            x       y       z     vdW  Elec       q    Type
REMARK                         _______ _______ _______ _____ _____    ______ ____
ROOT
ATOM      1  C   UNL     1       4.666   6.160  16.383  0.00  0.00    +0.000 C 
ATOM      2  C   UNL     1       5.292   6.529  15.049  0.00  0.00    +0.000 C 
ATOM      3  O   UNL     1       6.523   5.819  14.944  0.00  0.00    +0.000 OA
ATOM      4  C   UNL     1       6.608   4.871  15.908  0.00  0.00    +0.000 C 
ATOM      5  O   UNL     1       7.545   4.094  16.022  0.00  0.00    +0.000 OA
ATOM      6  C   UNL     1       5.408   4.890  16.805  0.00  0.00    +0.000 C 
ENDROOT
BRANCH   1   7
ATOM      7  C   UNL     1       4.806   7.275  17.449  0.00  0.00    +0.000 C 
BRANCH   7  11
ATOM      8  C   UNL     1       1.392   7.908  20.055  0.00  0.00    +0.000 A 
ATOM      9  C   UNL     1       2.230   6.785  20.206  0.00  0.00    +0.000 A 
ATOM     10  C   UNL     1       3.321   6.561  19.361  0.00  0.00    +0.000 A 
ATOM     11  C   UNL     1       3.576   7.432  18.310  0.00  0.00    +0.000 A 
ATOM     12  C   UNL     1       2.661   8.461  18.067  0.00  0.00    +0.000 A 
ATOM     13  C   UNL     1       1.585   8.725  18.934  0.00  0.00    +0.000 A 
BRANCH  13  14
ATOM     14  O   UNL     1       0.869   9.798  18.487  0.00  0.00    +0.000 OA
ATOM     15  C   UNL     1       1.251  11.115  18.835  0.00  0.00    +0.000 C 
ENDBRANCH  13  14
BRANCH   8  16
ATOM     16  O   UNL     1       0.398   8.199  20.962  0.00  0.00    +0.000 OA
BRANCH  16  18
ATOM     17  C   UNL     1      -0.423   9.461  22.866  0.00  0.00    +0.000 C 
ATOM     18  C   UNL     1       0.784   9.075  22.033  0.00  0.00    +0.000 C 
ENDBRANCH  16  18
ENDBRANCH   8  16
ENDBRANCH   7  11
ENDBRANCH   1   7
BRANCH   6  19
ATOM     19  C   UNL     1       4.607   3.596  16.604  0.00  0.00    +0.000 C 
BRANCH  19  20
ATOM     20  C   UNL     1       3.613   3.348  17.715  0.00  0.00    +0.000 A 
ATOM     21  C   UNL     1       2.251   3.614  17.524  0.00  0.00    +0.000 A 
ATOM     22  C   UNL     1       1.350   3.475  18.580  0.00  0.00    +0.000 A 
ATOM     23  C   UNL     1       1.809   3.057  19.829  0.00  0.00    +0.000 A 
ATOM     24  C   UNL     1       3.156   2.735  20.034  0.00  0.00    +0.000 A 
ATOM     25  C   UNL     1       4.048   2.877  18.966  0.00  0.00    +0.000 A 
BRANCH  23  26
ATOM     26  O   UNL     1       0.931   2.963  20.876  0.00  0.00    +0.000 OA
ATOM     27  H   UNL     1       1.429   2.820  21.695  0.00  0.00    +0.000 HD
ENDBRANCH  23  26
BRANCH  24  28
ATOM     28  O   UNL     1       3.502   2.316  21.292  0.00  0.00    +0.000 OA
ATOM     29  C   UNL     1       4.647   1.486  21.411  0.00  0.00    +0.000 C 
ENDBRANCH  24  28
ENDBRANCH  19  20
ENDBRANCH   6  19
TORSDOF 9
ENDMDL
MODEL 4
REMARK VINA RESULT:      -7.8      1.251      2.168
REMARK  Name = 
REMARK  12 active torsions:
REMARK  status: ('A' for Active; 'I' for Inactive)
REMARK    1  A    between atoms: C_1  and  C_2
REMARK    2  A    between atoms: C_2  and  O_3
REMARK    3  A    between atoms: O_3  and  C_4
REMARK    4  A    between atoms: C_7  and  C_8
REMARK    5  A    between atoms: C_8  and  C_9
REMARK    6  A    between atoms: C_14  and  C_15
REMARK    7  A    between atoms: C_15  and  C_16
REMARK    8  A    between atoms: C_19  and  O_20
REMARK    9  A    between atoms: C_21  and  O_22
REMARK   10  A    between atoms: O_22  and  C_23
REMARK   11  A    between atoms: C_26  and  O_27
REMARK   12  A    between atoms: O_27  and  C_28
REMARK                            x       y       z     vdW  Elec       q    Type
REMARK                         _______ _______ _______ _____ _____    ______ ____
ROOT
ATOM      1  C   UNL     1       2.713   5.684  19.306  0.00  0.00    +0.000 C 
ATOM      2  C   UNL     1       2.039   5.332  20.620  0.00  0.00    +0.000 C 
ATOM      3  O   UNL     1       1.652   3.962  20.548  0.00  0.00    +0.000 OA
ATOM      4  C   UNL     1       2.228   3.362  19.479  0.00  0.00    +0.000 C 
ATOM      5  O   UNL     1       2.094   2.178  19.205  0.00  0.00    +0.000 OA
ATOM      6  C   UNL     1       3.054   4.328  18.685  0.00  0.00    +0.000 C 
ENDROOT
BRANCH   1   7
ATOM      7  C   UNL     1       1.812   6.523  18.366  0.00  0.00    +0.000 C 
BRANCH   7  11
ATOM      8  C   UNL     1       1.331  10.692  19.477  0.00  0.00    +0.000 A 
ATOM      9  C   UNL     1       1.776  10.323  18.192  0.00  0.00    +0.000 A 
ATOM     10  C   UNL     1       1.953   8.985  17.829  0.00  0.00    +0.000 A 
ATOM     11  C   UNL     1       1.732   7.977  18.760  0.00  0.00    +0.000 A 
ATOM     12  C   UNL     1       1.436   8.347  20.075  0.00  0.00    +0.000 A 
ATOM     13  C   UNL     1       1.211   9.686  20.444  0.00  0.00    +0.000 A 
BRANCH  13  14
ATOM     14  O   UNL     1       0.909   9.766  21.773  0.00  0.00    +0.000 OA
ATOM     15  C   UNL     1      -0.316   9.257  22.264  0.00  0.00    +0.000 C 
ENDBRANCH  13  14
BRANCH   8  16
ATOM     16  O   UNL     1       1.032  11.998  19.795  0.00  0.00    +0.000 OA
BRANCH  16  18
ATOM     17  C   UNL     1      -0.265  13.905  19.037  0.00  0.00    +0.000 C 
ATOM     18  C   UNL     1       0.769  12.856  18.674  0.00  0.00    +0.000 C 
ENDBRANCH  16  18
ENDBRANCH   8  16
ENDBRANCH   7  11
ENDBRANCH   1   7
BRANCH   6  19
ATOM     19  C   UNL     1       4.535   3.937  18.798  0.00  0.00    +0.000 C 
BRANCH  19  20
ATOM     20  C   UNL     1       5.349   4.391  17.609  0.00  0.00    +0.000 A 
ATOM     21  C   UNL     1       5.336   3.658  16.416  0.00  0.00    +0.000 A 
ATOM     22  C   UNL     1       6.161   4.026  15.353  0.00  0.00    +0.000 A 
ATOM     23  C   UNL     1       6.993   5.138  15.477  0.00  0.00    +0.000 A 
ATOM     24  C   UNL     1       6.988   5.919  16.639  0.00  0.00    +0.000 A 
ATOM     25  C   UNL     1       6.155   5.540  17.696  0.00  0.00    +0.000 A 
BRANCH  23  26
ATOM     26  O   UNL     1       7.834   5.472  14.448  0.00  0.00    +0.000 OA
ATOM     27  H   UNL     1       8.661   4.976  14.543  0.00  0.00    +0.000 HD
ENDBRANCH  23  26
BRANCH  24  28
ATOM     28  O   UNL     1       7.827   7.001  16.654  0.00  0.00    +0.000 OA
ATOM     29  C   UNL     1       7.834   7.807  17.823  0.00  0.00    +0.000 C 
ENDBRANCH  24  28
ENDBRANCH  19  20
ENDBRANCH   6  19
TORSDOF 9
ENDMDL
MODEL 5
REMARK VINA RESULT:      -7.8      1.657      2.413
REMARK  Name = 
REMARK  12 active torsions:
REMARK  status: ('A' for Active; 'I' for Inactive)
REMARK    1  A    between atoms: C_1  and  C_2
REMARK    2  A    between atoms: C_2  and  O_3
REMARK    3  A    between atoms: O_3  and  C_4
REMARK    4  A    between atoms: C_7  and  C_8
REMARK    5  A    between atoms: C_8  and  C_9
REMARK    6  A    between atoms: C_14  and  C_15
REMARK    7  A    between atoms: C_15  and  C_16
REMARK    8  A    between atoms: C_19  and  O_20
REMARK    9  A    between atoms: C_21  and  O_22
REMARK   10  A    between atoms: O_22  and  C_23
REMARK   11  A    between atoms: C_26  and  O_27
REMARK   12  A    between atoms: O_27  and  C_28
REMARK                            x       y       z     vdW  Elec       q    Type
REMARK                         _______ _______ _______ _____ _____    ______ ____
ROOT
ATOM      1  C   UNL     1       2.542   7.513  19.008  0.00  0.00    +0.000 C 
ATOM      2  C   UNL     1       1.890   7.841  20.340  0.00  0.00    +0.000 C 
ATOM      3  O   UNL     1       1.242   6.658  20.800  0.00  0.00    +0.000 OA
ATOM      4  C   UNL     1       1.627   5.589  20.065  0.00  0.00    +0.000 C 
ATOM      5  O   UNL     1       1.250   4.444  20.273  0.00  0.00    +0.000 OA
ATOM      6  C   UNL     1       2.577   5.984  18.975  0.00  0.00    +0.000 C 
ENDROOT
BRANCH   1   7
ATOM      7  C   UNL     1       1.767   8.084  17.795  0.00  0.00    +0.000 C 
BRANCH   7  11
ATOM      8  C   UNL     1      -0.044  11.888  18.845  0.00  0.00    +0.000 A 
ATOM      9  C   UNL     1      -0.823  10.810  18.379  0.00  0.00    +0.000 A 
ATOM     10  C   UNL     1      -0.249   9.587  18.020  0.00  0.00    +0.000 A 
ATOM     11  C   UNL     1       1.130   9.424  18.074  0.00  0.00    +0.000 A 
ATOM     12  C   UNL     1       1.914  10.536  18.392  0.00  0.00    +0.000 A 
ATOM     13  C   UNL     1       1.350  11.759  18.798  0.00  0.00    +0.000 A 
BRANCH  13  14
ATOM     14  O   UNL     1       2.333  12.664  19.080  0.00  0.00    +0.000 OA
ATOM     15  C   UNL     1       2.665  13.679  18.153  0.00  0.00    +0.000 C 
ENDBRANCH  13  14
BRANCH   8  16
ATOM     16  O   UNL     1      -0.618  13.046  19.320  0.00  0.00    +0.000 OA
BRANCH  16  18
ATOM     17  C   UNL     1      -2.598  13.166  20.718  0.00  0.00    +0.000 C 
ATOM     18  C   UNL     1      -1.094  12.982  20.674  0.00  0.00    +0.000 C 
ENDBRANCH  16  18
ENDBRANCH   8  16
ENDBRANCH   7  11
ENDBRANCH   1   7
BRANCH   6  19
ATOM     19  C   UNL     1       3.958   5.378  19.266  0.00  0.00    +0.000 C 
BRANCH  19  20
ATOM     20  C   UNL     1       4.862   5.385  18.055  0.00  0.00    +0.000 A 
ATOM     21  C   UNL     1       4.732   4.406  17.064  0.00  0.00    +0.000 A 
ATOM     22  C   UNL     1       5.628   4.358  15.996  0.00  0.00    +0.000 A 
ATOM     23  C   UNL     1       6.653   5.301  15.912  0.00  0.00    +0.000 A 
ATOM     24  C   UNL     1       6.775   6.322  16.862  0.00  0.00    +0.000 A 
ATOM     25  C   UNL     1       5.868   6.359  17.926  0.00  0.00    +0.000 A 
BRANCH  23  26
ATOM     26  O   UNL     1       7.559   5.227  14.887  0.00  0.00    +0.000 OA
ATOM     27  H   UNL     1       8.450   5.147  15.259  0.00  0.00    +0.000 HD
ENDBRANCH  23  26
BRANCH  24  28
ATOM     28  O   UNL     1       7.803   7.209  16.680  0.00  0.00    +0.000 OA
ATOM     29  C   UNL     1       7.953   8.242  17.642  0.00  0.00    +0.000 C 
ENDBRANCH  24  28
ENDBRANCH  19  20
ENDBRANCH   6  19
TORSDOF 9
ENDMDL
MODEL 6
REMARK VINA RESULT:      -7.8      2.001      2.652
REMARK  Name = 
REMARK  12 active torsions:
REMARK  status: ('A' for Active; 'I' for Inactive)
REMARK    1  A    between atoms: C_1  and  C_2
REMARK    2  A    between atoms: C_2  and  O_3
REMARK    3  A    between atoms: O_3  and  C_4
REMARK    4  A    between atoms: C_7  and  C_8
REMARK    5  A    between atoms: C_8  and  C_9
REMARK    6  A    between atoms: C_14  and  C_15
REMARK    7  A    between atoms: C_15  and  C_16
REMARK    8  A    between atoms: C_19  and  O_20
REMARK    9  A    between atoms: C_21  and  O_22
REMARK   10  A    between atoms: O_22  and  C_23
REMARK   11  A    between atoms: C_26  and  O_27
REMARK   12  A    between atoms: O_27  and  C_28
REMARK                            x       y       z     vdW  Elec       q    Type
REMARK                         _______ _______ _______ _____ _____    ______ ____
ROOT
ATOM      1  C   UNL     1       2.480   7.588  19.027  0.00  0.00    +0.000 C 
ATOM      2  C   UNL     1       1.844   7.877  20.376  0.00  0.00    +0.000 C 
ATOM      3  O   UNL     1       1.188   6.687  20.803  0.00  0.00    +0.000 OA
ATOM      4  C   UNL     1       1.555   5.638  20.029  0.00  0.00    +0.000 C 
ATOM      5  O   UNL     1       1.169   4.492  20.202  0.00  0.00    +0.000 OA
ATOM      6  C   UNL     1       2.499   6.061  18.943  0.00  0.00    +0.000 C 
ENDROOT
BRANCH   1   7
ATOM      7  C   UNL     1       1.699   8.208  17.842  0.00  0.00    +0.000 C 
BRANCH   7  11
ATOM      8  C   UNL     1      -0.093  12.101  18.537  0.00  0.00    +0.000 A 
ATOM      9  C   UNL     1       1.291  11.891  18.703  0.00  0.00    +0.000 A 
ATOM     10  C   UNL     1       1.876  10.638  18.501  0.00  0.00    +0.000 A 
ATOM     11  C   UNL     1       1.083   9.546  18.170  0.00  0.00    +0.000 A 
ATOM     12  C   UNL     1      -0.303   9.718  18.152  0.00  0.00    +0.000 A 
ATOM     13  C   UNL     1      -0.903  10.981  18.309  0.00  0.00    +0.000 A 
BRANCH  13  14
ATOM     14  O   UNL     1      -2.261  10.876  18.217  0.00  0.00    +0.000 OA
ATOM     15  C   UNL     1      -2.856   9.736  17.629  0.00  0.00    +0.000 C 
ENDBRANCH  13  14
BRANCH   8  16
ATOM     16  O   UNL     1      -0.650  13.358  18.609  0.00  0.00    +0.000 OA
BRANCH  16  18
ATOM     17  C   UNL     1       0.220  15.616  18.799  0.00  0.00    +0.000 C 
ATOM     18  C   UNL     1       0.024  14.277  19.483  0.00  0.00    +0.000 C 
ENDBRANCH  16  18
ENDBRANCH   8  16
ENDBRANCH   7  11
ENDBRANCH   1   7
BRANCH   6  19
ATOM     19  C   UNL     1       3.876   5.432  19.200  0.00  0.00    +0.000 C 
BRANCH  19  20
ATOM     20  C   UNL     1       4.766   5.462  17.978  0.00  0.00    +0.000 A 
ATOM     21  C   UNL     1       4.552   4.572  16.919  0.00  0.00    +0.000 A 
ATOM     22  C   UNL     1       5.431   4.539  15.836  0.00  0.00    +0.000 A 
ATOM     23  C   UNL     1       6.523   5.407  15.806  0.00  0.00    +0.000 A 
ATOM     24  C   UNL     1       6.731   6.342  16.827  0.00  0.00    +0.000 A 
ATOM     25  C   UNL     1       5.841   6.366  17.905  0.00  0.00    +0.000 A 
BRANCH  23  26
ATOM     26  O   UNL     1       7.409   5.343  14.764  0.00  0.00    +0.000 OA
ATOM     27  H   UNL     1       7.282   4.507  14.292  0.00  0.00    +0.000 HD
ENDBRANCH  23  26
BRANCH  24  28
ATOM     28  O   UNL     1       7.820   7.162  16.695  0.00  0.00    +0.000 OA
ATOM     29  C   UNL     1       7.960   8.220  17.631  0.00  0.00    +0.000 C 
ENDBRANCH  24  28
ENDBRANCH  19  20
ENDBRANCH   6  19
TORSDOF 9
ENDMDL
MODEL 7
REMARK VINA RESULT:      -7.8      1.521      2.850
REMARK  Name = 
REMARK  12 active torsions:
REMARK  status: ('A' for Active; 'I' for Inactive)
REMARK    1  A    between atoms: C_1  and  C_2
REMARK    2  A    between atoms: C_2  and  O_3
REMARK    3  A    between atoms: O_3  and  C_4
REMARK    4  A    between atoms: C_7  and  C_8
REMARK    5  A    between atoms: C_8  and  C_9
REMARK    6  A    between atoms: C_14  and  C_15
REMARK    7  A    between atoms: C_15  and  C_16
REMARK    8  A    between atoms: C_19  and  O_20
REMARK    9  A    between atoms: C_21  and  O_22
REMARK   10  A    between atoms: O_22  and  C_23
REMARK   11  A    between atoms: C_26  and  O_27
REMARK   12  A    between atoms: O_27  and  C_28
REMARK                            x       y       z     vdW  Elec       q    Type
REMARK                         _______ _______ _______ _____ _____    ______ ____
ROOT
ATOM      1  C   UNL     1       2.930   5.169  19.342  0.00  0.00    +0.000 C 
ATOM      2  C   UNL     1       2.114   4.766  20.558  0.00  0.00    +0.000 C 
ATOM      3  O   UNL     1       1.801   3.382  20.424  0.00  0.00    +0.000 OA
ATOM      4  C   UNL     1       2.532   2.825  19.429  0.00  0.00    +0.000 C 
ATOM      5  O   UNL     1       2.486   1.641  19.129  0.00  0.00    +0.000 OA
ATOM      6  C   UNL     1       3.406   3.838  18.755  0.00  0.00    +0.000 C 
ENDROOT
BRANCH   1   7
ATOM      7  C   UNL     1       2.115   5.982  18.306  0.00  0.00    +0.000 C 
BRANCH   7  11
ATOM      8  C   UNL     1       1.306  10.094  19.437  0.00  0.00    +0.000 A 
ATOM      9  C   UNL     1       1.714   9.761  18.130  0.00  0.00    +0.000 A 
ATOM     10  C   UNL     1       1.995   8.443  17.759  0.00  0.00    +0.000 A 
ATOM     11  C   UNL     1       1.921   7.425  18.702  0.00  0.00    +0.000 A 
ATOM     12  C   UNL     1       1.663   7.773  20.030  0.00  0.00    +0.000 A 
ATOM     13  C   UNL     1       1.334   9.088  20.410  0.00  0.00    +0.000 A 
BRANCH  13  14
ATOM     14  O   UNL     1       1.098   9.148  21.753  0.00  0.00    +0.000 OA
ATOM     15  C   UNL     1      -0.226   9.163  22.251  0.00  0.00    +0.000 C 
ENDBRANCH  13  14
BRANCH   8  16
ATOM     16  O   UNL     1       0.905  11.369  19.769  0.00  0.00    +0.000 OA
BRANCH  16  18
ATOM     17  C   UNL     1       1.183  13.775  19.612  0.00  0.00    +0.000 C 
ATOM     18  C   UNL     1       1.534  12.423  19.023  0.00  0.00    +0.000 C 
ENDBRANCH  16  18
ENDBRANCH   8  16
ENDBRANCH   7  11
ENDBRANCH   1   7
BRANCH   6  19
ATOM     19  C   UNL     1       4.877   3.510  19.048  0.00  0.00    +0.000 C 
BRANCH  19  20
ATOM     20  C   UNL     1       5.830   4.504  18.424  0.00  0.00    +0.000 A 
ATOM     21  C   UNL     1       6.486   5.454  19.215  0.00  0.00    +0.000 A 
ATOM     22  C   UNL     1       7.291   6.429  18.626  0.00  0.00    +0.000 A 
ATOM     23  C   UNL     1       7.451   6.447  17.240  0.00  0.00    +0.000 A 
ATOM     24  C   UNL     1       6.848   5.478  16.430  0.00  0.00    +0.000 A 
ATOM     25  C   UNL     1       6.046   4.504  17.035  0.00  0.00    +0.000 A 
BRANCH  23  26
ATOM     26  O   UNL     1       8.206   7.431  16.659  0.00  0.00    +0.000 OA
ATOM     27  H   UNL     1       8.520   8.036  17.347  0.00  0.00    +0.000 HD
ENDBRANCH  23  26
BRANCH  24  28
ATOM     28  O   UNL     1       7.083   5.571  15.084  0.00  0.00    +0.000 OA
ATOM     29  C   UNL     1       6.586   4.527  14.260  0.00  0.00    +0.000 C 
ENDBRANCH  24  28
ENDBRANCH  19  20
ENDBRANCH   6  19
TORSDOF 9
ENDMDL
MODEL 8
REMARK VINA RESULT:      -7.8      0.973      1.826
REMARK  Name = 
REMARK  12 active torsions:
REMARK  status: ('A' for Active; 'I' for Inactive)
REMARK    1  A    between atoms: C_1  and  C_2
REMARK    2  A    between atoms: C_2  and  O_3
REMARK    3  A    between atoms: O_3  and  C_4
REMARK    4  A    between atoms: C_7  and  C_8
REMARK    5  A    between atoms: C_8  and  C_9
REMARK    6  A    between atoms: C_14  and  C_15
REMARK    7  A    between atoms: C_15  and  C_16
REMARK    8  A    between atoms: C_19  and  O_20
REMARK    9  A    between atoms: C_21  and  O_22
REMARK   10  A    between atoms: O_22  and  C_23
REMARK   11  A    between atoms: C_26  and  O_27
REMARK   12  A    between atoms: O_27  and  C_28
REMARK                            x       y       z     vdW  Elec       q    Type
REMARK                         _______ _______ _______ _____ _____    ______ ____
ROOT
ATOM      1  C   UNL     1       2.746   5.828  19.318  0.00  0.00    +0.000 C 
ATOM      2  C   UNL     1       1.774   5.382  20.396  0.00  0.00    +0.000 C 
ATOM      3  O   UNL     1       1.040   4.276  19.878  0.00  0.00    +0.000 OA
ATOM      4  C   UNL     1       1.608   3.821  18.737  0.00  0.00    +0.000 C 
ATOM      5  O   UNL     1       1.201   2.856  18.107  0.00  0.00    +0.000 OA
ATOM      6  C   UNL     1       2.801   4.643  18.351  0.00  0.00    +0.000 C 
ENDROOT
BRANCH   1   7
ATOM      7  C   UNL     1       2.300   7.123  18.595  0.00  0.00    +0.000 C 
BRANCH   7  11
ATOM      8  C   UNL     1       0.799  10.198  21.268  0.00  0.00    +0.000 A 
ATOM      9  C   UNL     1       1.188   8.932  21.752  0.00  0.00    +0.000 A 
ATOM     10  C   UNL     1       1.654   7.928  20.899  0.00  0.00    +0.000 A 
ATOM     11  C   UNL     1       1.702   8.148  19.527  0.00  0.00    +0.000 A 
ATOM     12  C   UNL     1       1.178   9.345  19.032  0.00  0.00    +0.000 A 
ATOM     13  C   UNL     1       0.746  10.382  19.881  0.00  0.00    +0.000 A 
BRANCH  13  14
ATOM     14  O   UNL     1       0.313  11.447  19.145  0.00  0.00    +0.000 OA
ATOM     15  C   UNL     1       1.125  12.596  18.996  0.00  0.00    +0.000 C 
ENDBRANCH  13  14
BRANCH   8  16
ATOM     16  O   UNL     1       0.462  11.228  22.118  0.00  0.00    +0.000 OA
BRANCH  16  18
ATOM     17  C   UNL     1      -1.422  12.465  23.018  0.00  0.00    +0.000 C 
ATOM     18  C   UNL     1      -0.816  11.099  22.760  0.00  0.00    +0.000 C 
ENDBRANCH  16  18
ENDBRANCH   8  16
ENDBRANCH   7  11
ENDBRANCH   1   7
BRANCH   6  19
ATOM     19  C   UNL     1       4.067   3.784  18.478  0.00  0.00    +0.000 C 
BRANCH  19  20
ATOM     20  C   UNL     1       5.119   4.142  17.453  0.00  0.00    +0.000 A 
ATOM     21  C   UNL     1       6.395   4.552  17.855  0.00  0.00    +0.000 A 
ATOM     22  C   UNL     1       7.332   4.972  16.911  0.00  0.00    +0.000 A 
ATOM     23  C   UNL     1       6.996   4.972  15.557  0.00  0.00    +0.000 A 
ATOM     24  C   UNL     1       5.745   4.518  15.123  0.00  0.00    +0.000 A 
ATOM     25  C   UNL     1       4.816   4.097  16.080  0.00  0.00    +0.000 A 
BRANCH  23  26
ATOM     26  O   UNL     1       7.901   5.426  14.634  0.00  0.00    +0.000 OA
ATOM     27  H   UNL     1       7.423   5.768  13.865  0.00  0.00    +0.000 HD
ENDBRANCH  23  26
BRANCH  24  28
ATOM     28  O   UNL     1       5.519   4.539  13.772  0.00  0.00    +0.000 OA
ATOM     29  C   UNL     1       6.006   3.444  13.011  0.00  0.00    +0.000 C 
ENDBRANCH  24  28
ENDBRANCH  19  20
ENDBRANCH   6  19
TORSDOF 9
ENDMDL
MODEL 9
REMARK VINA RESULT:      -7.7      1.589      2.344
REMARK  Name = 
REMARK  12 active torsions:
REMARK  status: ('A' for Active; 'I' for Inactive)
REMARK    1  A    between atoms: C_1  and  C_2
REMARK    2  A    between atoms: C_2  and  O_3
REMARK    3  A    between atoms: O_3  and  C_4
REMARK    4  A    between atoms: C_7  and  C_8
REMARK    5  A    between atoms: C_8  and  C_9
REMARK    6  A    between atoms: C_14  and  C_15
REMARK    7  A    between atoms: C_15  and  C_16
REMARK    8  A    between atoms: C_19  and  O_20
REMARK    9  A    between atoms: C_21  and  O_22
REMARK   10  A    between atoms: O_22  and  C_23
REMARK   11  A    between atoms: C_26  and  O_27
REMARK   12  A    between atoms: O_27  and  C_28
REMARK                            x       y       z     vdW  Elec       q    Type
REMARK                         _______ _______ _______ _____ _____    ______ ____
ROOT
ATOM      1  C   UNL     1       2.550   6.917  19.234  0.00  0.00    +0.000 C 
ATOM      2  C   UNL     1       1.825   6.878  20.568  0.00  0.00    +0.000 C 
ATOM      3  O   UNL     1       1.245   5.584  20.701  0.00  0.00    +0.000 OA
ATOM      4  C   UNL     1       1.733   4.745  19.756  0.00  0.00    +0.000 C 
ATOM      5  O   UNL     1       1.431   3.564  19.668  0.00  0.00    +0.000 OA
ATOM      6  C   UNL     1       2.694   5.445  18.844  0.00  0.00    +0.000 C 
ENDROOT
BRANCH   1   7
ATOM      7  C   UNL     1       1.784   7.715  18.149  0.00  0.00    +0.000 C 
BRANCH   7  11
ATOM      8  C   UNL     1       1.025  11.900  19.017  0.00  0.00    +0.000 A 
ATOM      9  C   UNL     1       2.080  11.508  18.169  0.00  0.00    +0.000 A 
ATOM     10  C   UNL     1       2.346  10.162  17.898  0.00  0.00    +0.000 A 
ATOM     11  C   UNL     1       1.589   9.168  18.506  0.00  0.00    +0.000 A 
ATOM     12  C   UNL     1       0.642   9.550  19.460  0.00  0.00    +0.000 A 
ATOM     13  C   UNL     1       0.334  10.899  19.711  0.00  0.00    +0.000 A 
BRANCH  13  14
ATOM     14  O   UNL     1      -0.644  10.993  20.660  0.00  0.00    +0.000 OA
ATOM     15  C   UNL     1      -0.329  10.862  22.032  0.00  0.00    +0.000 C 
ENDBRANCH  13  14
BRANCH   8  16
ATOM     16  O   UNL     1       0.681  13.223  19.183  0.00  0.00    +0.000 OA
BRANCH  16  18
ATOM     17  C   UNL     1       2.038  13.989  21.045  0.00  0.00    +0.000 C 
ATOM     18  C   UNL     1       1.761  14.094  19.558  0.00  0.00    +0.000 C 
ENDBRANCH  16  18
ENDBRANCH   8  16
ENDBRANCH   7  11
ENDBRANCH   1   7
BRANCH   6  19
ATOM     19  C   UNL     1       4.102   4.871  19.058  0.00  0.00    +0.000 C 
BRANCH  19  20
ATOM     20  C   UNL     1       4.989   5.036  17.845  0.00  0.00    +0.000 A 
ATOM     21  C   UNL     1       4.901   4.141  16.772  0.00  0.00    +0.000 A 
ATOM     22  C   UNL     1       5.785   4.239  15.697  0.00  0.00    +0.000 A 
ATOM     23  C   UNL     1       6.752   5.244  15.688  0.00  0.00    +0.000 A 
ATOM     24  C   UNL     1       6.828   6.184  16.722  0.00  0.00    +0.000 A 
ATOM     25  C   UNL     1       5.935   6.075  17.793  0.00  0.00    +0.000 A 
BRANCH  23  26
ATOM     26  O   UNL     1       7.647   5.313  14.653  0.00  0.00    +0.000 OA
ATOM     27  H   UNL     1       7.828   6.243  14.453  0.00  0.00    +0.000 HD
ENDBRANCH  23  26
BRANCH  24  28
ATOM     28  O   UNL     1       7.800   7.143  16.610  0.00  0.00    +0.000 OA
ATOM     29  C   UNL     1       7.874   8.122  17.635  0.00  0.00    +0.000 C 
ENDBRANCH  24  28
ENDBRANCH  19  20
ENDBRANCH   6  19
TORSDOF 9
ENDMDL
