MODEL 1
REMARK VINA RESULT:      -8.6      0.000      0.000
REMARK  Name = 
REMARK  4 active torsions:
REMARK  status: ('A' for Active; 'I' for Inactive)
REMARK    1  A    between atoms: C_1  and  N_2
REMARK    2  A    between atoms: C_5  and  C_6
REMARK    3  A    between atoms: N_8  and  S_9
REMARK    4  A    between atoms: S_9  and  C_12
REMARK                            x       y       z     vdW  Elec       q    Type
REMARK                         _______ _______ _______ _____ _____    ______ ____
ROOT
ATOM      1  C   UNL     1       3.135   6.670  18.416  0.00  0.00    +0.000 A 
ATOM      2  C   UNL     1       4.478   6.796  18.145  0.00  0.00    +0.000 A 
ATOM      3  N   UNL     1       4.950   5.543  17.830  0.00  0.00    +0.000 N 
ATOM      4  C   UNL     1       3.961   4.587  17.964  0.00  0.00    +0.000 A 
ATOM      5  C   UNL     1       3.951   3.190  17.794  0.00  0.00    +0.000 A 
ATOM      6  C   UNL     1       2.737   2.510  17.944  0.00  0.00    +0.000 A 
ATOM      7  C   UNL     1       1.567   3.191  18.263  0.00  0.00    +0.000 A 
ATOM      8  C   UNL     1       1.583   4.574  18.450  0.00  0.00    +0.000 A 
ATOM      9  C   UNL     1       2.792   5.289  18.303  0.00  0.00    +0.000 A 
ENDROOT
BRANCH   1  14
ATOM     10  C   UNL     1       1.020  11.353  19.863  0.00  0.00    +0.000 C 
ATOM     11  N   UNL     1       0.573  10.033  19.454  0.00  0.00    +0.000 NA
ATOM     12  C   UNL     1       0.854   9.723  18.059  0.00  0.00    +0.000 C 
ATOM     13  C   UNL     1       1.801   8.605  17.782  0.00  0.00    +0.000 C 
ATOM     14  C   UNL     1       2.262   7.760  18.714  0.00  0.00    +0.000 C 
ATOM     15  C   UNL     1       1.845   7.876  20.147  0.00  0.00    +0.000 C 
ATOM     16  C   UNL     1       0.817   8.987  20.445  0.00  0.00    +0.000 C 
ENDBRANCH   1  14
BRANCH   3  17
ATOM     17  S   UNL     1       6.583   5.242  17.448  0.00  0.00    +0.000 S 
ATOM     18  O   UNL     1       7.284   6.502  17.603  0.00  0.00    +0.000 OA
ATOM     19  O   UNL     1       6.963   4.061  18.208  0.00  0.00    +0.000 OA
BRANCH  17  20
ATOM     20  C   UNL     1       6.583   4.788  15.734  0.00  0.00    +0.000 A 
ATOM     21  C   UNL     1       5.682   3.823  15.271  0.00  0.00    +0.000 A 
ATOM     22  C   UNL     1       5.665   3.491  13.916  0.00  0.00    +0.000 A 
ATOM     23  C   UNL     1       6.540   4.124  13.030  0.00  0.00    +0.000 A 
ATOM     24  C   UNL     1       7.416   5.103  13.499  0.00  0.00    +0.000 A 
ATOM     25 CL   UNL     1       8.477   5.893  12.399  0.00  0.00    +0.000 Cl
ATOM     26  C   UNL     1       7.438   5.449  14.848  0.00  0.00    +0.000 A 
ENDBRANCH  17  20
ENDBRANCH   3  17
TORSDOF 3
ENDMDL
MODEL 2
REMARK VINA RESULT:      -8.4      0.466      1.097
REMARK  Name = 
REMARK  4 active torsions:
REMARK  status: ('A' for Active; 'I' for Inactive)
REMARK    1  A    between atoms: C_1  and  N_2
REMARK    2  A    between atoms: C_5  and  C_6
REMARK    3  A    between atoms: N_8  and  S_9
REMARK    4  A    between atoms: S_9  and  C_12
REMARK                            x       y       z     vdW  Elec       q    Type
REMARK                         _______ _______ _______ _____ _____    ______ ____
ROOT
ATOM      1  C   UNL     1       3.127   6.693  18.525  0.00  0.00    +0.000 A 
ATOM      2  C   UNL     1       4.473   6.784  18.258  0.00  0.00    +0.000 A 
ATOM      3  N   UNL     1       4.910   5.524  17.925  0.00  0.00    +0.000 N 
ATOM      4  C   UNL     1       3.894   4.594  18.042  0.00  0.00    +0.000 A 
ATOM      5  C   UNL     1       3.844   3.201  17.852  0.00  0.00    +0.000 A 
ATOM      6  C   UNL     1       2.612   2.553  17.989  0.00  0.00    +0.000 A 
ATOM      7  C   UNL     1       1.461   3.262  18.317  0.00  0.00    +0.000 A 
ATOM      8  C   UNL     1       1.516   4.641  18.525  0.00  0.00    +0.000 A 
ATOM      9  C   UNL     1       2.745   5.324  18.390  0.00  0.00    +0.000 A 
ENDROOT
BRANCH   1  14
ATOM     10  C   UNL     1      -0.961  10.073  19.121  0.00  0.00    +0.000 C 
ATOM     11  N   UNL     1       0.476  10.049  19.336  0.00  0.00    +0.000 NA
ATOM     12  C   UNL     1       0.894   9.163  20.413  0.00  0.00    +0.000 C 
ATOM     13  C   UNL     1       1.740   7.990  20.047  0.00  0.00    +0.000 C 
ATOM     14  C   UNL     1       2.285   7.803  18.838  0.00  0.00    +0.000 C 
ATOM     15  C   UNL     1       2.083   8.789  17.729  0.00  0.00    +0.000 C 
ATOM     16  C   UNL     1       1.262  10.040  18.104  0.00  0.00    +0.000 C 
ENDBRANCH   1  14
BRANCH   3  17
ATOM     17  S   UNL     1       6.535   5.182  17.540  0.00  0.00    +0.000 S 
ATOM     18  O   UNL     1       7.271   6.419  17.718  0.00  0.00    +0.000 OA
ATOM     19  O   UNL     1       6.878   3.978  18.281  0.00  0.00    +0.000 OA
BRANCH  17  20
ATOM     20  C   UNL     1       6.526   4.757  15.820  0.00  0.00    +0.000 A 
ATOM     21  C   UNL     1       5.588   3.839  15.335  0.00  0.00    +0.000 A 
ATOM     22  C   UNL     1       5.564   3.530  13.974  0.00  0.00    +0.000 A 
ATOM     23  C   UNL     1       6.470   4.141  13.104  0.00  0.00    +0.000 A 
ATOM     24  C   UNL     1       7.384   5.075  13.594  0.00  0.00    +0.000 A 
ATOM     25 CL   UNL     1       8.483   5.838  12.513  0.00  0.00    +0.000 Cl
ATOM     26  C   UNL     1       7.413   5.396  14.949  0.00  0.00    +0.000 A 
ENDBRANCH  17  20
ENDBRANCH   3  17
TORSDOF 3
ENDMDL
MODEL 3
REMARK VINA RESULT:      -8.3      1.218      1.539
REMARK  Name = 
REMARK  4 active torsions:
REMARK  status: ('A' for Active; 'I' for Inactive)
REMARK    1  A    between atoms: C_1  and  N_2
REMARK    2  A    between atoms: C_5  and  C_6
REMARK    3  A    between atoms: N_8  and  S_9
REMARK    4  A    between atoms: S_9  and  C_12
REMARK                            x       y       z     vdW  Elec       q    Type
REMARK                         _______ _______ _______ _____ _____    ______ ____
ROOT
ATOM      1  C   UNL     1       3.502   6.626  17.934  0.00  0.00    +0.000 A 
ATOM      2  C   UNL     1       4.809   6.845  17.566  0.00  0.00    +0.000 A 
ATOM      3  N   UNL     1       5.329   5.637  17.166  0.00  0.00    +0.000 N 
ATOM      4  C   UNL     1       4.414   4.615  17.337  0.00  0.00    +0.000 A 
ATOM      5  C   UNL     1       4.474   3.227  17.114  0.00  0.00    +0.000 A 
ATOM      6  C   UNL     1       3.319   2.467  17.330  0.00  0.00    +0.000 A 
ATOM      7  C   UNL     1       2.140   3.061  17.766  0.00  0.00    +0.000 A 
ATOM      8  C   UNL     1       2.087   4.435  18.006  0.00  0.00    +0.000 A 
ATOM      9  C   UNL     1       3.235   5.230  17.794  0.00  0.00    +0.000 A 
ENDROOT
BRANCH   1  14
ATOM     10  C   UNL     1       1.225  11.059  19.847  0.00  0.00    +0.000 C 
ATOM     11  N   UNL     1       0.823   9.770  19.309  0.00  0.00    +0.000 NA
ATOM     12  C   UNL     1       1.106   9.611  17.890  0.00  0.00    +0.000 C 
ATOM     13  C   UNL     1       2.093   8.562  17.500  0.00  0.00    +0.000 C 
ATOM     14  C   UNL     1       2.591   7.647  18.342  0.00  0.00    +0.000 C 
ATOM     15  C   UNL     1       2.179   7.604  19.781  0.00  0.00    +0.000 C 
ATOM     16  C   UNL     1       1.113   8.641  20.191  0.00  0.00    +0.000 C 
ENDBRANCH   1  14
BRANCH   3  17
ATOM     17  S   UNL     1       6.942   5.453  16.647  0.00  0.00    +0.000 S 
ATOM     18  O   UNL     1       7.574   6.749  16.795  0.00  0.00    +0.000 OA
ATOM     19  O   UNL     1       7.452   4.274  17.329  0.00  0.00    +0.000 OA
BRANCH  17  20
ATOM     20  C   UNL     1       6.833   5.058  14.922  0.00  0.00    +0.000 A 
ATOM     21  C   UNL     1       7.876   5.412  14.060  0.00  0.00    +0.000 A 
ATOM     22  C   UNL     1       7.801   5.071  12.709  0.00  0.00    +0.000 A 
ATOM     23  C   UNL     1       6.691   4.375  12.226  0.00  0.00    +0.000 A 
ATOM     24  C   UNL     1       5.669   4.003  13.100  0.00  0.00    +0.000 A 
ATOM     25 CL   UNL     1       4.314   3.128  12.501  0.00  0.00    +0.000 Cl
ATOM     26  C   UNL     1       5.735   4.332  14.452  0.00  0.00    +0.000 A 
ENDBRANCH  17  20
ENDBRANCH   3  17
TORSDOF 3
ENDMDL
MODEL 4
REMARK VINA RESULT:      -8.2      3.129      7.345
REMARK  Name = 
REMARK  4 active torsions:
REMARK  status: ('A' for Active; 'I' for Inactive)
REMARK    1  A    between atoms: C_1  and  N_2
REMARK    2  A    between atoms: C_5  and  C_6
REMARK    3  A    between atoms: N_8  and  S_9
REMARK    4  A    between atoms: S_9  and  C_12
REMARK                            x       y       z     vdW  Elec       q    Type
REMARK                         _______ _______ _______ _____ _____    ______ ____
ROOT
ATOM      1  C   UNL     1       5.282   4.259  15.845  0.00  0.00    +0.000 A 
ATOM      2  C   UNL     1       3.999   4.001  16.269  0.00  0.00    +0.000 A 
ATOM      3  N   UNL     1       3.934   4.335  17.601  0.00  0.00    +0.000 N 
ATOM      4  C   UNL     1       5.168   4.734  18.078  0.00  0.00    +0.000 A 
ATOM      5  C   UNL     1       5.620   5.134  19.350  0.00  0.00    +0.000 A 
ATOM      6  C   UNL     1       6.949   5.551  19.483  0.00  0.00    +0.000 A 
ATOM      7  C   UNL     1       7.811   5.563  18.392  0.00  0.00    +0.000 A 
ATOM      8  C   UNL     1       7.366   5.148  17.136  0.00  0.00    +0.000 A 
ATOM      9  C   UNL     1       6.030   4.724  16.968  0.00  0.00    +0.000 A 
ENDROOT
BRANCH   1  14
ATOM     10  C   UNL     1       7.615   2.646  11.323  0.00  0.00    +0.000 C 
ATOM     11  N   UNL     1       6.815   3.760  11.801  0.00  0.00    +0.000 NA
ATOM     12  C   UNL     1       5.439   3.404  12.117  0.00  0.00    +0.000 C 
ATOM     13  C   UNL     1       5.007   3.529  13.539  0.00  0.00    +0.000 C 
ATOM     14  C   UNL     1       5.736   4.113  14.499  0.00  0.00    +0.000 C 
ATOM     15  C   UNL     1       7.079   4.707  14.206  0.00  0.00    +0.000 C 
ATOM     16  C   UNL     1       7.518   4.643  12.729  0.00  0.00    +0.000 C 
ENDBRANCH   1  14
BRANCH   3  17
ATOM     17  S   UNL     1       2.518   4.149  18.531  0.00  0.00    +0.000 S 
ATOM     18  O   UNL     1       1.471   3.744  17.614  0.00  0.00    +0.000 OA
ATOM     19  O   UNL     1       2.892   3.326  19.671  0.00  0.00    +0.000 OA
BRANCH  17  20
ATOM     20  C   UNL     1       2.151   5.769  19.150  0.00  0.00    +0.000 A 
ATOM     21  C   UNL     1       1.796   5.937  20.492  0.00  0.00    +0.000 A 
ATOM     22  C   UNL     1       1.538   7.217  20.983  0.00  0.00    +0.000 A 
ATOM     23  C   UNL     1       1.641   8.323  20.136  0.00  0.00    +0.000 A 
ATOM     24  C   UNL     1       2.023   8.147  18.806  0.00  0.00    +0.000 A 
ATOM     25 CL   UNL     1       2.167   9.516  17.773  0.00  0.00    +0.000 Cl
ATOM     26  C   UNL     1       2.289   6.874  18.305  0.00  0.00    +0.000 A 
ENDBRANCH  17  20
ENDBRANCH   3  17
TORSDOF 3
ENDMDL
MODEL 5
REMARK VINA RESULT:      -8.0      1.317      1.879
REMARK  Name = 
REMARK  4 active torsions:
REMARK  status: ('A' for Active; 'I' for Inactive)
REMARK    1  A    between atoms: C_1  and  N_2
REMARK    2  A    between atoms: C_5  and  C_6
REMARK    3  A    between atoms: N_8  and  S_9
REMARK    4  A    between atoms: S_9  and  C_12
REMARK                            x       y       z     vdW  Elec       q    Type
REMARK                         _______ _______ _______ _____ _____    ______ ____
ROOT
ATOM      1  C   UNL     1       3.533   6.698  17.966  0.00  0.00    +0.000 A 
ATOM      2  C   UNL     1       4.852   6.865  17.613  0.00  0.00    +0.000 A 
ATOM      3  N   UNL     1       5.317   5.645  17.180  0.00  0.00    +0.000 N 
ATOM      4  C   UNL     1       4.352   4.665  17.313  0.00  0.00    +0.000 A 
ATOM      5  C   UNL     1       4.347   3.283  17.047  0.00  0.00    +0.000 A 
ATOM      6  C   UNL     1       3.155   2.574  17.231  0.00  0.00    +0.000 A 
ATOM      7  C   UNL     1       2.002   3.210  17.677  0.00  0.00    +0.000 A 
ATOM      8  C   UNL     1       2.014   4.578  17.959  0.00  0.00    +0.000 A 
ATOM      9  C   UNL     1       3.200   5.322  17.780  0.00  0.00    +0.000 A 
ENDROOT
BRANCH   1  14
ATOM     10  C   UNL     1      -0.597   9.963  18.843  0.00  0.00    +0.000 C 
ATOM     11  N   UNL     1       0.824   9.900  19.134  0.00  0.00    +0.000 NA
ATOM     12  C   UNL     1       1.184   8.855  20.082  0.00  0.00    +0.000 C 
ATOM     13  C   UNL     1       2.055   7.749  19.588  0.00  0.00    +0.000 C 
ATOM     14  C   UNL     1       2.670   7.749  18.398  0.00  0.00    +0.000 C 
ATOM     15  C   UNL     1       2.527   8.896  17.446  0.00  0.00    +0.000 C 
ATOM     16  C   UNL     1       1.681  10.078  17.963  0.00  0.00    +0.000 C 
ENDBRANCH   1  14
BRANCH   3  17
ATOM     17  S   UNL     1       6.923   5.400  16.666  0.00  0.00    +0.000 S 
ATOM     18  O   UNL     1       7.609   6.666  16.834  0.00  0.00    +0.000 OA
ATOM     19  O   UNL     1       7.379   4.191  17.337  0.00  0.00    +0.000 OA
BRANCH  17  20
ATOM     20  C   UNL     1       6.807   5.029  14.937  0.00  0.00    +0.000 A 
ATOM     21  C   UNL     1       7.846   5.398  14.075  0.00  0.00    +0.000 A 
ATOM     22  C   UNL     1       7.765   5.078  12.720  0.00  0.00    +0.000 A 
ATOM     23  C   UNL     1       6.654   4.387  12.231  0.00  0.00    +0.000 A 
ATOM     24  C   UNL     1       5.637   4.000  13.104  0.00  0.00    +0.000 A 
ATOM     25 CL   UNL     1       4.280   3.131  12.498  0.00  0.00    +0.000 Cl
ATOM     26  C   UNL     1       5.709   4.309  14.461  0.00  0.00    +0.000 A 
ENDBRANCH  17  20
ENDBRANCH   3  17
TORSDOF 3
ENDMDL
MODEL 6
REMARK VINA RESULT:      -7.9      5.131      8.968
REMARK  Name = 
REMARK  4 active torsions:
REMARK  status: ('A' for Active; 'I' for Inactive)
REMARK    1  A    between atoms: C_1  and  N_2
REMARK    2  A    between atoms: C_5  and  C_6
REMARK    3  A    between atoms: N_8  and  S_9
REMARK    4  A    between atoms: S_9  and  C_12
REMARK                            x       y       z     vdW  Elec       q    Type
REMARK                         _______ _______ _______ _____ _____    ______ ____
ROOT
ATOM      1  C   UNL     1       1.066   9.272  19.551  0.00  0.00    +0.000 A 
ATOM      2  C   UNL     1       0.576  10.256  18.724  0.00  0.00    +0.000 A 
ATOM      3  N   UNL     1      -0.169  11.110  19.502  0.00  0.00    +0.000 N 
ATOM      4  C   UNL     1      -0.241  10.664  20.809  0.00  0.00    +0.000 A 
ATOM      5  C   UNL     1      -0.895  11.155  21.954  0.00  0.00    +0.000 A 
ATOM      6  C   UNL     1      -0.702  10.487  23.169  0.00  0.00    +0.000 A 
ATOM      7  C   UNL     1       0.106   9.358  23.248  0.00  0.00    +0.000 A 
ATOM      8  C   UNL     1       0.738   8.861  22.106  0.00  0.00    +0.000 A 
ATOM      9  C   UNL     1       0.566   9.515  20.867  0.00  0.00    +0.000 A 
ENDROOT
BRANCH   1  14
ATOM     10  C   UNL     1       3.241   4.835  17.532  0.00  0.00    +0.000 C 
ATOM     11  N   UNL     1       3.643   5.984  18.324  0.00  0.00    +0.000 NA
ATOM     12  C   UNL     1       3.644   7.238  17.584  0.00  0.00    +0.000 C 
ATOM     13  C   UNL     1       2.679   8.291  18.016  0.00  0.00    +0.000 C 
ATOM     14  C   UNL     1       1.951   8.230  19.138  0.00  0.00    +0.000 C 
ATOM     15  C   UNL     1       2.056   7.067  20.075  0.00  0.00    +0.000 C 
ATOM     16  C   UNL     1       3.093   5.996  19.679  0.00  0.00    +0.000 C 
ENDBRANCH   1  14
BRANCH   3  17
ATOM     17  S   UNL     1      -0.981  12.466  18.866  0.00  0.00    +0.000 S 
ATOM     18  O   UNL     1      -1.429  13.250  20.000  0.00  0.00    +0.000 OA
ATOM     19  O   UNL     1      -0.096  13.026  17.855  0.00  0.00    +0.000 OA
BRANCH  17  20
ATOM     20  C   UNL     1      -2.394  11.809  18.022  0.00  0.00    +0.000 A 
ATOM     21  C   UNL     1      -3.653  11.857  18.632  0.00  0.00    +0.000 A 
ATOM     22  C   UNL     1      -4.768  11.367  17.951  0.00  0.00    +0.000 A 
ATOM     23  C   UNL     1      -4.625  10.837  16.667  0.00  0.00    +0.000 A 
ATOM     24  C   UNL     1      -3.369  10.819  16.058  0.00  0.00    +0.000 A 
ATOM     25 CL   UNL     1      -3.204  10.183  14.468  0.00  0.00    +0.000 Cl
ATOM     26  C   UNL     1      -2.250  11.311  16.724  0.00  0.00    +0.000 A 
ENDBRANCH  17  20
ENDBRANCH   3  17
TORSDOF 3
ENDMDL
MODEL 7
REMARK VINA RESULT:      -7.9      1.758      2.345
REMARK  Name = 
REMARK  4 active torsions:
REMARK  status: ('A' for Active; 'I' for Inactive)
REMARK    1  A    between atoms: C_1  and  N_2
REMARK    2  A    between atoms: C_5  and  C_6
REMARK    3  A    between atoms: N_8  and  S_9
REMARK    4  A    between atoms: S_9  and  C_12
REMARK                            x       y       z     vdW  Elec       q    Type
REMARK                         _______ _______ _______ _____ _____    ______ ____
ROOT
ATOM      1  C   UNL     1       2.640   6.505  19.546  0.00  0.00    +0.000 A 
ATOM      2  C   UNL     1       3.965   6.340  19.214  0.00  0.00    +0.000 A 
ATOM      3  N   UNL     1       4.243   4.996  19.296  0.00  0.00    +0.000 N 
ATOM      4  C   UNL     1       3.147   4.284  19.748  0.00  0.00    +0.000 A 
ATOM      5  C   UNL     1       2.939   2.920  20.025  0.00  0.00    +0.000 A 
ATOM      6  C   UNL     1       1.660   2.507  20.412  0.00  0.00    +0.000 A 
ATOM      7  C   UNL     1       0.616   3.419  20.532  0.00  0.00    +0.000 A 
ATOM      8  C   UNL     1       0.830   4.774  20.276  0.00  0.00    +0.000 A 
ATOM      9  C   UNL     1       2.109   5.222  19.880  0.00  0.00    +0.000 A 
ENDROOT
BRANCH   1  14
ATOM     10  C   UNL     1      -0.976  10.390  18.979  0.00  0.00    +0.000 C 
ATOM     11  N   UNL     1       0.434  10.250  19.298  0.00  0.00    +0.000 NA
ATOM     12  C   UNL     1       0.686   9.626  20.589  0.00  0.00    +0.000 C 
ATOM     13  C   UNL     1       1.380   8.306  20.590  0.00  0.00    +0.000 C 
ATOM     14  C   UNL     1       1.943   7.750  19.510  0.00  0.00    +0.000 C 
ATOM     15  C   UNL     1       1.921   8.436  18.179  0.00  0.00    +0.000 C 
ATOM     16  C   UNL     1       1.262   9.830  18.168  0.00  0.00    +0.000 C 
ENDBRANCH   1  14
BRANCH   3  17
ATOM     17  S   UNL     1       5.790   4.354  18.984  0.00  0.00    +0.000 S 
ATOM     18  O   UNL     1       6.710   5.044  19.867  0.00  0.00    +0.000 OA
ATOM     19  O   UNL     1       5.639   2.907  19.021  0.00  0.00    +0.000 OA
BRANCH  17  20
ATOM     20  C   UNL     1       6.151   4.802  17.308  0.00  0.00    +0.000 A 
ATOM     21  C   UNL     1       7.088   5.807  17.043  0.00  0.00    +0.000 A 
ATOM     22  C   UNL     1       7.392   6.135  15.721  0.00  0.00    +0.000 A 
ATOM     23  C   UNL     1       6.767   5.457  14.672  0.00  0.00    +0.000 A 
ATOM     24  C   UNL     1       5.854   4.438  14.948  0.00  0.00    +0.000 A 
ATOM     25 CL   UNL     1       5.103   3.594  13.650  0.00  0.00    +0.000 Cl
ATOM     26  C   UNL     1       5.547   4.097  16.263  0.00  0.00    +0.000 A 
ENDBRANCH  17  20
ENDBRANCH   3  17
TORSDOF 3
ENDMDL
MODEL 8
REMARK VINA RESULT:      -7.8      3.499      7.533
REMARK  Name = 
REMARK  4 active torsions:
REMARK  status: ('A' for Active; 'I' for Inactive)
REMARK    1  A    between atoms: C_1  and  N_2
REMARK    2  A    between atoms: C_5  and  C_6
REMARK    3  A    between atoms: N_8  and  S_9
REMARK    4  A    between atoms: S_9  and  C_12
REMARK                            x       y       z     vdW  Elec       q    Type
REMARK                         _______ _______ _______ _____ _____    ______ ____
ROOT
ATOM      1  C   UNL     1       5.292   4.396  15.823  0.00  0.00    +0.000 A 
ATOM      2  C   UNL     1       3.982   4.320  16.236  0.00  0.00    +0.000 A 
ATOM      3  N   UNL     1       3.951   4.674  17.564  0.00  0.00    +0.000 N 
ATOM      4  C   UNL     1       5.224   4.908  18.051  0.00  0.00    +0.000 A 
ATOM      5  C   UNL     1       5.714   5.256  19.323  0.00  0.00    +0.000 A 
ATOM      6  C   UNL     1       7.086   5.491  19.466  0.00  0.00    +0.000 A 
ATOM      7  C   UNL     1       7.951   5.374  18.385  0.00  0.00    +0.000 A 
ATOM      8  C   UNL     1       7.466   5.009  17.128  0.00  0.00    +0.000 A 
ATOM      9  C   UNL     1       6.086   4.768  16.950  0.00  0.00    +0.000 A 
ENDROOT
BRANCH   1  14
ATOM     10  C   UNL     1       7.571   2.521  11.375  0.00  0.00    +0.000 C 
ATOM     11  N   UNL     1       6.790   3.670  11.800  0.00  0.00    +0.000 NA
ATOM     12  C   UNL     1       5.412   3.349  12.143  0.00  0.00    +0.000 C 
ATOM     13  C   UNL     1       4.991   3.553  13.560  0.00  0.00    +0.000 C 
ATOM     14  C   UNL     1       5.735   4.175  14.484  0.00  0.00    +0.000 C 
ATOM     15  C   UNL     1       7.084   4.735  14.153  0.00  0.00    +0.000 C 
ATOM     16  C   UNL     1       7.512   4.589  12.678  0.00  0.00    +0.000 C 
ENDBRANCH   1  14
BRANCH   3  17
ATOM     17  S   UNL     1       2.514   4.692  18.481  0.00  0.00    +0.000 S 
ATOM     18  O   UNL     1       1.464   4.193  17.614  0.00  0.00    +0.000 OA
ATOM     19  O   UNL     1       2.835   4.041  19.742  0.00  0.00    +0.000 OA
BRANCH  17  20
ATOM     20  C   UNL     1       2.209   6.402  18.834  0.00  0.00    +0.000 A 
ATOM     21  C   UNL     1       2.261   7.345  17.802  0.00  0.00    +0.000 A 
ATOM     22  C   UNL     1       1.990   8.686  18.079  0.00  0.00    +0.000 A 
ATOM     23  C   UNL     1       1.662   9.078  19.379  0.00  0.00    +0.000 A 
ATOM     24  C   UNL     1       1.587   8.124  20.394  0.00  0.00    +0.000 A 
ATOM     25 CL   UNL     1       1.163   8.612  21.989  0.00  0.00    +0.000 Cl
ATOM     26  C   UNL     1       1.849   6.782  20.130  0.00  0.00    +0.000 A 
ENDBRANCH  17  20
ENDBRANCH   3  17
TORSDOF 3
ENDMDL
MODEL 9
REMARK VINA RESULT:      -7.8      5.188      8.982
REMARK  Name = 
REMARK  4 active torsions:
REMARK  status: ('A' for Active; 'I' for Inactive)
REMARK    1  A    between atoms: C_1  and  N_2
REMARK    2  A    between atoms: C_5  and  C_6
REMARK    3  A    between atoms: N_8  and  S_9
REMARK    4  A    between atoms: S_9  and  C_12
REMARK                            x       y       z     vdW  Elec       q    Type
REMARK                         _______ _______ _______ _____ _____    ______ ____
ROOT
ATOM      1  C   UNL     1       1.080   9.173  19.662  0.00  0.00    +0.000 A 
ATOM      2  C   UNL     1       0.652  10.160  18.803  0.00  0.00    +0.000 A 
ATOM      3  N   UNL     1      -0.081  11.056  19.544  0.00  0.00    +0.000 N 
ATOM      4  C   UNL     1      -0.207  10.638  20.856  0.00  0.00    +0.000 A 
ATOM      5  C   UNL     1      -0.874  11.175  21.972  0.00  0.00    +0.000 A 
ATOM      6  C   UNL     1      -0.742  10.523  23.203  0.00  0.00    +0.000 A 
ATOM      7  C   UNL     1       0.019   9.366  23.326  0.00  0.00    +0.000 A 
ATOM      8  C   UNL     1       0.663   8.824  22.213  0.00  0.00    +0.000 A 
ATOM      9  C   UNL     1       0.553   9.460  20.957  0.00  0.00    +0.000 A 
ENDROOT
BRANCH   1  14
ATOM     10  C   UNL     1       5.205   5.869  18.910  0.00  0.00    +0.000 C 
ATOM     11  N   UNL     1       3.813   5.985  18.512  0.00  0.00    +0.000 NA
ATOM     12  C   UNL     1       2.870   5.790  19.604  0.00  0.00    +0.000 C 
ATOM     13  C   UNL     1       2.019   6.952  19.992  0.00  0.00    +0.000 C 
ATOM     14  C   UNL     1       1.936   8.091  19.292  0.00  0.00    +0.000 C 
ATOM     15  C   UNL     1       2.711   8.289  18.027  0.00  0.00    +0.000 C 
ATOM     16  C   UNL     1       3.550   7.076  17.574  0.00  0.00    +0.000 C 
ENDBRANCH   1  14
BRANCH   3  17
ATOM     17  S   UNL     1      -0.822  12.430  18.860  0.00  0.00    +0.000 S 
ATOM     18  O   UNL     1      -1.216  13.281  19.966  0.00  0.00    +0.000 OA
ATOM     19  O   UNL     1       0.084  12.900  17.823  0.00  0.00    +0.000 OA
BRANCH  17  20
ATOM     20  C   UNL     1      -2.276  11.821  18.052  0.00  0.00    +0.000 A 
ATOM     21  C   UNL     1      -3.517  11.912  18.691  0.00  0.00    +0.000 A 
ATOM     22  C   UNL     1      -4.665  11.460  18.039  0.00  0.00    +0.000 A 
ATOM     23  C   UNL     1      -4.571  10.925  16.752  0.00  0.00    +0.000 A 
ATOM     24  C   UNL     1      -3.332  10.864  16.113  0.00  0.00    +0.000 A 
ATOM     25 CL   UNL     1      -3.227  10.222  14.520  0.00  0.00    +0.000 Cl
ATOM     26  C   UNL     1      -2.180  11.318  16.751  0.00  0.00    +0.000 A 
ENDBRANCH  17  20
ENDBRANCH   3  17
TORSDOF 3
ENDMDL
