MODEL 1
REMARK VINA RESULT:      -7.5      0.000      0.000
REMARK  Name = 
REMARK  7 active torsions:
REMARK  status: ('A' for Active; 'I' for Inactive)
REMARK    1  A    between atoms: C_1  and  C_2
REMARK    2  A    between atoms: C_2  and  N_3
REMARK    3  A    between atoms: C_5  and  C_6
REMARK    4  A    between atoms: C_6  and  N_7
REMARK    5  A    between atoms: N_7  and  C_8
REMARK    6  A    between atoms: N_11  and  C_12
REMARK    7  A    between atoms: N_15  and  C_16
REMARK                            x       y       z     vdW  Elec       q    Type
REMARK                         _______ _______ _______ _____ _____    ______ ____
ROOT
ATOM      1  C   UNL     1       1.982   8.213  18.363  0.00  0.00    +0.000 C 
ENDROOT
BRANCH   1   2
ATOM      2  N   UNL     1       1.458   8.682  19.648  0.00  0.00    +0.000 N 
ATOM      3  C   UNL     1       1.663   7.853  20.829  0.00  0.00    +0.000 C 
ATOM      4  C   UNL     1       0.540   9.734  19.677  0.00  0.00    +0.000 A 
ATOM      5  N   UNL     1      -0.223   9.960  18.646  0.00  0.00    +0.000 NA
ATOM      6  N   UNL     1      -1.077  11.021  18.671  0.00  0.00    +0.000 N 
ATOM      7  C   UNL     1      -1.915  11.182  17.496  0.00  0.00    +0.000 C 
ATOM      8  C   UNL     1      -1.068  12.025  19.636  0.00  0.00    +0.000 A 
ATOM      9  O   UNL     1      -1.786  13.024  19.533  0.00  0.00    +0.000 OA
ATOM     10  N   UNL     1      -0.223  11.831  20.702  0.00  0.00    +0.000 N 
ATOM     11  C   UNL     1      -0.104  12.838  21.739  0.00  0.00    +0.000 C 
ATOM     12  C   UNL     1       0.482  10.666  20.892  0.00  0.00    +0.000 A 
ATOM     13  O   UNL     1       1.083  10.380  21.924  0.00  0.00    +0.000 OA
ENDBRANCH   1   2
BRANCH   1  16
ATOM     14  N   UNL     1       3.017   4.554  17.875  0.00  0.00    +0.000 N 
ATOM     15  C   UNL     1       2.142   5.718  18.052  0.00  0.00    +0.000 C 
ATOM     16  C   UNL     1       2.897   6.970  18.511  0.00  0.00    +0.000 C 
ATOM     17  O   UNL     1       4.070   7.256  17.736  0.00  0.00    +0.000 OA
ATOM     18  C   UNL     1       4.721   6.168  17.213  0.00  0.00    +0.000 A 
ATOM     19  C   UNL     1       5.947   6.484  16.613  0.00  0.00    +0.000 A 
ATOM     20  C   UNL     1       6.686   5.504  15.964  0.00  0.00    +0.000 A 
ATOM     21  C   UNL     1       6.196   4.206  15.922  0.00  0.00    +0.000 A 
ATOM     22  C   UNL     1       4.984   3.885  16.554  0.00  0.00    +0.000 A 
ATOM     23  C   UNL     1       4.211   4.852  17.216  0.00  0.00    +0.000 A 
BRANCH  14  25
ATOM     24  C   UNL     1       1.089   3.184  18.650  0.00  0.00    +0.000 C 
ATOM     25  C   UNL     1       2.368   3.239  17.824  0.00  0.00    +0.000 C 
ENDBRANCH  14  25
ENDBRANCH   1  16
TORSDOF 3
ENDMDL
MODEL 2
REMARK VINA RESULT:      -7.4      2.507      7.863
REMARK  Name = 
REMARK  7 active torsions:
REMARK  status: ('A' for Active; 'I' for Inactive)
REMARK    1  A    between atoms: C_1  and  C_2
REMARK    2  A    between atoms: C_2  and  N_3
REMARK    3  A    between atoms: C_5  and  C_6
REMARK    4  A    between atoms: C_6  and  N_7
REMARK    5  A    between atoms: N_7  and  C_8
REMARK    6  A    between atoms: N_11  and  C_12
REMARK    7  A    between atoms: N_15  and  C_16
REMARK                            x       y       z     vdW  Elec       q    Type
REMARK                         _______ _______ _______ _____ _____    ______ ____
ROOT
ATOM      1  C   UNL     1       2.919   5.754  20.388  0.00  0.00    +0.000 C 
ENDROOT
BRANCH   1   2
ATOM      2  N   UNL     1       3.131   4.712  19.380  0.00  0.00    +0.000 N 
ATOM      3  C   UNL     1       2.213   3.582  19.341  0.00  0.00    +0.000 C 
ATOM      4  C   UNL     1       4.341   4.662  18.685  0.00  0.00    +0.000 A 
ATOM      5  N   UNL     1       5.422   5.146  19.226  0.00  0.00    +0.000 NA
ATOM      6  N   UNL     1       6.585   5.134  18.515  0.00  0.00    +0.000 N 
ATOM      7  C   UNL     1       7.750   5.661  19.203  0.00  0.00    +0.000 C 
ATOM      8  C   UNL     1       6.683   4.828  17.159  0.00  0.00    +0.000 A 
ATOM      9  O   UNL     1       7.746   4.955  16.545  0.00  0.00    +0.000 OA
ATOM     10  N   UNL     1       5.534   4.372  16.558  0.00  0.00    +0.000 N 
ATOM     11  C   UNL     1       5.517   4.068  15.140  0.00  0.00    +0.000 C 
ATOM     12  C   UNL     1       4.383   4.103  17.259  0.00  0.00    +0.000 A 
ATOM     13  O   UNL     1       3.412   3.511  16.795  0.00  0.00    +0.000 OA
ENDBRANCH   1   2
BRANCH   1  16
ATOM     14  N   UNL     1       0.344   8.531  20.985  0.00  0.00    +0.000 N 
ATOM     15  C   UNL     1       1.215   7.387  21.272  0.00  0.00    +0.000 C 
ATOM     16  C   UNL     1       1.773   6.726  20.007  0.00  0.00    +0.000 C 
ATOM     17  O   UNL     1       2.344   7.653  19.072  0.00  0.00    +0.000 OA
ATOM     18  C   UNL     1       1.780   8.904  19.049  0.00  0.00    +0.000 A 
ATOM     19  C   UNL     1       2.254   9.713  18.009  0.00  0.00    +0.000 A 
ATOM     20  C   UNL     1       1.842  11.035  17.902  0.00  0.00    +0.000 A 
ATOM     21  C   UNL     1       0.949  11.541  18.837  0.00  0.00    +0.000 A 
ATOM     22  C   UNL     1       0.448  10.717  19.857  0.00  0.00    +0.000 A 
ATOM     23  C   UNL     1       0.846   9.378  19.996  0.00  0.00    +0.000 A 
BRANCH  14  25
ATOM     24  C   UNL     1       0.236   9.466  23.289  0.00  0.00    +0.000 C 
ATOM     25  C   UNL     1      -0.537   8.982  22.069  0.00  0.00    +0.000 C 
ENDBRANCH  14  25
ENDBRANCH   1  16
TORSDOF 3
ENDMDL
MODEL 3
REMARK VINA RESULT:      -7.2      1.293      1.425
REMARK  Name = 
REMARK  7 active torsions:
REMARK  status: ('A' for Active; 'I' for Inactive)
REMARK    1  A    between atoms: C_1  and  C_2
REMARK    2  A    between atoms: C_2  and  N_3
REMARK    3  A    between atoms: C_5  and  C_6
REMARK    4  A    between atoms: C_6  and  N_7
REMARK    5  A    between atoms: N_7  and  C_8
REMARK    6  A    between atoms: N_11  and  C_12
REMARK    7  A    between atoms: N_15  and  C_16
REMARK                            x       y       z     vdW  Elec       q    Type
REMARK                         _______ _______ _______ _____ _____    ______ ____
ROOT
ATOM      1  C   UNL     1       1.959   8.947  18.054  0.00  0.00    +0.000 C 
ENDROOT
BRANCH   1   2
ATOM      2  N   UNL     1       1.061   9.368  19.132  0.00  0.00    +0.000 N 
ATOM      3  C   UNL     1       1.336   8.911  20.488  0.00  0.00    +0.000 C 
ATOM      4  C   UNL     1      -0.176   9.936  18.818  0.00  0.00    +0.000 A 
ATOM      5  N   UNL     1      -0.754   9.649  17.687  0.00  0.00    +0.000 NA
ATOM      6  N   UNL     1      -1.936  10.250  17.373  0.00  0.00    +0.000 N 
ATOM      7  C   UNL     1      -2.531   9.850  16.110  0.00  0.00    +0.000 C 
ATOM      8  C   UNL     1      -2.495  11.317  18.074  0.00  0.00    +0.000 A 
ATOM      9  O   UNL     1      -3.505  11.898  17.666  0.00  0.00    +0.000 OA
ATOM     10  N   UNL     1      -1.860  11.672  19.240  0.00  0.00    +0.000 N 
ATOM     11  C   UNL     1      -2.334  12.798  20.022  0.00  0.00    +0.000 C 
ATOM     12  C   UNL     1      -0.816  10.952  19.769  0.00  0.00    +0.000 A 
ATOM     13  O   UNL     1      -0.361  11.119  20.898  0.00  0.00    +0.000 OA
ENDBRANCH   1   2
BRANCH   1  16
ATOM     14  N   UNL     1       2.467   5.147  18.018  0.00  0.00    +0.000 N 
ATOM     15  C   UNL     1       1.765   6.435  18.034  0.00  0.00    +0.000 C 
ATOM     16  C   UNL     1       2.684   7.614  18.371  0.00  0.00    +0.000 C 
ATOM     17  O   UNL     1       3.898   7.639  17.606  0.00  0.00    +0.000 OA
ATOM     18  C   UNL     1       4.395   6.417  17.230  0.00  0.00    +0.000 A 
ATOM     19  C   UNL     1       5.662   6.486  16.638  0.00  0.00    +0.000 A 
ATOM     20  C   UNL     1       6.262   5.342  16.127  0.00  0.00    +0.000 A 
ATOM     21  C   UNL     1       5.592   4.130  16.218  0.00  0.00    +0.000 A 
ATOM     22  C   UNL     1       4.338   4.058  16.844  0.00  0.00    +0.000 A 
ATOM     23  C   UNL     1       3.701   5.195  17.368  0.00  0.00    +0.000 A 
BRANCH  14  25
ATOM     24  C   UNL     1       1.728   3.254  19.455  0.00  0.00    +0.000 C 
ATOM     25  C   UNL     1       1.637   3.939  18.097  0.00  0.00    +0.000 C 
ENDBRANCH  14  25
ENDBRANCH   1  16
TORSDOF 3
ENDMDL
MODEL 4
REMARK VINA RESULT:      -7.2      1.696      2.075
REMARK  Name = 
REMARK  7 active torsions:
REMARK  status: ('A' for Active; 'I' for Inactive)
REMARK    1  A    between atoms: C_1  and  C_2
REMARK    2  A    between atoms: C_2  and  N_3
REMARK    3  A    between atoms: C_5  and  C_6
REMARK    4  A    between atoms: C_6  and  N_7
REMARK    5  A    between atoms: N_7  and  C_8
REMARK    6  A    between atoms: N_11  and  C_12
REMARK    7  A    between atoms: N_15  and  C_16
REMARK                            x       y       z     vdW  Elec       q    Type
REMARK                         _______ _______ _______ _____ _____    ______ ____
ROOT
ATOM      1  C   UNL     1       0.519   7.716  20.812  0.00  0.00    +0.000 C 
ENDROOT
BRANCH   1   2
ATOM      2  N   UNL     1       0.673   9.103  21.257  0.00  0.00    +0.000 N 
ATOM      3  C   UNL     1       1.030   9.355  22.647  0.00  0.00    +0.000 C 
ATOM      4  C   UNL     1       0.203  10.142  20.451  0.00  0.00    +0.000 A 
ATOM      5  N   UNL     1      -0.774   9.927  19.617  0.00  0.00    +0.000 NA
ATOM      6  N   UNL     1      -1.188  10.938  18.803  0.00  0.00    +0.000 N 
ATOM      7  C   UNL     1      -2.304  10.625  17.927  0.00  0.00    +0.000 C 
ATOM      8  C   UNL     1      -0.517  12.147  18.634  0.00  0.00    +0.000 A 
ATOM      9  O   UNL     1      -0.877  12.971  17.789  0.00  0.00    +0.000 OA
ATOM     10  N   UNL     1       0.555  12.364  19.466  0.00  0.00    +0.000 N 
ATOM     11  C   UNL     1       1.349  13.571  19.342  0.00  0.00    +0.000 C 
ATOM     12  C   UNL     1       0.883  11.514  20.496  0.00  0.00    +0.000 A 
ATOM     13  O   UNL     1       1.700  11.774  21.375  0.00  0.00    +0.000 OA
ENDBRANCH   1   2
BRANCH   1  16
ATOM     14  N   UNL     1       2.845   4.760  20.071  0.00  0.00    +0.000 N 
ATOM     15  C   UNL     1       1.680   5.492  20.579  0.00  0.00    +0.000 C 
ATOM     16  C   UNL     1       1.880   7.011  20.579  0.00  0.00    +0.000 C 
ATOM     17  O   UNL     1       2.380   7.530  19.339  0.00  0.00    +0.000 OA
ATOM     18  C   UNL     1       3.198   6.692  18.625  0.00  0.00    +0.000 A 
ATOM     19  C   UNL     1       3.794   7.303  17.514  0.00  0.00    +0.000 A 
ATOM     20  C   UNL     1       4.583   6.562  16.643  0.00  0.00    +0.000 A 
ATOM     21  C   UNL     1       4.776   5.210  16.892  0.00  0.00    +0.000 A 
ATOM     22  C   UNL     1       4.207   4.609  18.025  0.00  0.00    +0.000 A 
ATOM     23  C   UNL     1       3.402   5.327  18.924  0.00  0.00    +0.000 A 
BRANCH  14  25
ATOM     24  C   UNL     1       2.194   2.976  21.679  0.00  0.00    +0.000 C 
ATOM     25  C   UNL     1       2.918   3.328  20.386  0.00  0.00    +0.000 C 
ENDBRANCH  14  25
ENDBRANCH   1  16
TORSDOF 3
ENDMDL
MODEL 5
REMARK VINA RESULT:      -6.9      2.123      7.944
REMARK  Name = 
REMARK  7 active torsions:
REMARK  status: ('A' for Active; 'I' for Inactive)
REMARK    1  A    between atoms: C_1  and  C_2
REMARK    2  A    between atoms: C_2  and  N_3
REMARK    3  A    between atoms: C_5  and  C_6
REMARK    4  A    between atoms: C_6  and  N_7
REMARK    5  A    between atoms: N_7  and  C_8
REMARK    6  A    between atoms: N_11  and  C_12
REMARK    7  A    between atoms: N_15  and  C_16
REMARK                            x       y       z     vdW  Elec       q    Type
REMARK                         _______ _______ _______ _____ _____    ______ ____
ROOT
ATOM      1  C   UNL     1       1.160   9.488  18.700  0.00  0.00    +0.000 C 
ENDROOT
BRANCH   1   2
ATOM      2  N   UNL     1       1.637   8.421  19.584  0.00  0.00    +0.000 N 
ATOM      3  C   UNL     1       1.526   8.608  21.025  0.00  0.00    +0.000 C 
ATOM      4  C   UNL     1       2.438   7.402  19.065  0.00  0.00    +0.000 A 
ATOM      5  N   UNL     1       3.168   7.623  18.009  0.00  0.00    +0.000 NA
ATOM      6  N   UNL     1       3.905   6.603  17.486  0.00  0.00    +0.000 N 
ATOM      7  C   UNL     1       4.716   6.942  16.330  0.00  0.00    +0.000 C 
ATOM      8  C   UNL     1       3.794   5.267  17.864  0.00  0.00    +0.000 A 
ATOM      9  O   UNL     1       4.402   4.375  17.266  0.00  0.00    +0.000 OA
ATOM     10  N   UNL     1       2.979   5.010  18.941  0.00  0.00    +0.000 N 
ATOM     11  C   UNL     1       2.759   3.648  19.387  0.00  0.00    +0.000 C 
ATOM     12  C   UNL     1       2.403   6.005  19.694  0.00  0.00    +0.000 A 
ATOM     13  O   UNL     1       1.840   5.822  20.770  0.00  0.00    +0.000 OA
ENDBRANCH   1   2
BRANCH   1  16
ATOM     14  N   UNL     1      -2.116  11.434  19.127  0.00  0.00    +0.000 N 
ATOM     15  C   UNL     1      -0.708  11.065  19.311  0.00  0.00    +0.000 C 
ATOM     16  C   UNL     1      -0.378   9.671  18.766  0.00  0.00    +0.000 C 
ATOM     17  O   UNL     1      -0.855   9.442  17.432  0.00  0.00    +0.000 OA
ATOM     18  C   UNL     1      -2.008  10.101  17.087  0.00  0.00    +0.000 A 
ATOM     19  C   UNL     1      -2.523   9.714  15.844  0.00  0.00    +0.000 A 
ATOM     20  C   UNL     1      -3.639  10.350  15.316  0.00  0.00    +0.000 A 
ATOM     21  C   UNL     1      -4.240  11.371  16.040  0.00  0.00    +0.000 A 
ATOM     22  C   UNL     1      -3.743  11.732  17.302  0.00  0.00    +0.000 A 
ATOM     23  C   UNL     1      -2.615  11.112  17.863  0.00  0.00    +0.000 A 
BRANCH  14  25
ATOM     24  C   UNL     1      -2.063  12.538  21.356  0.00  0.00    +0.000 C 
ATOM     25  C   UNL     1      -2.621  12.547  19.939  0.00  0.00    +0.000 C 
ENDBRANCH  14  25
ENDBRANCH   1  16
TORSDOF 3
ENDMDL
MODEL 6
REMARK VINA RESULT:      -6.9      1.794      2.514
REMARK  Name = 
REMARK  7 active torsions:
REMARK  status: ('A' for Active; 'I' for Inactive)
REMARK    1  A    between atoms: C_1  and  C_2
REMARK    2  A    between atoms: C_2  and  N_3
REMARK    3  A    between atoms: C_5  and  C_6
REMARK    4  A    between atoms: C_6  and  N_7
REMARK    5  A    between atoms: N_7  and  C_8
REMARK    6  A    between atoms: N_11  and  C_12
REMARK    7  A    between atoms: N_15  and  C_16
REMARK                            x       y       z     vdW  Elec       q    Type
REMARK                         _______ _______ _______ _____ _____    ______ ____
ROOT
ATOM      1  C   UNL     1       1.312   9.065  18.156  0.00  0.00    +0.000 C 
ENDROOT
BRANCH   1   2
ATOM      2  N   UNL     1       1.446  10.458  18.589  0.00  0.00    +0.000 N 
ATOM      3  C   UNL     1       2.434  11.302  17.930  0.00  0.00    +0.000 C 
ATOM      4  C   UNL     1       0.857  10.867  19.788  0.00  0.00    +0.000 A 
ATOM      5  N   UNL     1       0.651  10.002  20.739  0.00  0.00    +0.000 NA
ATOM      6  N   UNL     1       0.030  10.407  21.883  0.00  0.00    +0.000 N 
ATOM      7  C   UNL     1      -0.132   9.390  22.906  0.00  0.00    +0.000 C 
ATOM      8  C   UNL     1      -0.597  11.640  22.053  0.00  0.00    +0.000 A 
ATOM      9  O   UNL     1      -1.248  11.898  23.069  0.00  0.00    +0.000 OA
ATOM     10  N   UNL     1      -0.439  12.544  21.029  0.00  0.00    +0.000 N 
ATOM     11  C   UNL     1      -1.088  13.839  21.085  0.00  0.00    +0.000 C 
ATOM     12  C   UNL     1       0.389  12.317  19.955  0.00  0.00    +0.000 A 
ATOM     13  O   UNL     1       0.708  13.172  19.134  0.00  0.00    +0.000 OA
ENDBRANCH   1   2
BRANCH   1  16
ATOM     14  N   UNL     1       3.007   5.897  19.495  0.00  0.00    +0.000 N 
ATOM     15  C   UNL     1       1.973   6.920  19.301  0.00  0.00    +0.000 C 
ATOM     16  C   UNL     1       2.503   8.183  18.613  0.00  0.00    +0.000 C 
ATOM     17  O   UNL     1       3.269   7.920  17.429  0.00  0.00    +0.000 OA
ATOM     18  C   UNL     1       3.971   6.742  17.419  0.00  0.00    +0.000 A 
ATOM     19  C   UNL     1       4.833   6.611  16.323  0.00  0.00    +0.000 A 
ATOM     20  C   UNL     1       5.549   5.438  16.127  0.00  0.00    +0.000 A 
ATOM     21  C   UNL     1       5.404   4.398  17.036  0.00  0.00    +0.000 A 
ATOM     22  C   UNL     1       4.566   4.545  18.153  0.00  0.00    +0.000 A 
ATOM     23  C   UNL     1       3.826   5.716  18.379  0.00  0.00    +0.000 A 
BRANCH  14  25
ATOM     24  C   UNL     1       1.321   4.253  20.301  0.00  0.00    +0.000 C 
ATOM     25  C   UNL     1       2.717   4.839  20.470  0.00  0.00    +0.000 C 
ENDBRANCH  14  25
ENDBRANCH   1  16
TORSDOF 3
ENDMDL
MODEL 7
REMARK VINA RESULT:      -6.8      1.843      8.336
REMARK  Name = 
REMARK  7 active torsions:
REMARK  status: ('A' for Active; 'I' for Inactive)
REMARK    1  A    between atoms: C_1  and  C_2
REMARK    2  A    between atoms: C_2  and  N_3
REMARK    3  A    between atoms: C_5  and  C_6
REMARK    4  A    between atoms: C_6  and  N_7
REMARK    5  A    between atoms: N_7  and  C_8
REMARK    6  A    between atoms: N_11  and  C_12
REMARK    7  A    between atoms: N_15  and  C_16
REMARK                            x       y       z     vdW  Elec       q    Type
REMARK                         _______ _______ _______ _____ _____    ______ ____
ROOT
ATOM      1  C   UNL     1       1.347   8.345  20.517  0.00  0.00    +0.000 C 
ENDROOT
BRANCH   1   2
ATOM      2  N   UNL     1       2.109   7.780  19.400  0.00  0.00    +0.000 N 
ATOM      3  C   UNL     1       2.165   8.523  18.148  0.00  0.00    +0.000 C 
ATOM      4  C   UNL     1       2.511   6.444  19.445  0.00  0.00    +0.000 A 
ATOM      5  N   UNL     1       1.834   5.584  20.152  0.00  0.00    +0.000 NA
ATOM      6  N   UNL     1       2.268   4.295  20.225  0.00  0.00    +0.000 N 
ATOM      7  C   UNL     1       1.438   3.394  21.006  0.00  0.00    +0.000 C 
ATOM      8  C   UNL     1       3.505   3.846  19.768  0.00  0.00    +0.000 A 
ATOM      9  O   UNL     1       3.889   2.692  19.975  0.00  0.00    +0.000 OA
ATOM     10  N   UNL     1       4.259   4.760  19.071  0.00  0.00    +0.000 N 
ATOM     11  C   UNL     1       5.581   4.409  18.591  0.00  0.00    +0.000 C 
ATOM     12  C   UNL     1       3.788   6.004  18.722  0.00  0.00    +0.000 A 
ATOM     13  O   UNL     1       4.350   6.762  17.936  0.00  0.00    +0.000 OA
ENDBRANCH   1   2
BRANCH   1  16
ATOM     14  N   UNL     1      -0.971  11.033  19.070  0.00  0.00    +0.000 N 
ATOM     15  C   UNL     1      -0.250   9.761  19.178  0.00  0.00    +0.000 C 
ATOM     16  C   UNL     1       0.859   9.789  20.235  0.00  0.00    +0.000 C 
ATOM     17  O   UNL     1       0.439  10.313  21.503  0.00  0.00    +0.000 OA
ATOM     18  C   UNL     1      -0.545  11.267  21.460  0.00  0.00    +0.000 A 
ATOM     19  C   UNL     1      -0.798  11.867  22.700  0.00  0.00    +0.000 A 
ATOM     20  C   UNL     1      -1.825  12.793  22.837  0.00  0.00    +0.000 A 
ATOM     21  C   UNL     1      -2.592  13.119  21.727  0.00  0.00    +0.000 A 
ATOM     22  C   UNL     1      -2.313  12.543  20.478  0.00  0.00    +0.000 A 
ATOM     23  C   UNL     1      -1.286  11.602  20.305  0.00  0.00    +0.000 A 
BRANCH  14  25
ATOM     24  C   UNL     1      -2.182   9.936  17.193  0.00  0.00    +0.000 C 
ATOM     25  C   UNL     1      -1.766  11.243  17.854  0.00  0.00    +0.000 C 
ENDBRANCH  14  25
ENDBRANCH   1  16
TORSDOF 3
ENDMDL
MODEL 8
REMARK VINA RESULT:      -6.8      2.201      8.213
REMARK  Name = 
REMARK  7 active torsions:
REMARK  status: ('A' for Active; 'I' for Inactive)
REMARK    1  A    between atoms: C_1  and  C_2
REMARK    2  A    between atoms: C_2  and  N_3
REMARK    3  A    between atoms: C_5  and  C_6
REMARK    4  A    between atoms: C_6  and  N_7
REMARK    5  A    between atoms: N_7  and  C_8
REMARK    6  A    between atoms: N_11  and  C_12
REMARK    7  A    between atoms: N_15  and  C_16
REMARK                            x       y       z     vdW  Elec       q    Type
REMARK                         _______ _______ _______ _____ _____    ______ ____
ROOT
ATOM      1  C   UNL     1       2.546   8.330  18.055  0.00  0.00    +0.000 C 
ENDROOT
BRANCH   1   2
ATOM      2  N   UNL     1       2.900   6.908  18.064  0.00  0.00    +0.000 N 
ATOM      3  C   UNL     1       2.062   5.984  18.817  0.00  0.00    +0.000 C 
ATOM      4  C   UNL     1       4.161   6.509  17.614  0.00  0.00    +0.000 A 
ATOM      5  N   UNL     1       5.164   7.337  17.673  0.00  0.00    +0.000 NA
ATOM      6  N   UNL     1       6.376   6.949  17.183  0.00  0.00    +0.000 N 
ATOM      7  C   UNL     1       7.449   7.918  17.318  0.00  0.00    +0.000 C 
ATOM      8  C   UNL     1       6.596   5.799  16.428  0.00  0.00    +0.000 A 
ATOM      9  O   UNL     1       7.692   5.569  15.910  0.00  0.00    +0.000 OA
ATOM     10  N   UNL     1       5.528   4.943  16.306  0.00  0.00    +0.000 N 
ATOM     11  C   UNL     1       5.638   3.740  15.503  0.00  0.00    +0.000 C 
ATOM     12  C   UNL     1       4.346   5.124  16.984  0.00  0.00    +0.000 A 
ATOM     13  O   UNL     1       3.453   4.284  17.057  0.00  0.00    +0.000 OA
ENDBRANCH   1   2
BRANCH   1  16
ATOM     14  N   UNL     1       0.214  10.056  20.561  0.00  0.00    +0.000 N 
ATOM     15  C   UNL     1       1.448   9.497  20.000  0.00  0.00    +0.000 C 
ATOM     16  C   UNL     1       1.201   8.611  18.774  0.00  0.00    +0.000 C 
ATOM     17  O   UNL     1       0.350   9.211  17.787  0.00  0.00    +0.000 OA
ATOM     18  C   UNL     1      -0.606  10.072  18.264  0.00  0.00    +0.000 A 
ATOM     19  C   UNL     1      -1.515  10.496  17.287  0.00  0.00    +0.000 A 
ATOM     20  C   UNL     1      -2.492  11.434  17.595  0.00  0.00    +0.000 A 
ATOM     21  C   UNL     1      -2.557  11.942  18.885  0.00  0.00    +0.000 A 
ATOM     22  C   UNL     1      -1.667  11.488  19.872  0.00  0.00    +0.000 A 
ATOM     23  C   UNL     1      -0.666  10.543  19.593  0.00  0.00    +0.000 A 
BRANCH  14  25
ATOM     24  C   UNL     1      -0.470   9.715  22.930  0.00  0.00    +0.000 C 
ATOM     25  C   UNL     1       0.286  10.581  21.930  0.00  0.00    +0.000 C 
ENDBRANCH  14  25
ENDBRANCH   1  16
TORSDOF 3
ENDMDL
MODEL 9
REMARK VINA RESULT:      -6.7      1.039      1.039
REMARK  Name = 
REMARK  7 active torsions:
REMARK  status: ('A' for Active; 'I' for Inactive)
REMARK    1  A    between atoms: C_1  and  C_2
REMARK    2  A    between atoms: C_2  and  N_3
REMARK    3  A    between atoms: C_5  and  C_6
REMARK    4  A    between atoms: C_6  and  N_7
REMARK    5  A    between atoms: N_7  and  C_8
REMARK    6  A    between atoms: N_11  and  C_12
REMARK    7  A    between atoms: N_15  and  C_16
REMARK                            x       y       z     vdW  Elec       q    Type
REMARK                         _______ _______ _______ _____ _____    ______ ____
ROOT
ATOM      1  C   UNL     1       1.374   7.978  18.825  0.00  0.00    +0.000 C 
ENDROOT
BRANCH   1   2
ATOM      2  N   UNL     1       1.187   8.934  19.920  0.00  0.00    +0.000 N 
ATOM      3  C   UNL     1       1.395   8.476  21.288  0.00  0.00    +0.000 C 
ATOM      4  C   UNL     1       0.545  10.149  19.673  0.00  0.00    +0.000 A 
ATOM      5  N   UNL     1      -0.308  10.246  18.693  0.00  0.00    +0.000 NA
ATOM      6  N   UNL     1      -0.889  11.451  18.434  0.00  0.00    +0.000 N 
ATOM      7  C   UNL     1      -1.852  11.466  17.348  0.00  0.00    +0.000 C 
ATOM      8  C   UNL     1      -0.496  12.660  19.004  0.00  0.00    +0.000 A 
ATOM      9  O   UNL     1      -0.980  13.734  18.635  0.00  0.00    +0.000 OA
ATOM     10  N   UNL     1       0.449  12.581  19.999  0.00  0.00    +0.000 N 
ATOM     11  C   UNL     1       0.959  13.784  20.627  0.00  0.00    +0.000 C 
ATOM     12  C   UNL     1       0.897  11.384  20.507  0.00  0.00    +0.000 A 
ATOM     13  O   UNL     1       1.582  11.275  21.521  0.00  0.00    +0.000 OA
ENDBRANCH   1   2
BRANCH   1  16
ATOM     14  N   UNL     1       3.468   4.785  19.159  0.00  0.00    +0.000 N 
ATOM     15  C   UNL     1       2.325   5.693  19.297  0.00  0.00    +0.000 C 
ATOM     16  C   UNL     1       2.676   7.150  18.974  0.00  0.00    +0.000 C 
ATOM     17  O   UNL     1       3.385   7.314  17.738  0.00  0.00    +0.000 OA
ATOM     18  C   UNL     1       4.202   6.275  17.373  0.00  0.00    +0.000 A 
ATOM     19  C   UNL     1       4.999   6.553  16.255  0.00  0.00    +0.000 A 
ATOM     20  C   UNL     1       5.817   5.571  15.712  0.00  0.00    +0.000 A 
ATOM     21  C   UNL     1       5.839   4.312  16.296  0.00  0.00    +0.000 A 
ATOM     22  C   UNL     1       5.067   4.046  17.438  0.00  0.00    +0.000 A 
ATOM     23  C   UNL     1       4.226   5.015  18.010  0.00  0.00    +0.000 A 
BRANCH  14  25
ATOM     24  C   UNL     1       2.067   2.747  19.436  0.00  0.00    +0.000 C 
ATOM     25  C   UNL     1       3.354   3.472  19.807  0.00  0.00    +0.000 C 
ENDBRANCH  14  25
ENDBRANCH   1  16
TORSDOF 3
ENDMDL
