MODEL 1
REMARK VINA RESULT:      -7.3      0.000      0.000
REMARK  Name = 
REMARK  16 active torsions:
REMARK  status: ('A' for Active; 'I' for Inactive)
REMARK    1  A    between atoms: C_1  and  C_2
REMARK    2  A    between atoms: C_2  and  C_3
REMARK    3  A    between atoms: C_3  and  C_4
REMARK    4  A    between atoms: C_4  and  C_5
REMARK    5  A    between atoms: C_5  and  C_6
REMARK    6  A    between atoms: C_6  and  C_7
REMARK    7  A    between atoms: C_7  and  C_8
REMARK    8  A    between atoms: C_8  and  C_9
REMARK    9  A    between atoms: C_15  and  N_16
REMARK   10  A    between atoms: N_16  and  C_17
REMARK   11  A    between atoms: C_17  and  C_18
REMARK   12  A    between atoms: C_18  and  C_19
REMARK   13  A    between atoms: C_19  and  N_20
REMARK   14  A    between atoms: C_21  and  C_23
REMARK   15  A    between atoms: C_26  and  C_27
REMARK   16  A    between atoms: C_27  and  N_28
REMARK                            x       y       z     vdW  Elec       q    Type
REMARK                         _______ _______ _______ _____ _____    ______ ____
ROOT
ATOM      1  N   UNL     1       1.740   7.647  19.910  0.00  0.00    +0.000 N 
ATOM      2  C   UNL     1       1.589   8.327  18.657  0.00  0.00    +0.000 C 
ATOM      3  O   UNL     1       1.698   7.764  17.571  0.00  0.00    +0.000 OA
ENDROOT
BRANCH   1  10
ATOM      4  C   UNL     1       5.112   5.420  18.274  0.00  0.00    +0.000 C 
ATOM      5  O   UNL     1       4.606   4.092  18.558  0.00  0.00    +0.000 OA
ATOM      6  C   UNL     1       3.454   4.377  19.222  0.00  0.00    +0.000 A 
ATOM      7  C   UNL     1       2.610   3.443  19.775  0.00  0.00    +0.000 A 
ATOM      8  C   UNL     1       1.484   3.918  20.451  0.00  0.00    +0.000 A 
ATOM      9  C   UNL     1       1.221   5.304  20.532  0.00  0.00    +0.000 A 
ATOM     10  C   UNL     1       2.064   6.248  19.918  0.00  0.00    +0.000 A 
ATOM     11  C   UNL     1       3.199   5.735  19.301  0.00  0.00    +0.000 A 
ATOM     12  O   UNL     1       4.214   6.455  18.747  0.00  0.00    +0.000 OA
BRANCH   4  13
ATOM     13  C   UNL     1       6.440   5.582  19.038  0.00  0.00    +0.000 C 
BRANCH  13  14
ATOM     14  C   UNL     1       7.596   6.019  18.136  0.00  0.00    +0.000 C 
BRANCH  14  16
ATOM     15  C   UNL     1       7.817   8.463  17.661  0.00  0.00    +0.000 C 
ATOM     16  C   UNL     1       8.208   7.335  18.602  0.00  0.00    +0.000 C 
ENDBRANCH  14  16
ENDBRANCH  13  14
ENDBRANCH   4  13
BRANCH   4  17
ATOM     17  C   UNL     1       5.253   5.580  16.742  0.00  0.00    +0.000 C 
BRANCH  17  18
ATOM     18  C   UNL     1       5.392   4.258  15.980  0.00  0.00    +0.000 C 
BRANCH  18  19
ATOM     19  C   UNL     1       6.501   4.323  14.930  0.00  0.00    +0.000 C 
ATOM     20  C   UNL     1       6.024   3.767  13.596  0.00  0.00    +0.000 C 
ENDBRANCH  18  19
ENDBRANCH  17  18
ENDBRANCH   4  17
ENDBRANCH   1  10
BRANCH   2  21
ATOM     21  C   UNL     1       1.187   9.794  18.618  0.00  0.00    +0.000 A 
ATOM     22  C   UNL     1       2.107  10.843  18.529  0.00  0.00    +0.000 A 
ATOM     23  C   UNL     1       1.708  12.183  18.585  0.00  0.00    +0.000 A 
ATOM     24  C   UNL     1       0.355  12.528  18.580  0.00  0.00    +0.000 A 
ATOM     25  C   UNL     1      -0.585  11.487  18.597  0.00  0.00    +0.000 A 
ATOM     26  C   UNL     1      -0.176  10.135  18.622  0.00  0.00    +0.000 A 
BRANCH  24  27
ATOM     27  C   UNL     1      -0.018  13.993  18.571  0.00  0.00    +0.000 C 
BRANCH  27  28
ATOM     28  N   UNL     1      -1.187  14.293  19.390  0.00  0.00    +0.000 NA
ATOM     29  H   UNL     1      -1.439  15.270  19.250  0.00  0.00    +0.000 HD
ATOM     30  H   UNL     1      -0.930  14.207  20.373  0.00  0.00    +0.000 HD
ENDBRANCH  27  28
ENDBRANCH  24  27
ENDBRANCH   2  21
BRANCH   1  31
ATOM     31  C   UNL     1       1.561   8.364  21.180  0.00  0.00    +0.000 C 
BRANCH  31  32
ATOM     32  C   UNL     1       0.239   8.708  21.860  0.00  0.00    +0.000 C 
BRANCH  32  33
ATOM     33  C   UNL     1       0.373   9.504  23.152  0.00  0.00    +0.000 C 
BRANCH  33  34
ATOM     34  N   UNL     1      -0.885  10.201  23.404  0.00  0.00    +0.000 NA
ATOM     35  H   UNL     1      -1.011  10.950  22.724  0.00  0.00    +0.000 HD
ATOM     36  H   UNL     1      -0.856  10.640  24.322  0.00  0.00    +0.000 HD
ENDBRANCH  33  34
ENDBRANCH  32  33
ENDBRANCH  31  32
ENDBRANCH   1  31
TORSDOF 14
ENDMDL
MODEL 2
REMARK VINA RESULT:      -7.2      0.566      1.017
REMARK  Name = 
REMARK  16 active torsions:
REMARK  status: ('A' for Active; 'I' for Inactive)
REMARK    1  A    between atoms: C_1  and  C_2
REMARK    2  A    between atoms: C_2  and  C_3
REMARK    3  A    between atoms: C_3  and  C_4
REMARK    4  A    between atoms: C_4  and  C_5
REMARK    5  A    between atoms: C_5  and  C_6
REMARK    6  A    between atoms: C_6  and  C_7
REMARK    7  A    between atoms: C_7  and  C_8
REMARK    8  A    between atoms: C_8  and  C_9
REMARK    9  A    between atoms: C_15  and  N_16
REMARK   10  A    between atoms: N_16  and  C_17
REMARK   11  A    between atoms: C_17  and  C_18
REMARK   12  A    between atoms: C_18  and  C_19
REMARK   13  A    between atoms: C_19  and  N_20
REMARK   14  A    between atoms: C_21  and  C_23
REMARK   15  A    between atoms: C_26  and  C_27
REMARK   16  A    between atoms: C_27  and  N_28
REMARK                            x       y       z     vdW  Elec       q    Type
REMARK                         _______ _______ _______ _____ _____    ______ ____
ROOT
ATOM      1  N   UNL     1       1.688   7.566  19.934  0.00  0.00    +0.000 N 
ATOM      2  C   UNL     1       1.633   8.289  18.698  0.00  0.00    +0.000 C 
ATOM      3  O   UNL     1       1.826   7.764  17.605  0.00  0.00    +0.000 OA
ENDROOT
BRANCH   1  10
ATOM      4  C   UNL     1       5.072   5.373  18.277  0.00  0.00    +0.000 C 
ATOM      5  O   UNL     1       4.567   4.039  18.535  0.00  0.00    +0.000 OA
ATOM      6  C   UNL     1       3.410   4.311  19.198  0.00  0.00    +0.000 A 
ATOM      7  C   UNL     1       2.565   3.366  19.730  0.00  0.00    +0.000 A 
ATOM      8  C   UNL     1       1.434   3.828  20.408  0.00  0.00    +0.000 A 
ATOM      9  C   UNL     1       1.169   5.212  20.513  0.00  0.00    +0.000 A 
ATOM     10  C   UNL     1       2.015   6.167  19.919  0.00  0.00    +0.000 A 
ATOM     11  C   UNL     1       3.153   5.667  19.300  0.00  0.00    +0.000 A 
ATOM     12  O   UNL     1       4.170   6.398  18.765  0.00  0.00    +0.000 OA
BRANCH   4  13
ATOM     13  C   UNL     1       6.396   5.523  19.052  0.00  0.00    +0.000 C 
BRANCH  13  14
ATOM     14  C   UNL     1       7.569   5.919  18.153  0.00  0.00    +0.000 C 
BRANCH  14  16
ATOM     15  C   UNL     1       7.762   8.346  17.586  0.00  0.00    +0.000 C 
ATOM     16  C   UNL     1       8.170   7.258  18.567  0.00  0.00    +0.000 C 
ENDBRANCH  14  16
ENDBRANCH  13  14
ENDBRANCH   4  13
BRANCH   4  17
ATOM     17  C   UNL     1       5.222   5.560  16.749  0.00  0.00    +0.000 C 
BRANCH  17  18
ATOM     18  C   UNL     1       5.013   4.280  15.934  0.00  0.00    +0.000 C 
BRANCH  18  19
ATOM     19  C   UNL     1       6.304   3.825  15.254  0.00  0.00    +0.000 C 
ATOM     20  C   UNL     1       6.196   3.941  13.740  0.00  0.00    +0.000 C 
ENDBRANCH  18  19
ENDBRANCH  17  18
ENDBRANCH   4  17
ENDBRANCH   1  10
BRANCH   2  21
ATOM     21  C   UNL     1       1.232   9.756  18.678  0.00  0.00    +0.000 A 
ATOM     22  C   UNL     1      -0.088  10.197  18.812  0.00  0.00    +0.000 A 
ATOM     23  C   UNL     1      -0.431  11.549  18.701  0.00  0.00    +0.000 A 
ATOM     24  C   UNL     1       0.554  12.533  18.601  0.00  0.00    +0.000 A 
ATOM     25  C   UNL     1       1.892  12.114  18.536  0.00  0.00    +0.000 A 
ATOM     26  C   UNL     1       2.228  10.742  18.568  0.00  0.00    +0.000 A 
BRANCH  24  27
ATOM     27  C   UNL     1       0.129  13.982  18.552  0.00  0.00    +0.000 C 
BRANCH  27  28
ATOM     28  N   UNL     1       1.233  14.913  18.754  0.00  0.00    +0.000 NA
ATOM     29  H   UNL     1       0.866  15.763  19.179  0.00  0.00    +0.000 HD
ATOM     30  H   UNL     1       1.599  15.189  17.844  0.00  0.00    +0.000 HD
ENDBRANCH  27  28
ENDBRANCH  24  27
ENDBRANCH   2  21
BRANCH   1  31
ATOM     31  C   UNL     1       1.411   8.239  21.211  0.00  0.00    +0.000 C 
BRANCH  31  32
ATOM     32  C   UNL     1       0.044   8.451  21.857  0.00  0.00    +0.000 C 
BRANCH  32  33
ATOM     33  C   UNL     1      -0.127   9.788  22.567  0.00  0.00    +0.000 C 
BRANCH  33  34
ATOM     34  N   UNL     1       0.167   9.605  23.986  0.00  0.00    +0.000 NA
ATOM     35  H   UNL     1      -0.186  10.398  24.520  0.00  0.00    +0.000 HD
ATOM     36  H   UNL     1       1.175   9.581  24.126  0.00  0.00    +0.000 HD
ENDBRANCH  33  34
ENDBRANCH  32  33
ENDBRANCH  31  32
ENDBRANCH   1  31
TORSDOF 14
ENDMDL
MODEL 3
REMARK VINA RESULT:      -6.7      3.156      8.514
REMARK  Name = 
REMARK  16 active torsions:
REMARK  status: ('A' for Active; 'I' for Inactive)
REMARK    1  A    between atoms: C_1  and  C_2
REMARK    2  A    between atoms: C_2  and  C_3
REMARK    3  A    between atoms: C_3  and  C_4
REMARK    4  A    between atoms: C_4  and  C_5
REMARK    5  A    between atoms: C_5  and  C_6
REMARK    6  A    between atoms: C_6  and  C_7
REMARK    7  A    between atoms: C_7  and  C_8
REMARK    8  A    between atoms: C_8  and  C_9
REMARK    9  A    between atoms: C_15  and  N_16
REMARK   10  A    between atoms: N_16  and  C_17
REMARK   11  A    between atoms: C_17  and  C_18
REMARK   12  A    between atoms: C_18  and  C_19
REMARK   13  A    between atoms: C_19  and  N_20
REMARK   14  A    between atoms: C_21  and  C_23
REMARK   15  A    between atoms: C_26  and  C_27
REMARK   16  A    between atoms: C_27  and  N_28
REMARK                            x       y       z     vdW  Elec       q    Type
REMARK                         _______ _______ _______ _____ _____    ______ ____
ROOT
ATOM      1  N   UNL     1       1.160   9.510  19.400  0.00  0.00    +0.000 N 
ATOM      2  C   UNL     1       1.874   8.881  18.328  0.00  0.00    +0.000 C 
ATOM      3  O   UNL     1       1.992   9.384  17.214  0.00  0.00    +0.000 OA
ENDROOT
BRANCH   1  10
ATOM      4  C   UNL     1      -2.499  10.593  17.294  0.00  0.00    +0.000 C 
ATOM      5  O   UNL     1      -2.342  12.031  17.385  0.00  0.00    +0.000 OA
ATOM      6  C   UNL     1      -1.210  12.132  18.134  0.00  0.00    +0.000 A 
ATOM      7  C   UNL     1      -0.653  13.313  18.566  0.00  0.00    +0.000 A 
ATOM      8  C   UNL     1       0.496  13.227  19.355  0.00  0.00    +0.000 A 
ATOM      9  C   UNL     1       1.068  11.973  19.665  0.00  0.00    +0.000 A 
ATOM     10  C   UNL     1       0.519  10.775  19.173  0.00  0.00    +0.000 A 
ATOM     11  C   UNL     1      -0.652  10.903  18.437  0.00  0.00    +0.000 A 
ATOM     12  O   UNL     1      -1.425   9.886  17.962  0.00  0.00    +0.000 OA
BRANCH   4  13
ATOM     13  C   UNL     1      -3.809  10.225  18.018  0.00  0.00    +0.000 C 
BRANCH  13  14
ATOM     14  C   UNL     1      -4.850  11.345  17.969  0.00  0.00    +0.000 C 
BRANCH  14  16
ATOM     15  C   UNL     1      -6.594  11.341  19.761  0.00  0.00    +0.000 C 
ATOM     16  C   UNL     1      -5.212  11.839  19.366  0.00  0.00    +0.000 C 
ENDBRANCH  14  16
ENDBRANCH  13  14
ENDBRANCH   4  13
BRANCH   4  17
ATOM     17  C   UNL     1      -2.479  10.185  15.802  0.00  0.00    +0.000 C 
BRANCH  17  18
ATOM     18  C   UNL     1      -3.866   9.947  15.195  0.00  0.00    +0.000 C 
BRANCH  18  19
ATOM     19  C   UNL     1      -3.826   9.962  13.667  0.00  0.00    +0.000 C 
ATOM     20  C   UNL     1      -2.480   9.473  13.151  0.00  0.00    +0.000 C 
ENDBRANCH  18  19
ENDBRANCH  17  18
ENDBRANCH   4  17
ENDBRANCH   1  10
BRANCH   2  21
ATOM     21  C   UNL     1       2.612   7.571  18.556  0.00  0.00    +0.000 A 
ATOM     22  C   UNL     1       3.722   7.170  17.806  0.00  0.00    +0.000 A 
ATOM     23  C   UNL     1       4.323   5.919  17.984  0.00  0.00    +0.000 A 
ATOM     24  C   UNL     1       3.930   5.077  19.026  0.00  0.00    +0.000 A 
ATOM     25  C   UNL     1       2.862   5.493  19.835  0.00  0.00    +0.000 A 
ATOM     26  C   UNL     1       2.206   6.722  19.601  0.00  0.00    +0.000 A 
BRANCH  24  27
ATOM     27  C   UNL     1       4.660   3.767  19.212  0.00  0.00    +0.000 C 
BRANCH  27  28
ATOM     28  N   UNL     1       6.011   3.779  18.665  0.00  0.00    +0.000 NA
ATOM     29  H   UNL     1       6.559   3.060  19.138  0.00  0.00    +0.000 HD
ATOM     30  H   UNL     1       6.452   4.667  18.900  0.00  0.00    +0.000 HD
ENDBRANCH  27  28
ENDBRANCH  24  27
ENDBRANCH   2  21
BRANCH   1  31
ATOM     31  C   UNL     1       1.084   8.878  20.725  0.00  0.00    +0.000 C 
BRANCH  31  32
ATOM     32  C   UNL     1      -0.147   8.772  21.620  0.00  0.00    +0.000 C 
BRANCH  32  33
ATOM     33  C   UNL     1      -0.355   9.952  22.562  0.00  0.00    +0.000 C 
BRANCH  33  34
ATOM     34  N   UNL     1       0.128   9.581  23.890  0.00  0.00    +0.000 NA
ATOM     35  H   UNL     1       0.314   8.579  23.925  0.00  0.00    +0.000 HD
ATOM     36  H   UNL     1      -0.594   9.770  24.582  0.00  0.00    +0.000 HD
ENDBRANCH  33  34
ENDBRANCH  32  33
ENDBRANCH  31  32
ENDBRANCH   1  31
TORSDOF 14
ENDMDL
MODEL 4
REMARK VINA RESULT:      -6.6      2.967      8.475
REMARK  Name = 
REMARK  16 active torsions:
REMARK  status: ('A' for Active; 'I' for Inactive)
REMARK    1  A    between atoms: C_1  and  C_2
REMARK    2  A    between atoms: C_2  and  C_3
REMARK    3  A    between atoms: C_3  and  C_4
REMARK    4  A    between atoms: C_4  and  C_5
REMARK    5  A    between atoms: C_5  and  C_6
REMARK    6  A    between atoms: C_6  and  C_7
REMARK    7  A    between atoms: C_7  and  C_8
REMARK    8  A    between atoms: C_8  and  C_9
REMARK    9  A    between atoms: C_15  and  N_16
REMARK   10  A    between atoms: N_16  and  C_17
REMARK   11  A    between atoms: C_17  and  C_18
REMARK   12  A    between atoms: C_18  and  C_19
REMARK   13  A    between atoms: C_19  and  N_20
REMARK   14  A    between atoms: C_21  and  C_23
REMARK   15  A    between atoms: C_26  and  C_27
REMARK   16  A    between atoms: C_27  and  N_28
REMARK                            x       y       z     vdW  Elec       q    Type
REMARK                         _______ _______ _______ _____ _____    ______ ____
ROOT
ATOM      1  N   UNL     1       1.210   9.052  19.317  0.00  0.00    +0.000 N 
ATOM      2  C   UNL     1       1.937   8.441  18.243  0.00  0.00    +0.000 C 
ATOM      3  O   UNL     1       2.244   9.039  17.215  0.00  0.00    +0.000 OA
ENDROOT
BRANCH   1  10
ATOM      4  C   UNL     1      -2.321  10.853  17.504  0.00  0.00    +0.000 C 
ATOM      5  O   UNL     1      -1.915  12.237  17.652  0.00  0.00    +0.000 OA
ATOM      6  C   UNL     1      -0.743  12.103  18.330  0.00  0.00    +0.000 A 
ATOM      7  C   UNL     1       0.030  13.147  18.781  0.00  0.00    +0.000 A 
ATOM      8  C   UNL     1       1.190  12.824  19.490  0.00  0.00    +0.000 A 
ATOM      9  C   UNL     1       1.555  11.476  19.703  0.00  0.00    +0.000 A 
ATOM     10  C   UNL     1       0.783  10.417  19.191  0.00  0.00    +0.000 A 
ATOM     11  C   UNL     1      -0.388  10.782  18.539  0.00  0.00    +0.000 A 
ATOM     12  O   UNL     1      -1.348   9.939  18.067  0.00  0.00    +0.000 OA
BRANCH   4  13
ATOM     13  C   UNL     1      -3.632  10.670  18.293  0.00  0.00    +0.000 C 
BRANCH  13  14
ATOM     14  C   UNL     1      -4.426  11.969  18.438  0.00  0.00    +0.000 C 
BRANCH  14  16
ATOM     15  C   UNL     1      -3.573  12.973  20.563  0.00  0.00    +0.000 C 
ATOM     16  C   UNL     1      -4.748  12.273  19.897  0.00  0.00    +0.000 C 
ENDBRANCH  14  16
ENDBRANCH  13  14
ENDBRANCH   4  13
BRANCH   4  17
ATOM     17  C   UNL     1      -2.454  10.534  15.996  0.00  0.00    +0.000 C 
BRANCH  17  18
ATOM     18  C   UNL     1      -3.898  10.503  15.483  0.00  0.00    +0.000 C 
BRANCH  18  19
ATOM     19  C   UNL     1      -3.970  10.066  14.020  0.00  0.00    +0.000 C 
ATOM     20  C   UNL     1      -2.619   9.559  13.534  0.00  0.00    +0.000 C 
ENDBRANCH  18  19
ENDBRANCH  17  18
ENDBRANCH   4  17
ENDBRANCH   1  10
BRANCH   2  21
ATOM     21  C   UNL     1       2.454   7.016  18.373  0.00  0.00    +0.000 A 
ATOM     22  C   UNL     1       1.768   5.900  17.886  0.00  0.00    +0.000 A 
ATOM     23  C   UNL     1       2.229   4.596  18.100  0.00  0.00    +0.000 A 
ATOM     24  C   UNL     1       3.477   4.364  18.682  0.00  0.00    +0.000 A 
ATOM     25  C   UNL     1       4.213   5.477  19.114  0.00  0.00    +0.000 A 
ATOM     26  C   UNL     1       3.707   6.788  18.968  0.00  0.00    +0.000 A 
BRANCH  24  27
ATOM     27  C   UNL     1       3.954   2.938  18.827  0.00  0.00    +0.000 C 
BRANCH  27  28
ATOM     28  N   UNL     1       5.202   2.822  19.572  0.00  0.00    +0.000 NA
ATOM     29  H   UNL     1       5.455   3.743  19.927  0.00  0.00    +0.000 HD
ATOM     30  H   UNL     1       5.946   2.556  18.928  0.00  0.00    +0.000 HD
ENDBRANCH  27  28
ENDBRANCH  24  27
ENDBRANCH   2  21
BRANCH   1  31
ATOM     31  C   UNL     1       0.904   8.298  20.540  0.00  0.00    +0.000 C 
BRANCH  31  32
ATOM     32  C   UNL     1      -0.135   8.655  21.600  0.00  0.00    +0.000 C 
BRANCH  32  33
ATOM     33  C   UNL     1       0.405   9.451  22.782  0.00  0.00    +0.000 C 
BRANCH  33  34
ATOM     34  N   UNL     1       1.860   9.321  22.808  0.00  0.00    +0.000 NA
ATOM     35  H   UNL     1       2.123   8.438  23.245  0.00  0.00    +0.000 HD
ATOM     36  H   UNL     1       2.260  10.063  23.378  0.00  0.00    +0.000 HD
ENDBRANCH  33  34
ENDBRANCH  32  33
ENDBRANCH  31  32
ENDBRANCH   1  31
TORSDOF 14
ENDMDL
MODEL 5
REMARK VINA RESULT:      -6.5      2.980      8.176
REMARK  Name = 
REMARK  16 active torsions:
REMARK  status: ('A' for Active; 'I' for Inactive)
REMARK    1  A    between atoms: C_1  and  C_2
REMARK    2  A    between atoms: C_2  and  C_3
REMARK    3  A    between atoms: C_3  and  C_4
REMARK    4  A    between atoms: C_4  and  C_5
REMARK    5  A    between atoms: C_5  and  C_6
REMARK    6  A    between atoms: C_6  and  C_7
REMARK    7  A    between atoms: C_7  and  C_8
REMARK    8  A    between atoms: C_8  and  C_9
REMARK    9  A    between atoms: C_15  and  N_16
REMARK   10  A    between atoms: N_16  and  C_17
REMARK   11  A    between atoms: C_17  and  C_18
REMARK   12  A    between atoms: C_18  and  C_19
REMARK   13  A    between atoms: C_19  and  N_20
REMARK   14  A    between atoms: C_21  and  C_23
REMARK   15  A    between atoms: C_26  and  C_27
REMARK   16  A    between atoms: C_27  and  N_28
REMARK                            x       y       z     vdW  Elec       q    Type
REMARK                         _______ _______ _______ _____ _____    ______ ____
ROOT
ATOM      1  N   UNL     1       1.022   9.317  19.561  0.00  0.00    +0.000 N 
ATOM      2  C   UNL     1       1.747   8.797  18.440  0.00  0.00    +0.000 C 
ATOM      3  O   UNL     1       1.786   9.357  17.348  0.00  0.00    +0.000 OA
ENDROOT
BRANCH   1  10
ATOM      4  C   UNL     1       2.206  13.511  19.671  0.00  0.00    +0.000 C 
ATOM      5  O   UNL     1       0.874  14.077  19.608  0.00  0.00    +0.000 OA
ATOM      6  C   UNL     1       0.111  12.959  19.472  0.00  0.00    +0.000 A 
ATOM      7  C   UNL     1      -1.254  12.951  19.304  0.00  0.00    +0.000 A 
ATOM      8  C   UNL     1      -1.872  11.708  19.147  0.00  0.00    +0.000 A 
ATOM      9  C   UNL     1      -1.117  10.515  19.189  0.00  0.00    +0.000 A 
ATOM     10  C   UNL     1       0.272  10.534  19.413  0.00  0.00    +0.000 A 
ATOM     11  C   UNL     1       0.853  11.791  19.512  0.00  0.00    +0.000 A 
ATOM     12  O   UNL     1       2.184  12.063  19.610  0.00  0.00    +0.000 OA
BRANCH   4  13
ATOM     13  C   UNL     1       2.978  14.009  18.434  0.00  0.00    +0.000 C 
BRANCH  13  14
ATOM     14  C   UNL     1       2.673  15.468  18.090  0.00  0.00    +0.000 C 
BRANCH  14  16
ATOM     15  C   UNL     1       5.159  15.590  18.319  0.00  0.00    +0.000 C 
ATOM     16  C   UNL     1       3.860  16.378  18.387  0.00  0.00    +0.000 C 
ENDBRANCH  14  16
ENDBRANCH  13  14
ENDBRANCH   4  13
BRANCH   4  17
ATOM     17  C   UNL     1       2.857  13.918  21.015  0.00  0.00    +0.000 C 
BRANCH  17  18
ATOM     18  C   UNL     1       2.135  15.057  21.744  0.00  0.00    +0.000 C 
BRANCH  18  19
ATOM     19  C   UNL     1       3.105  16.153  22.183  0.00  0.00    +0.000 C 
ATOM     20  C   UNL     1       4.550  15.702  22.018  0.00  0.00    +0.000 C 
ENDBRANCH  18  19
ENDBRANCH  17  18
ENDBRANCH   4  17
ENDBRANCH   1  10
BRANCH   2  21
ATOM     21  C   UNL     1       2.597   7.544  18.584  0.00  0.00    +0.000 A 
ATOM     22  C   UNL     1       2.368   6.563  19.554  0.00  0.00    +0.000 A 
ATOM     23  C   UNL     1       3.223   5.468  19.715  0.00  0.00    +0.000 A 
ATOM     24  C   UNL     1       4.259   5.229  18.811  0.00  0.00    +0.000 A 
ATOM     25  C   UNL     1       4.461   6.165  17.786  0.00  0.00    +0.000 A 
ATOM     26  C   UNL     1       3.645   7.314  17.676  0.00  0.00    +0.000 A 
BRANCH  24  27
ATOM     27  C   UNL     1       5.109   3.993  18.993  0.00  0.00    +0.000 C 
BRANCH  27  28
ATOM     28  N   UNL     1       6.423   4.101  18.371  0.00  0.00    +0.000 NA
ATOM     29  H   UNL     1       7.120   4.225  19.104  0.00  0.00    +0.000 HD
ATOM     30  H   UNL     1       6.452   4.952  17.811  0.00  0.00    +0.000 HD
ENDBRANCH  27  28
ENDBRANCH  24  27
ENDBRANCH   2  21
BRANCH   1  31
ATOM     31  C   UNL     1       1.042   8.623  20.856  0.00  0.00    +0.000 C 
BRANCH  31  32
ATOM     32  C   UNL     1       1.218   9.258  22.233  0.00  0.00    +0.000 C 
BRANCH  32  33
ATOM     33  C   UNL     1      -0.079   9.497  22.997  0.00  0.00    +0.000 C 
BRANCH  33  34
ATOM     34  N   UNL     1      -0.376  10.926  22.978  0.00  0.00    +0.000 NA
ATOM     35  H   UNL     1       0.327  11.421  22.430  0.00  0.00    +0.000 HD
ATOM     36  H   UNL     1      -0.328  11.299  23.924  0.00  0.00    +0.000 HD
ENDBRANCH  33  34
ENDBRANCH  32  33
ENDBRANCH  31  32
ENDBRANCH   1  31
TORSDOF 14
ENDMDL
MODEL 6
REMARK VINA RESULT:      -6.5      2.014      3.333
REMARK  Name = 
REMARK  16 active torsions:
REMARK  status: ('A' for Active; 'I' for Inactive)
REMARK    1  A    between atoms: C_1  and  C_2
REMARK    2  A    between atoms: C_2  and  C_3
REMARK    3  A    between atoms: C_3  and  C_4
REMARK    4  A    between atoms: C_4  and  C_5
REMARK    5  A    between atoms: C_5  and  C_6
REMARK    6  A    between atoms: C_6  and  C_7
REMARK    7  A    between atoms: C_7  and  C_8
REMARK    8  A    between atoms: C_8  and  C_9
REMARK    9  A    between atoms: C_15  and  N_16
REMARK   10  A    between atoms: N_16  and  C_17
REMARK   11  A    between atoms: C_17  and  C_18
REMARK   12  A    between atoms: C_18  and  C_19
REMARK   13  A    between atoms: C_19  and  N_20
REMARK   14  A    between atoms: C_21  and  C_23
REMARK   15  A    between atoms: C_26  and  C_27
REMARK   16  A    between atoms: C_27  and  N_28
REMARK                            x       y       z     vdW  Elec       q    Type
REMARK                         _______ _______ _______ _____ _____    ______ ____
ROOT
ATOM      1  N   UNL     1       1.958   5.769  19.094  0.00  0.00    +0.000 N 
ATOM      2  C   UNL     1       1.683   5.983  20.484  0.00  0.00    +0.000 C 
ATOM      3  O   UNL     1       1.918   5.146  21.351  0.00  0.00    +0.000 OA
ENDROOT
BRANCH   1  10
ATOM      4  C   UNL     1       5.582   4.749  16.897  0.00  0.00    +0.000 C 
ATOM      5  O   UNL     1       5.308   3.334  16.743  0.00  0.00    +0.000 OA
ATOM      6  C   UNL     1       4.150   3.205  17.445  0.00  0.00    +0.000 A 
ATOM      7  C   UNL     1       3.489   2.019  17.664  0.00  0.00    +0.000 A 
ATOM      8  C   UNL     1       2.326   2.069  18.438  0.00  0.00    +0.000 A 
ATOM      9  C   UNL     1       1.846   3.297  18.944  0.00  0.00    +0.000 A 
ATOM     10  C   UNL     1       2.504   4.510  18.669  0.00  0.00    +0.000 A 
ATOM     11  C   UNL     1       3.682   4.409  17.941  0.00  0.00    +0.000 A 
ATOM     12  O   UNL     1       4.547   5.423  17.657  0.00  0.00    +0.000 OA
BRANCH   4  13
ATOM     13  C   UNL     1       6.894   4.882  17.695  0.00  0.00    +0.000 C 
BRANCH  13  14
ATOM     14  C   UNL     1       6.880   6.059  18.671  0.00  0.00    +0.000 C 
BRANCH  14  16
ATOM     15  C   UNL     1       7.656   8.188  17.614  0.00  0.00    +0.000 C 
ATOM     16  C   UNL     1       8.070   6.988  18.451  0.00  0.00    +0.000 C 
ENDBRANCH  14  16
ENDBRANCH  13  14
ENDBRANCH   4  13
BRANCH   4  17
ATOM     17  C   UNL     1       5.639   5.399  15.494  0.00  0.00    +0.000 C 
BRANCH  17  18
ATOM     18  C   UNL     1       5.333   4.437  14.341  0.00  0.00    +0.000 C 
BRANCH  18  19
ATOM     19  C   UNL     1       6.594   4.074  13.557  0.00  0.00    +0.000 C 
ATOM     20  C   UNL     1       6.244   3.345  12.267  0.00  0.00    +0.000 C 
ENDBRANCH  18  19
ENDBRANCH  17  18
ENDBRANCH   4  17
ENDBRANCH   1  10
BRANCH   2  21
ATOM     21  C   UNL     1       1.161   7.327  20.971  0.00  0.00    +0.000 A 
ATOM     22  C   UNL     1      -0.186   7.697  20.915  0.00  0.00    +0.000 A 
ATOM     23  C   UNL     1      -0.618   8.974  21.290  0.00  0.00    +0.000 A 
ATOM     24  C   UNL     1       0.262   9.885  21.878  0.00  0.00    +0.000 A 
ATOM     25  C   UNL     1       1.606   9.504  22.007  0.00  0.00    +0.000 A 
ATOM     26  C   UNL     1       2.054   8.243  21.553  0.00  0.00    +0.000 A 
BRANCH  24  27
ATOM     27  C   UNL     1      -0.275  11.224  22.325  0.00  0.00    +0.000 C 
BRANCH  27  28
ATOM     28  N   UNL     1      -1.260  11.121  23.395  0.00  0.00    +0.000 NA
ATOM     29  H   UNL     1      -1.243  11.985  23.936  0.00  0.00    +0.000 HD
ATOM     30  H   UNL     1      -0.972  10.383  24.036  0.00  0.00    +0.000 HD
ENDBRANCH  27  28
ENDBRANCH  24  27
ENDBRANCH   2  21
BRANCH   1  31
ATOM     31  C   UNL     1       1.692   6.823  18.105  0.00  0.00    +0.000 C 
BRANCH  31  32
ATOM     32  C   UNL     1       2.415   8.161  17.974  0.00  0.00    +0.000 C 
BRANCH  32  33
ATOM     33  C   UNL     1       1.503   9.381  17.960  0.00  0.00    +0.000 C 
BRANCH  33  34
ATOM     34  N   UNL     1       2.270  10.533  17.494  0.00  0.00    +0.000 NA
ATOM     35  H   UNL     1       2.942  10.241  16.785  0.00  0.00    +0.000 HD
ATOM     36  H   UNL     1       2.808  10.921  18.266  0.00  0.00    +0.000 HD
ENDBRANCH  33  34
ENDBRANCH  32  33
ENDBRANCH  31  32
ENDBRANCH   1  31
TORSDOF 14
ENDMDL
MODEL 7
REMARK VINA RESULT:      -6.5      3.167      8.672
REMARK  Name = 
REMARK  16 active torsions:
REMARK  status: ('A' for Active; 'I' for Inactive)
REMARK    1  A    between atoms: C_1  and  C_2
REMARK    2  A    between atoms: C_2  and  C_3
REMARK    3  A    between atoms: C_3  and  C_4
REMARK    4  A    between atoms: C_4  and  C_5
REMARK    5  A    between atoms: C_5  and  C_6
REMARK    6  A    between atoms: C_6  and  C_7
REMARK    7  A    between atoms: C_7  and  C_8
REMARK    8  A    between atoms: C_8  and  C_9
REMARK    9  A    between atoms: C_15  and  N_16
REMARK   10  A    between atoms: N_16  and  C_17
REMARK   11  A    between atoms: C_17  and  C_18
REMARK   12  A    between atoms: C_18  and  C_19
REMARK   13  A    between atoms: C_19  and  N_20
REMARK   14  A    between atoms: C_21  and  C_23
REMARK   15  A    between atoms: C_26  and  C_27
REMARK   16  A    between atoms: C_27  and  N_28
REMARK                            x       y       z     vdW  Elec       q    Type
REMARK                         _______ _______ _______ _____ _____    ______ ____
ROOT
ATOM      1  N   UNL     1       1.093   9.506  19.378  0.00  0.00    +0.000 N 
ATOM      2  C   UNL     1       1.796   8.741  18.391  0.00  0.00    +0.000 C 
ATOM      3  O   UNL     1       1.968   9.128  17.239  0.00  0.00    +0.000 OA
ENDROOT
BRANCH   1  10
ATOM      4  C   UNL     1      -2.809  10.618  17.784  0.00  0.00    +0.000 C 
ATOM      5  O   UNL     1      -2.516  12.018  17.548  0.00  0.00    +0.000 OA
ATOM      6  C   UNL     1      -1.253  12.117  18.045  0.00  0.00    +0.000 A 
ATOM      7  C   UNL     1      -0.524  13.281  18.118  0.00  0.00    +0.000 A 
ATOM      8  C   UNL     1       0.749  13.203  18.690  0.00  0.00    +0.000 A 
ATOM      9  C   UNL     1       1.263  11.968  19.144  0.00  0.00    +0.000 A 
ATOM     10  C   UNL     1       0.528  10.776  19.015  0.00  0.00    +0.000 A 
ATOM     11  C   UNL     1      -0.751  10.907  18.489  0.00  0.00    +0.000 A 
ATOM     12  O   UNL     1      -1.686   9.922  18.380  0.00  0.00    +0.000 OA
BRANCH   4  13
ATOM     13  C   UNL     1      -3.974  10.554  18.791  0.00  0.00    +0.000 C 
BRANCH  13  14
ATOM     14  C   UNL     1      -4.730  11.878  18.911  0.00  0.00    +0.000 C 
BRANCH  14  16
ATOM     15  C   UNL     1      -6.737  10.391  18.823  0.00  0.00    +0.000 C 
ATOM     16  C   UNL     1      -6.157  11.670  19.407  0.00  0.00    +0.000 C 
ENDBRANCH  14  16
ENDBRANCH  13  14
ENDBRANCH   4  13
BRANCH   4  17
ATOM     17  C   UNL     1      -3.121   9.941  16.429  0.00  0.00    +0.000 C 
BRANCH  17  18
ATOM     18  C   UNL     1      -2.936  10.853  15.211  0.00  0.00    +0.000 C 
BRANCH  18  19
ATOM     19  C   UNL     1      -2.902  10.056  13.907  0.00  0.00    +0.000 C 
ATOM     20  C   UNL     1      -4.310   9.745  13.419  0.00  0.00    +0.000 C 
ENDBRANCH  18  19
ENDBRANCH  17  18
ENDBRANCH   4  17
ENDBRANCH   1  10
BRANCH   2  21
ATOM     21  C   UNL     1       2.456   7.421  18.763  0.00  0.00    +0.000 A 
ATOM     22  C   UNL     1       1.999   6.594  19.794  0.00  0.00    +0.000 A 
ATOM     23  C   UNL     1       2.682   5.431  20.166  0.00  0.00    +0.000 A 
ATOM     24  C   UNL     1       3.769   4.969  19.421  0.00  0.00    +0.000 A 
ATOM     25  C   UNL     1       4.199   5.750  18.338  0.00  0.00    +0.000 A 
ATOM     26  C   UNL     1       3.555   6.965  18.015  0.00  0.00    +0.000 A 
BRANCH  24  27
ATOM     27  C   UNL     1       4.426   3.671  19.829  0.00  0.00    +0.000 C 
BRANCH  27  28
ATOM     28  N   UNL     1       5.501   3.263  18.931  0.00  0.00    +0.000 NA
ATOM     29  H   UNL     1       5.436   3.814  18.076  0.00  0.00    +0.000 HD
ATOM     30  H   UNL     1       5.346   2.295  18.653  0.00  0.00    +0.000 HD
ENDBRANCH  27  28
ENDBRANCH  24  27
ENDBRANCH   2  21
BRANCH   1  31
ATOM     31  C   UNL     1       0.951   9.009  20.753  0.00  0.00    +0.000 C 
BRANCH  31  32
ATOM     32  C   UNL     1      -0.263   9.169  21.665  0.00  0.00    +0.000 C 
BRANCH  32  33
ATOM     33  C   UNL     1       0.029   9.827  23.008  0.00  0.00    +0.000 C 
BRANCH  33  34
ATOM     34  N   UNL     1      -0.858  10.976  23.167  0.00  0.00    +0.000 NA
ATOM     35  H   UNL     1      -0.440  11.654  23.804  0.00  0.00    +0.000 HD
ATOM     36  H   UNL     1      -1.734  10.676  23.590  0.00  0.00    +0.000 HD
ENDBRANCH  33  34
ENDBRANCH  32  33
ENDBRANCH  31  32
ENDBRANCH   1  31
TORSDOF 14
ENDMDL
MODEL 8
REMARK VINA RESULT:      -6.4      2.890      8.068
REMARK  Name = 
REMARK  16 active torsions:
REMARK  status: ('A' for Active; 'I' for Inactive)
REMARK    1  A    between atoms: C_1  and  C_2
REMARK    2  A    between atoms: C_2  and  C_3
REMARK    3  A    between atoms: C_3  and  C_4
REMARK    4  A    between atoms: C_4  and  C_5
REMARK    5  A    between atoms: C_5  and  C_6
REMARK    6  A    between atoms: C_6  and  C_7
REMARK    7  A    between atoms: C_7  and  C_8
REMARK    8  A    between atoms: C_8  and  C_9
REMARK    9  A    between atoms: C_15  and  N_16
REMARK   10  A    between atoms: N_16  and  C_17
REMARK   11  A    between atoms: C_17  and  C_18
REMARK   12  A    between atoms: C_18  and  C_19
REMARK   13  A    between atoms: C_19  and  N_20
REMARK   14  A    between atoms: C_21  and  C_23
REMARK   15  A    between atoms: C_26  and  C_27
REMARK   16  A    between atoms: C_27  and  N_28
REMARK                            x       y       z     vdW  Elec       q    Type
REMARK                         _______ _______ _______ _____ _____    ______ ____
ROOT
ATOM      1  N   UNL     1       1.049   9.250  19.499  0.00  0.00    +0.000 N 
ATOM      2  C   UNL     1       1.755   8.733  18.364  0.00  0.00    +0.000 C 
ATOM      3  O   UNL     1       1.722   9.260  17.256  0.00  0.00    +0.000 OA
ENDROOT
BRANCH   1  10
ATOM      4  C   UNL     1       2.023  13.498  19.403  0.00  0.00    +0.000 C 
ATOM      5  O   UNL     1       0.661  13.995  19.388  0.00  0.00    +0.000 OA
ATOM      6  C   UNL     1      -0.050  12.837  19.329  0.00  0.00    +0.000 A 
ATOM      7  C   UNL     1      -1.419  12.756  19.230  0.00  0.00    +0.000 A 
ATOM      8  C   UNL     1      -1.979  11.479  19.148  0.00  0.00    +0.000 A 
ATOM      9  C   UNL     1      -1.164  10.326  19.193  0.00  0.00    +0.000 A 
ATOM     10  C   UNL     1       0.232  10.422  19.346  0.00  0.00    +0.000 A 
ATOM     11  C   UNL     1       0.752  11.709  19.372  0.00  0.00    +0.000 A 
ATOM     12  O   UNL     1       2.071  12.049  19.393  0.00  0.00    +0.000 OA
BRANCH   4  13
ATOM     13  C   UNL     1       2.707  13.987  18.111  0.00  0.00    +0.000 C 
BRANCH  13  14
ATOM     14  C   UNL     1       4.196  14.282  18.303  0.00  0.00    +0.000 C 
BRANCH  14  16
ATOM     15  C   UNL     1       3.265  16.520  17.693  0.00  0.00    +0.000 C 
ATOM     16  C   UNL     1       4.537  15.722  17.937  0.00  0.00    +0.000 C 
ENDBRANCH  14  16
ENDBRANCH  13  14
ENDBRANCH   4  13
BRANCH   4  17
ATOM     17  C   UNL     1       2.716  13.986  20.697  0.00  0.00    +0.000 C 
BRANCH  17  18
ATOM     18  C   UNL     1       2.150  15.295  21.258  0.00  0.00    +0.000 C 
BRANCH  18  19
ATOM     19  C   UNL     1       3.260  16.236  21.727  0.00  0.00    +0.000 C 
ATOM     20  C   UNL     1       4.601  15.517  21.780  0.00  0.00    +0.000 C 
ENDBRANCH  18  19
ENDBRANCH  17  18
ENDBRANCH   4  17
ENDBRANCH   1  10
BRANCH   2  21
ATOM     21  C   UNL     1       2.674   7.529  18.509  0.00  0.00    +0.000 A 
ATOM     22  C   UNL     1       3.777   7.296  17.682  0.00  0.00    +0.000 A 
ATOM     23  C   UNL     1       4.548   6.133  17.787  0.00  0.00    +0.000 A 
ATOM     24  C   UNL     1       4.337   5.225  18.827  0.00  0.00    +0.000 A 
ATOM     25  C   UNL     1       3.279   5.479  19.712  0.00  0.00    +0.000 A 
ATOM     26  C   UNL     1       2.451   6.613  19.552  0.00  0.00    +0.000 A 
BRANCH  24  27
ATOM     27  C   UNL     1       5.245   4.022  18.931  0.00  0.00    +0.000 C 
BRANCH  27  28
ATOM     28  N   UNL     1       6.558   4.238  18.337  0.00  0.00    +0.000 NA
ATOM     29  H   UNL     1       6.444   4.794  17.490  0.00  0.00    +0.000 HD
ATOM     30  H   UNL     1       6.933   3.340  18.034  0.00  0.00    +0.000 HD
ENDBRANCH  27  28
ENDBRANCH  24  27
ENDBRANCH   2  21
BRANCH   1  31
ATOM     31  C   UNL     1       1.156   8.598  20.811  0.00  0.00    +0.000 C 
BRANCH  31  32
ATOM     32  C   UNL     1       1.264   9.285  22.170  0.00  0.00    +0.000 C 
BRANCH  32  33
ATOM     33  C   UNL     1      -0.067   9.520  22.875  0.00  0.00    +0.000 C 
BRANCH  33  34
ATOM     34  N   UNL     1      -0.300  10.958  22.967  0.00  0.00    +0.000 NA
ATOM     35  H   UNL     1       0.224  11.444  22.240  0.00  0.00    +0.000 HD
ATOM     36  H   UNL     1       0.045  11.304  23.860  0.00  0.00    +0.000 HD
ENDBRANCH  33  34
ENDBRANCH  32  33
ENDBRANCH  31  32
ENDBRANCH   1  31
TORSDOF 14
ENDMDL
MODEL 9
REMARK VINA RESULT:      -6.4      1.140      1.373
REMARK  Name = 
REMARK  16 active torsions:
REMARK  status: ('A' for Active; 'I' for Inactive)
REMARK    1  A    between atoms: C_1  and  C_2
REMARK    2  A    between atoms: C_2  and  C_3
REMARK    3  A    between atoms: C_3  and  C_4
REMARK    4  A    between atoms: C_4  and  C_5
REMARK    5  A    between atoms: C_5  and  C_6
REMARK    6  A    between atoms: C_6  and  C_7
REMARK    7  A    between atoms: C_7  and  C_8
REMARK    8  A    between atoms: C_8  and  C_9
REMARK    9  A    between atoms: C_15  and  N_16
REMARK   10  A    between atoms: N_16  and  C_17
REMARK   11  A    between atoms: C_17  and  C_18
REMARK   12  A    between atoms: C_18  and  C_19
REMARK   13  A    between atoms: C_19  and  N_20
REMARK   14  A    between atoms: C_21  and  C_23
REMARK   15  A    between atoms: C_26  and  C_27
REMARK   16  A    between atoms: C_27  and  N_28
REMARK                            x       y       z     vdW  Elec       q    Type
REMARK                         _______ _______ _______ _____ _____    ______ ____
ROOT
ATOM      1  N   UNL     1       2.151   7.336  19.103  0.00  0.00    +0.000 N 
ATOM      2  C   UNL     1       1.908   8.206  17.991  0.00  0.00    +0.000 C 
ATOM      3  O   UNL     1       1.911   7.821  16.825  0.00  0.00    +0.000 OA
ENDROOT
BRANCH   1  10
ATOM      4  C   UNL     1       5.288   5.374  16.798  0.00  0.00    +0.000 C 
ATOM      5  O   UNL     1       4.788   4.019  16.929  0.00  0.00    +0.000 OA
ATOM      6  C   UNL     1       3.717   4.204  17.748  0.00  0.00    +0.000 A 
ATOM      7  C   UNL     1       2.918   3.199  18.238  0.00  0.00    +0.000 A 
ATOM      8  C   UNL     1       1.878   3.569  19.095  0.00  0.00    +0.000 A 
ATOM      9  C   UNL     1       1.653   4.927  19.414  0.00  0.00    +0.000 A 
ATOM     10  C   UNL     1       2.447   5.951  18.864  0.00  0.00    +0.000 A 
ATOM     11  C   UNL     1       3.500   5.534  18.059  0.00  0.00    +0.000 A 
ATOM     12  O   UNL     1       4.466   6.327  17.516  0.00  0.00    +0.000 OA
BRANCH   4  13
ATOM     13  C   UNL     1       6.692   5.411  17.432  0.00  0.00    +0.000 C 
BRANCH  13  14
ATOM     14  C   UNL     1       7.241   6.831  17.576  0.00  0.00    +0.000 C 
BRANCH  14  16
ATOM     15  C   UNL     1       8.018   5.765  19.700  0.00  0.00    +0.000 C 
ATOM     16  C   UNL     1       8.192   6.950  18.763  0.00  0.00    +0.000 C 
ENDBRANCH  14  16
ENDBRANCH  13  14
ENDBRANCH   4  13
BRANCH   4  17
ATOM     17  C   UNL     1       5.271   5.766  15.302  0.00  0.00    +0.000 C 
BRANCH  17  18
ATOM     18  C   UNL     1       6.293   5.014  14.442  0.00  0.00    +0.000 C 
BRANCH  18  19
ATOM     19  C   UNL     1       5.641   3.877  13.654  0.00  0.00    +0.000 C 
ATOM     20  C   UNL     1       6.402   3.598  12.366  0.00  0.00    +0.000 C 
ENDBRANCH  18  19
ENDBRANCH  17  18
ENDBRANCH   4  17
ENDBRANCH   1  10
BRANCH   2  21
ATOM     21  C   UNL     1       1.534   9.663  18.217  0.00  0.00    +0.000 A 
ATOM     22  C   UNL     1       2.458  10.712  18.174  0.00  0.00    +0.000 A 
ATOM     23  C   UNL     1       2.095  12.029  18.474  0.00  0.00    +0.000 A 
ATOM     24  C   UNL     1       0.759  12.375  18.683  0.00  0.00    +0.000 A 
ATOM     25  C   UNL     1      -0.194  11.346  18.660  0.00  0.00    +0.000 A 
ATOM     26  C   UNL     1       0.188  10.004  18.437  0.00  0.00    +0.000 A 
BRANCH  24  27
ATOM     27  C   UNL     1       0.418  13.825  18.936  0.00  0.00    +0.000 C 
BRANCH  27  28
ATOM     28  N   UNL     1      -1.013  14.061  19.090  0.00  0.00    +0.000 NA
ATOM     29  H   UNL     1      -1.151  14.763  19.816  0.00  0.00    +0.000 HD
ATOM     30  H   UNL     1      -1.450  13.208  19.438  0.00  0.00    +0.000 HD
ENDBRANCH  27  28
ENDBRANCH  24  27
ENDBRANCH   2  21
BRANCH   1  31
ATOM     31  C   UNL     1       2.097   7.845  20.481  0.00  0.00    +0.000 C 
BRANCH  31  32
ATOM     32  C   UNL     1       0.847   8.069  21.326  0.00  0.00    +0.000 C 
BRANCH  32  33
ATOM     33  C   UNL     1       0.845   9.361  22.134  0.00  0.00    +0.000 C 
BRANCH  33  34
ATOM     34  N   UNL     1       2.047   9.396  22.962  0.00  0.00    +0.000 NA
ATOM     35  H   UNL     1       2.316   8.449  23.227  0.00  0.00    +0.000 HD
ATOM     36  H   UNL     1       1.854   9.899  23.826  0.00  0.00    +0.000 HD
ENDBRANCH  33  34
ENDBRANCH  32  33
ENDBRANCH  31  32
ENDBRANCH   1  31
TORSDOF 14
ENDMDL
