MODEL 1
REMARK VINA RESULT:      -7.8      0.000      0.000
REMARK  Name = 
REMARK  9 active torsions:
REMARK  status: ('A' for Active; 'I' for Inactive)
REMARK    1  A    between atoms: C_2  and  C_3
REMARK    2  A    between atoms: C_3  and  O_4
REMARK    3  A    between atoms: O_4  and  C_5
REMARK    4  A    between atoms: C_5  and  C_7
REMARK    5  A    between atoms: C_12  and  O_13
REMARK    6  A    between atoms: N_14  and  C_15
REMARK    7  A    between atoms: C_15  and  C_16
REMARK    8  A    between atoms: C_16  and  C_17
REMARK    9  A    between atoms: C_17  and  C_18
REMARK                            x       y       z     vdW  Elec       q    Type
REMARK                         _______ _______ _______ _____ _____    ______ ____
ROOT
ATOM      1  O   UNL     1       6.125   6.228  15.556  0.00  0.00    +0.000 OA
ATOM      2  C   UNL     1       5.765   6.482  16.702  0.00  0.00    +0.000 C 
ATOM      3  N   UNL     1       6.503   7.254  17.577  0.00  0.00    +0.000 N 
ATOM      4  H   UNL     1       6.093   7.467  18.480  0.00  0.00    +0.000 HD
ENDROOT
BRANCH   2   5
ATOM      5  C   UNL     1       4.408   6.042  17.258  0.00  0.00    +0.000 C 
BRANCH   5   6
ATOM      6  O   UNL     1       4.429   5.840  18.673  0.00  0.00    +0.000 OA
BRANCH   6   7
ATOM      7  C   UNL     1       4.510   4.541  19.052  0.00  0.00    +0.000 C 
ATOM      8  O   UNL     1       5.537   3.935  19.316  0.00  0.00    +0.000 OA
BRANCH   7   9
ATOM      9  C   UNL     1       3.163   3.960  19.257  0.00  0.00    +0.000 A 
ATOM     10  C   UNL     1       2.812   2.873  18.441  0.00  0.00    +0.000 A 
ATOM     11  C   UNL     1       1.563   2.265  18.567  0.00  0.00    +0.000 A 
ATOM     12  C   UNL     1       0.651   2.746  19.505  0.00  0.00    +0.000 A 
ATOM     13  C   UNL     1       0.983   3.835  20.312  0.00  0.00    +0.000 A 
ATOM     14  C   UNL     1       2.234   4.446  20.187  0.00  0.00    +0.000 A 
BRANCH  14  15
ATOM     15  O   UNL     1       2.521   5.535  20.960  0.00  0.00    +0.000 OA
ATOM     16  H   UNL     1       1.710   6.046  21.117  0.00  0.00    +0.000 HD
ENDBRANCH  14  15
ENDBRANCH   7   9
ENDBRANCH   6   7
ENDBRANCH   5   6
ENDBRANCH   2   5
BRANCH   3  17
ATOM     17  C   UNL     1       7.802   7.795  17.234  0.00  0.00    +0.000 C 
BRANCH  17  18
ATOM     18  C   UNL     1       8.396   8.617  18.375  0.00  0.00    +0.000 C 
BRANCH  18  19
ATOM     19  C   UNL     1       8.394  10.110  18.036  0.00  0.00    +0.000 C 
BRANCH  19  20
ATOM     20  C   UNL     1       9.562  10.835  18.660  0.00  0.00    +0.000 A 
ATOM     21  C   UNL     1       9.593  11.075  20.041  0.00  0.00    +0.000 A 
ATOM     22  C   UNL     1      10.665  11.761  20.616  0.00  0.00    +0.000 A 
ATOM     23  C   UNL     1      11.713  12.215  19.817  0.00  0.00    +0.000 A 
ATOM     24  C   UNL     1      11.690  11.983  18.443  0.00  0.00    +0.000 A 
ATOM     25  C   UNL     1      10.619  11.297  17.866  0.00  0.00    +0.000 A 
ENDBRANCH  19  20
ENDBRANCH  18  19
ENDBRANCH  17  18
ENDBRANCH   3  17
TORSDOF 9
ENDMDL
MODEL 2
REMARK VINA RESULT:      -7.8      1.043      1.293
REMARK  Name = 
REMARK  9 active torsions:
REMARK  status: ('A' for Active; 'I' for Inactive)
REMARK    1  A    between atoms: C_2  and  C_3
REMARK    2  A    between atoms: C_3  and  O_4
REMARK    3  A    between atoms: O_4  and  C_5
REMARK    4  A    between atoms: C_5  and  C_7
REMARK    5  A    between atoms: C_12  and  O_13
REMARK    6  A    between atoms: N_14  and  C_15
REMARK    7  A    between atoms: C_15  and  C_16
REMARK    8  A    between atoms: C_16  and  C_17
REMARK    9  A    between atoms: C_17  and  C_18
REMARK                            x       y       z     vdW  Elec       q    Type
REMARK                         _______ _______ _______ _____ _____    ______ ____
ROOT
ATOM      1  O   UNL     1       5.259   6.573  17.739  0.00  0.00    +0.000 OA
ATOM      2  C   UNL     1       6.368   6.057  17.850  0.00  0.00    +0.000 C 
ATOM      3  N   UNL     1       7.548   6.771  17.785  0.00  0.00    +0.000 N 
ATOM      4  H   UNL     1       8.413   6.270  17.956  0.00  0.00    +0.000 HD
ENDROOT
BRANCH   2   5
ATOM      5  C   UNL     1       6.560   4.571  18.162  0.00  0.00    +0.000 C 
BRANCH   5   6
ATOM      6  O   UNL     1       5.500   4.030  18.953  0.00  0.00    +0.000 OA
BRANCH   6   7
ATOM      7  C   UNL     1       4.435   3.592  18.239  0.00  0.00    +0.000 C 
ATOM      8  O   UNL     1       4.473   3.126  17.110  0.00  0.00    +0.000 OA
BRANCH   7   9
ATOM      9  C   UNL     1       3.200   3.606  19.057  0.00  0.00    +0.000 A 
ATOM     10  C   UNL     1       2.337   2.508  18.918  0.00  0.00    +0.000 A 
ATOM     11  C   UNL     1       1.153   2.439  19.652  0.00  0.00    +0.000 A 
ATOM     12  C   UNL     1       0.819   3.474  20.525  0.00  0.00    +0.000 A 
ATOM     13  C   UNL     1       1.662   4.578  20.660  0.00  0.00    +0.000 A 
ATOM     14  C   UNL     1       2.849   4.648  19.925  0.00  0.00    +0.000 A 
BRANCH  14  15
ATOM     15  O   UNL     1       3.639   5.756  20.045  0.00  0.00    +0.000 OA
ATOM     16  H   UNL     1       4.548   5.486  20.261  0.00  0.00    +0.000 HD
ENDBRANCH  14  15
ENDBRANCH   7   9
ENDBRANCH   6   7
ENDBRANCH   5   6
ENDBRANCH   2   5
BRANCH   3  17
ATOM     17  C   UNL     1       7.584   8.196  17.530  0.00  0.00    +0.000 C 
BRANCH  17  18
ATOM     18  C   UNL     1       8.613   8.906  18.407  0.00  0.00    +0.000 C 
BRANCH  18  19
ATOM     19  C   UNL     1       8.548  10.423  18.211  0.00  0.00    +0.000 C 
BRANCH  19  20
ATOM     20  C   UNL     1       9.804  11.110  18.690  0.00  0.00    +0.000 A 
ATOM     21  C   UNL     1      10.018  11.326  20.058  0.00  0.00    +0.000 A 
ATOM     22  C   UNL     1      11.171  11.978  20.501  0.00  0.00    +0.000 A 
ATOM     23  C   UNL     1      12.120  12.421  19.580  0.00  0.00    +0.000 A 
ATOM     24  C   UNL     1      11.915  12.212  18.218  0.00  0.00    +0.000 A 
ATOM     25  C   UNL     1      10.762  11.562  17.773  0.00  0.00    +0.000 A 
ENDBRANCH  19  20
ENDBRANCH  18  19
ENDBRANCH  17  18
ENDBRANCH   3  17
TORSDOF 9
ENDMDL
MODEL 3
REMARK VINA RESULT:      -7.7      1.544      2.316
REMARK  Name = 
REMARK  9 active torsions:
REMARK  status: ('A' for Active; 'I' for Inactive)
REMARK    1  A    between atoms: C_2  and  C_3
REMARK    2  A    between atoms: C_3  and  O_4
REMARK    3  A    between atoms: O_4  and  C_5
REMARK    4  A    between atoms: C_5  and  C_7
REMARK    5  A    between atoms: C_12  and  O_13
REMARK    6  A    between atoms: N_14  and  C_15
REMARK    7  A    between atoms: C_15  and  C_16
REMARK    8  A    between atoms: C_16  and  C_17
REMARK    9  A    between atoms: C_17  and  C_18
REMARK                            x       y       z     vdW  Elec       q    Type
REMARK                         _______ _______ _______ _____ _____    ______ ____
ROOT
ATOM      1  O   UNL     1       7.666   5.492  17.390  0.00  0.00    +0.000 OA
ATOM      2  C   UNL     1       6.907   6.363  16.974  0.00  0.00    +0.000 C 
ATOM      3  N   UNL     1       7.115   7.713  17.177  0.00  0.00    +0.000 N 
ATOM      4  H   UNL     1       6.471   8.361  16.739  0.00  0.00    +0.000 HD
ENDROOT
BRANCH   2   5
ATOM      5  C   UNL     1       5.686   6.048  16.106  0.00  0.00    +0.000 C 
BRANCH   5   6
ATOM      6  O   UNL     1       4.907   4.965  16.618  0.00  0.00    +0.000 OA
BRANCH   6   7
ATOM      7  C   UNL     1       3.888   5.342  17.428  0.00  0.00    +0.000 C 
ATOM      8  O   UNL     1       3.460   6.478  17.558  0.00  0.00    +0.000 OA
BRANCH   7   9
ATOM      9  C   UNL     1       3.236   4.165  18.048  0.00  0.00    +0.000 A 
ATOM     10  C   UNL     1       1.835   4.109  17.980  0.00  0.00    +0.000 A 
ATOM     11  C   UNL     1       1.140   3.036  18.537  0.00  0.00    +0.000 A 
ATOM     12  C   UNL     1       1.841   2.014  19.176  0.00  0.00    +0.000 A 
ATOM     13  C   UNL     1       3.233   2.066  19.263  0.00  0.00    +0.000 A 
ATOM     14  C   UNL     1       3.931   3.141  18.705  0.00  0.00    +0.000 A 
BRANCH  14  15
ATOM     15  O   UNL     1       5.290   3.190  18.837  0.00  0.00    +0.000 OA
ATOM     16  H   UNL     1       5.601   4.096  18.671  0.00  0.00    +0.000 HD
ENDBRANCH  14  15
ENDBRANCH   7   9
ENDBRANCH   6   7
ENDBRANCH   5   6
ENDBRANCH   2   5
BRANCH   3  17
ATOM     17  C   UNL     1       8.231   8.222  17.947  0.00  0.00    +0.000 C 
BRANCH  17  18
ATOM     18  C   UNL     1       8.200   9.744  18.056  0.00  0.00    +0.000 C 
BRANCH  18  19
ATOM     19  C   UNL     1       9.375  10.260  18.890  0.00  0.00    +0.000 C 
BRANCH  19  20
ATOM     20  C   UNL     1       9.905  11.575  18.371  0.00  0.00    +0.000 A 
ATOM     21  C   UNL     1      11.162  11.639  17.753  0.00  0.00    +0.000 A 
ATOM     22  C   UNL     1      11.661  12.858  17.289  0.00  0.00    +0.000 A 
ATOM     23  C   UNL     1      10.910  14.023  17.439  0.00  0.00    +0.000 A 
ATOM     24  C   UNL     1       9.660  13.969  18.053  0.00  0.00    +0.000 A 
ATOM     25  C   UNL     1       9.160  12.751  18.519  0.00  0.00    +0.000 A 
ENDBRANCH  19  20
ENDBRANCH  18  19
ENDBRANCH  17  18
ENDBRANCH   3  17
TORSDOF 9
ENDMDL
MODEL 4
REMARK VINA RESULT:      -7.5      4.300      7.780
REMARK  Name = 
REMARK  9 active torsions:
REMARK  status: ('A' for Active; 'I' for Inactive)
REMARK    1  A    between atoms: C_2  and  C_3
REMARK    2  A    between atoms: C_3  and  O_4
REMARK    3  A    between atoms: O_4  and  C_5
REMARK    4  A    between atoms: C_5  and  C_7
REMARK    5  A    between atoms: C_12  and  O_13
REMARK    6  A    between atoms: N_14  and  C_15
REMARK    7  A    between atoms: C_15  and  C_16
REMARK    8  A    between atoms: C_16  and  C_17
REMARK    9  A    between atoms: C_17  and  C_18
REMARK                            x       y       z     vdW  Elec       q    Type
REMARK                         _______ _______ _______ _____ _____    ______ ____
ROOT
ATOM      1  O   UNL     1       5.373   5.074  19.406  0.00  0.00    +0.000 OA
ATOM      2  C   UNL     1       5.966   4.630  18.427  0.00  0.00    +0.000 C 
ATOM      3  N   UNL     1       5.489   3.587  17.658  0.00  0.00    +0.000 N 
ATOM      4  H   UNL     1       6.013   3.333  16.828  0.00  0.00    +0.000 HD
ENDROOT
BRANCH   2   5
ATOM      5  C   UNL     1       7.263   5.246  17.897  0.00  0.00    +0.000 C 
BRANCH   5   6
ATOM      6  O   UNL     1       7.459   5.008  16.501  0.00  0.00    +0.000 OA
BRANCH   6   7
ATOM      7  C   UNL     1       6.510   5.551  15.701  0.00  0.00    +0.000 C 
ATOM      8  O   UNL     1       5.825   6.528  15.965  0.00  0.00    +0.000 OA
BRANCH   7   9
ATOM      9  C   UNL     1       6.494   4.898  14.372  0.00  0.00    +0.000 A 
ATOM     10  C   UNL     1       5.419   4.038  14.103  0.00  0.00    +0.000 A 
ATOM     11  C   UNL     1       5.324   3.382  12.876  0.00  0.00    +0.000 A 
ATOM     12  C   UNL     1       6.311   3.575  11.910  0.00  0.00    +0.000 A 
ATOM     13  C   UNL     1       7.394   4.417  12.172  0.00  0.00    +0.000 A 
ATOM     14  C   UNL     1       7.489   5.075  13.401  0.00  0.00    +0.000 A 
BRANCH  14  15
ATOM     15  O   UNL     1       8.577   5.864  13.650  0.00  0.00    +0.000 OA
ATOM     16  H   UNL     1       8.313   6.617  14.204  0.00  0.00    +0.000 HD
ENDBRANCH  14  15
ENDBRANCH   7   9
ENDBRANCH   6   7
ENDBRANCH   5   6
ENDBRANCH   2   5
BRANCH   3  17
ATOM     17  C   UNL     1       4.261   2.887  17.971  0.00  0.00    +0.000 C 
BRANCH  17  18
ATOM     18  C   UNL     1       3.103   3.345  17.087  0.00  0.00    +0.000 C 
BRANCH  18  19
ATOM     19  C   UNL     1       1.848   3.617  17.922  0.00  0.00    +0.000 C 
BRANCH  19  20
ATOM     20  C   UNL     1       1.942   4.920  18.678  0.00  0.00    +0.000 A 
ATOM     21  C   UNL     1       2.379   6.085  18.034  0.00  0.00    +0.000 A 
ATOM     22  C   UNL     1       2.483   7.287  18.737  0.00  0.00    +0.000 A 
ATOM     23  C   UNL     1       2.153   7.335  20.091  0.00  0.00    +0.000 A 
ATOM     24  C   UNL     1       1.719   6.181  20.741  0.00  0.00    +0.000 A 
ATOM     25  C   UNL     1       1.615   4.978  20.039  0.00  0.00    +0.000 A 
ENDBRANCH  19  20
ENDBRANCH  18  19
ENDBRANCH  17  18
ENDBRANCH   3  17
TORSDOF 9
ENDMDL
MODEL 5
REMARK VINA RESULT:      -7.5      1.090      1.276
REMARK  Name = 
REMARK  9 active torsions:
REMARK  status: ('A' for Active; 'I' for Inactive)
REMARK    1  A    between atoms: C_2  and  C_3
REMARK    2  A    between atoms: C_3  and  O_4
REMARK    3  A    between atoms: O_4  and  C_5
REMARK    4  A    between atoms: C_5  and  C_7
REMARK    5  A    between atoms: C_12  and  O_13
REMARK    6  A    between atoms: N_14  and  C_15
REMARK    7  A    between atoms: C_15  and  C_16
REMARK    8  A    between atoms: C_16  and  C_17
REMARK    9  A    between atoms: C_17  and  C_18
REMARK                            x       y       z     vdW  Elec       q    Type
REMARK                         _______ _______ _______ _____ _____    ______ ____
ROOT
ATOM      1  O   UNL     1       7.472   5.962  15.791  0.00  0.00    +0.000 OA
ATOM      2  C   UNL     1       6.505   6.242  16.495  0.00  0.00    +0.000 C 
ATOM      3  N   UNL     1       6.601   6.973  17.662  0.00  0.00    +0.000 N 
ATOM      4  H   UNL     1       5.740   7.214  18.141  0.00  0.00    +0.000 HD
ENDROOT
BRANCH   2   5
ATOM      5  C   UNL     1       5.069   5.885  16.104  0.00  0.00    +0.000 C 
BRANCH   5   6
ATOM      6  O   UNL     1       4.393   5.132  17.114  0.00  0.00    +0.000 OA
BRANCH   6   7
ATOM      7  C   UNL     1       3.468   5.834  17.812  0.00  0.00    +0.000 C 
ATOM      8  O   UNL     1       3.302   7.044  17.764  0.00  0.00    +0.000 OA
BRANCH   7   9
ATOM      9  C   UNL     1       2.559   4.931  18.554  0.00  0.00    +0.000 A 
ATOM     10  C   UNL     1       2.130   3.775  17.882  0.00  0.00    +0.000 A 
ATOM     11  C   UNL     1       1.273   2.869  18.506  0.00  0.00    +0.000 A 
ATOM     12  C   UNL     1       0.832   3.115  19.805  0.00  0.00    +0.000 A 
ATOM     13  C   UNL     1       1.240   4.268  20.478  0.00  0.00    +0.000 A 
ATOM     14  C   UNL     1       2.099   5.178  19.854  0.00  0.00    +0.000 A 
BRANCH  14  15
ATOM     15  O   UNL     1       2.454   6.318  20.517  0.00  0.00    +0.000 OA
ATOM     16  H   UNL     1       3.299   6.178  20.977  0.00  0.00    +0.000 HD
ENDBRANCH  14  15
ENDBRANCH   7   9
ENDBRANCH   6   7
ENDBRANCH   5   6
ENDBRANCH   2   5
BRANCH   3  17
ATOM     17  C   UNL     1       7.868   7.435  18.190  0.00  0.00    +0.000 C 
BRANCH  17  18
ATOM     18  C   UNL     1       8.387   8.658  17.437  0.00  0.00    +0.000 C 
BRANCH  18  19
ATOM     19  C   UNL     1       8.034   9.950  18.178  0.00  0.00    +0.000 C 
BRANCH  19  20
ATOM     20  C   UNL     1       9.261  10.652  18.710  0.00  0.00    +0.000 A 
ATOM     21  C   UNL     1       9.416  10.864  20.086  0.00  0.00    +0.000 A 
ATOM     22  C   UNL     1      10.542  11.529  20.578  0.00  0.00    +0.000 A 
ATOM     23  C   UNL     1      11.521  11.988  19.698  0.00  0.00    +0.000 A 
ATOM     24  C   UNL     1      11.375  11.783  18.328  0.00  0.00    +0.000 A 
ATOM     25  C   UNL     1      10.249  11.119  17.835  0.00  0.00    +0.000 A 
ENDBRANCH  19  20
ENDBRANCH  18  19
ENDBRANCH  17  18
ENDBRANCH   3  17
TORSDOF 9
ENDMDL
MODEL 6
REMARK VINA RESULT:      -7.4      3.544      7.092
REMARK  Name = 
REMARK  9 active torsions:
REMARK  status: ('A' for Active; 'I' for Inactive)
REMARK    1  A    between atoms: C_2  and  C_3
REMARK    2  A    between atoms: C_3  and  O_4
REMARK    3  A    between atoms: O_4  and  C_5
REMARK    4  A    between atoms: C_5  and  C_7
REMARK    5  A    between atoms: C_12  and  O_13
REMARK    6  A    between atoms: N_14  and  C_15
REMARK    7  A    between atoms: C_15  and  C_16
REMARK    8  A    between atoms: C_16  and  C_17
REMARK    9  A    between atoms: C_17  and  C_18
REMARK                            x       y       z     vdW  Elec       q    Type
REMARK                         _______ _______ _______ _____ _____    ______ ____
ROOT
ATOM      1  O   UNL     1       1.124   3.613  17.634  0.00  0.00    +0.000 OA
ATOM      2  C   UNL     1       2.260   3.353  18.021  0.00  0.00    +0.000 C 
ATOM      3  N   UNL     1       2.594   3.210  19.354  0.00  0.00    +0.000 N 
ATOM      4  H   UNL     1       3.543   2.928  19.574  0.00  0.00    +0.000 HD
ENDROOT
BRANCH   2   5
ATOM      5  C   UNL     1       3.416   3.069  17.059  0.00  0.00    +0.000 C 
BRANCH   5   6
ATOM      6  O   UNL     1       4.105   4.255  16.658  0.00  0.00    +0.000 OA
BRANCH   6   7
ATOM      7  C   UNL     1       5.424   4.077  16.400  0.00  0.00    +0.000 C 
ATOM      8  O   UNL     1       5.898   3.248  15.638  0.00  0.00    +0.000 OA
BRANCH   7   9
ATOM      9  C   UNL     1       6.242   5.124  17.053  0.00  0.00    +0.000 A 
ATOM     10  C   UNL     1       7.065   4.714  18.113  0.00  0.00    +0.000 A 
ATOM     11  C   UNL     1       7.870   5.634  18.784  0.00  0.00    +0.000 A 
ATOM     12  C   UNL     1       7.851   6.976  18.405  0.00  0.00    +0.000 A 
ATOM     13  C   UNL     1       7.025   7.399  17.362  0.00  0.00    +0.000 A 
ATOM     14  C   UNL     1       6.218   6.477  16.689  0.00  0.00    +0.000 A 
BRANCH  14  15
ATOM     15  O   UNL     1       5.390   6.921  15.697  0.00  0.00    +0.000 OA
ATOM     16  H   UNL     1       4.670   6.281  15.564  0.00  0.00    +0.000 HD
ENDBRANCH  14  15
ENDBRANCH   7   9
ENDBRANCH   6   7
ENDBRANCH   5   6
ENDBRANCH   2   5
BRANCH   3  17
ATOM     17  C   UNL     1       1.637   3.406  20.423  0.00  0.00    +0.000 C 
BRANCH  17  18
ATOM     18  C   UNL     1       1.412   4.886  20.722  0.00  0.00    +0.000 C 
BRANCH  18  19
ATOM     19  C   UNL     1       2.671   5.705  20.425  0.00  0.00    +0.000 C 
BRANCH  19  20
ATOM     20  C   UNL     1       2.365   6.943  19.617  0.00  0.00    +0.000 A 
ATOM     21  C   UNL     1       2.850   7.076  18.309  0.00  0.00    +0.000 A 
ATOM     22  C   UNL     1       2.582   8.229  17.568  0.00  0.00    +0.000 A 
ATOM     23  C   UNL     1       1.828   9.260  18.128  0.00  0.00    +0.000 A 
ATOM     24  C   UNL     1       1.343   9.137  19.428  0.00  0.00    +0.000 A 
ATOM     25  C   UNL     1       1.611   7.985  20.171  0.00  0.00    +0.000 A 
ENDBRANCH  19  20
ENDBRANCH  18  19
ENDBRANCH  17  18
ENDBRANCH   3  17
TORSDOF 9
ENDMDL
MODEL 7
REMARK VINA RESULT:      -7.4      1.628      2.157
REMARK  Name = 
REMARK  9 active torsions:
REMARK  status: ('A' for Active; 'I' for Inactive)
REMARK    1  A    between atoms: C_2  and  C_3
REMARK    2  A    between atoms: C_3  and  O_4
REMARK    3  A    between atoms: O_4  and  C_5
REMARK    4  A    between atoms: C_5  and  C_7
REMARK    5  A    between atoms: C_12  and  O_13
REMARK    6  A    between atoms: N_14  and  C_15
REMARK    7  A    between atoms: C_15  and  C_16
REMARK    8  A    between atoms: C_16  and  C_17
REMARK    9  A    between atoms: C_17  and  C_18
REMARK                            x       y       z     vdW  Elec       q    Type
REMARK                         _______ _______ _______ _____ _____    ______ ____
ROOT
ATOM      1  O   UNL     1       7.457   5.415  17.979  0.00  0.00    +0.000 OA
ATOM      2  C   UNL     1       7.019   6.284  17.231  0.00  0.00    +0.000 C 
ATOM      3  N   UNL     1       7.391   7.612  17.309  0.00  0.00    +0.000 N 
ATOM      4  H   UNL     1       7.029   8.246  16.606  0.00  0.00    +0.000 HD
ENDROOT
BRANCH   2   5
ATOM      5  C   UNL     1       6.075   5.974  16.067  0.00  0.00    +0.000 C 
BRANCH   5   6
ATOM      6  O   UNL     1       4.733   5.726  16.495  0.00  0.00    +0.000 OA
BRANCH   6   7
ATOM      7  C   UNL     1       4.499   4.453  16.895  0.00  0.00    +0.000 C 
ATOM      8  O   UNL     1       4.948   3.444  16.372  0.00  0.00    +0.000 OA
BRANCH   7   9
ATOM      9  C   UNL     1       3.733   4.424  18.162  0.00  0.00    +0.000 A 
ATOM     10  C   UNL     1       2.711   5.375  18.304  0.00  0.00    +0.000 A 
ATOM     11  C   UNL     1       1.938   5.418  19.465  0.00  0.00    +0.000 A 
ATOM     12  C   UNL     1       2.189   4.516  20.497  0.00  0.00    +0.000 A 
ATOM     13  C   UNL     1       3.213   3.575  20.373  0.00  0.00    +0.000 A 
ATOM     14  C   UNL     1       3.987   3.530  19.210  0.00  0.00    +0.000 A 
BRANCH  14  15
ATOM     15  O   UNL     1       5.008   2.626  19.128  0.00  0.00    +0.000 OA
ATOM     16  H   UNL     1       5.852   3.096  19.019  0.00  0.00    +0.000 HD
ENDBRANCH  14  15
ENDBRANCH   7   9
ENDBRANCH   6   7
ENDBRANCH   5   6
ENDBRANCH   2   5
BRANCH   3  17
ATOM     17  C   UNL     1       8.301   8.108  18.321  0.00  0.00    +0.000 C 
BRANCH  17  18
ATOM     18  C   UNL     1       8.583   9.599  18.151  0.00  0.00    +0.000 C 
BRANCH  18  19
ATOM     19  C   UNL     1       9.338  10.157  19.361  0.00  0.00    +0.000 C 
BRANCH  19  20
ATOM     20  C   UNL     1      10.311  11.243  18.970  0.00  0.00    +0.000 A 
ATOM     21  C   UNL     1      11.198  11.776  19.915  0.00  0.00    +0.000 A 
ATOM     22  C   UNL     1      12.085  12.793  19.559  0.00  0.00    +0.000 A 
ATOM     23  C   UNL     1      12.093  13.289  18.256  0.00  0.00    +0.000 A 
ATOM     24  C   UNL     1      11.214  12.767  17.310  0.00  0.00    +0.000 A 
ATOM     25  C   UNL     1      10.325  11.750  17.665  0.00  0.00    +0.000 A 
ENDBRANCH  19  20
ENDBRANCH  18  19
ENDBRANCH  17  18
ENDBRANCH   3  17
TORSDOF 9
ENDMDL
MODEL 8
REMARK VINA RESULT:      -7.4      1.276      1.730
REMARK  Name = 
REMARK  9 active torsions:
REMARK  status: ('A' for Active; 'I' for Inactive)
REMARK    1  A    between atoms: C_2  and  C_3
REMARK    2  A    between atoms: C_3  and  O_4
REMARK    3  A    between atoms: O_4  and  C_5
REMARK    4  A    between atoms: C_5  and  C_7
REMARK    5  A    between atoms: C_12  and  O_13
REMARK    6  A    between atoms: N_14  and  C_15
REMARK    7  A    between atoms: C_15  and  C_16
REMARK    8  A    between atoms: C_16  and  C_17
REMARK    9  A    between atoms: C_17  and  C_18
REMARK                            x       y       z     vdW  Elec       q    Type
REMARK                         _______ _______ _______ _____ _____    ______ ____
ROOT
ATOM      1  O   UNL     1       6.203   6.674  16.001  0.00  0.00    +0.000 OA
ATOM      2  C   UNL     1       6.353   6.468  17.202  0.00  0.00    +0.000 C 
ATOM      3  N   UNL     1       7.273   7.145  17.979  0.00  0.00    +0.000 N 
ATOM      4  H   UNL     1       7.278   6.956  18.976  0.00  0.00    +0.000 HD
ENDROOT
BRANCH   2   5
ATOM      5  C   UNL     1       5.471   5.497  17.990  0.00  0.00    +0.000 C 
BRANCH   5   6
ATOM      6  O   UNL     1       4.204   5.271  17.369  0.00  0.00    +0.000 OA
BRANCH   6   7
ATOM      7  C   UNL     1       3.161   5.875  17.987  0.00  0.00    +0.000 C 
ATOM      8  O   UNL     1       2.850   7.052  17.881  0.00  0.00    +0.000 OA
BRANCH   7   9
ATOM      9  C   UNL     1       2.327   4.890  18.713  0.00  0.00    +0.000 A 
ATOM     10  C   UNL     1       1.850   3.797  17.973  0.00  0.00    +0.000 A 
ATOM     11  C   UNL     1       1.059   2.821  18.578  0.00  0.00    +0.000 A 
ATOM     12  C   UNL     1       0.731   2.935  19.928  0.00  0.00    +0.000 A 
ATOM     13  C   UNL     1       1.187   4.025  20.671  0.00  0.00    +0.000 A 
ATOM     14  C   UNL     1       1.980   5.004  20.066  0.00  0.00    +0.000 A 
BRANCH  14  15
ATOM     15  O   UNL     1       2.383   6.081  20.804  0.00  0.00    +0.000 OA
ATOM     16  H   UNL     1       1.608   6.507  21.207  0.00  0.00    +0.000 HD
ENDBRANCH  14  15
ENDBRANCH   7   9
ENDBRANCH   6   7
ENDBRANCH   5   6
ENDBRANCH   2   5
BRANCH   3  17
ATOM     17  C   UNL     1       8.182   8.129  17.432  0.00  0.00    +0.000 C 
BRANCH  17  18
ATOM     18  C   UNL     1       7.974   9.506  18.057  0.00  0.00    +0.000 C 
BRANCH  18  19
ATOM     19  C   UNL     1       9.210   9.943  18.848  0.00  0.00    +0.000 C 
BRANCH  19  20
ATOM     20  C   UNL     1       9.770  11.252  18.347  0.00  0.00    +0.000 A 
ATOM     21  C   UNL     1       8.913  12.300  17.983  0.00  0.00    +0.000 A 
ATOM     22  C   UNL     1       9.430  13.505  17.503  0.00  0.00    +0.000 A 
ATOM     23  C   UNL     1      10.808  13.673  17.379  0.00  0.00    +0.000 A 
ATOM     24  C   UNL     1      11.669  12.637  17.735  0.00  0.00    +0.000 A 
ATOM     25  C   UNL     1      11.153  11.431  18.216  0.00  0.00    +0.000 A 
ENDBRANCH  19  20
ENDBRANCH  18  19
ENDBRANCH  17  18
ENDBRANCH   3  17
TORSDOF 9
ENDMDL
MODEL 9
REMARK VINA RESULT:      -7.4      4.687      7.765
REMARK  Name = 
REMARK  9 active torsions:
REMARK  status: ('A' for Active; 'I' for Inactive)
REMARK    1  A    between atoms: C_2  and  C_3
REMARK    2  A    between atoms: C_3  and  O_4
REMARK    3  A    between atoms: O_4  and  C_5
REMARK    4  A    between atoms: C_5  and  C_7
REMARK    5  A    between atoms: C_12  and  O_13
REMARK    6  A    between atoms: N_14  and  C_15
REMARK    7  A    between atoms: C_15  and  C_16
REMARK    8  A    between atoms: C_16  and  C_17
REMARK    9  A    between atoms: C_17  and  C_18
REMARK                            x       y       z     vdW  Elec       q    Type
REMARK                         _______ _______ _______ _____ _____    ______ ____
ROOT
ATOM      1  O   UNL     1       5.928   5.530  18.930  0.00  0.00    +0.000 OA
ATOM      2  C   UNL     1       6.159   4.526  18.262  0.00  0.00    +0.000 C 
ATOM      3  N   UNL     1       5.409   3.370  18.344  0.00  0.00    +0.000 N 
ATOM      4  H   UNL     1       5.633   2.616  17.703  0.00  0.00    +0.000 HD
ENDROOT
BRANCH   2   5
ATOM      5  C   UNL     1       7.256   4.479  17.195  0.00  0.00    +0.000 C 
BRANCH   5   6
ATOM      6  O   UNL     1       7.322   5.676  16.416  0.00  0.00    +0.000 OA
BRANCH   6   7
ATOM      7  C   UNL     1       6.256   5.875  15.603  0.00  0.00    +0.000 C 
ATOM      8  O   UNL     1       5.379   6.711  15.764  0.00  0.00    +0.000 OA
BRANCH   7   9
ATOM      9  C   UNL     1       6.350   5.040  14.383  0.00  0.00    +0.000 A 
ATOM     10  C   UNL     1       5.272   4.180  14.121  0.00  0.00    +0.000 A 
ATOM     11  C   UNL     1       5.277   3.359  12.994  0.00  0.00    +0.000 A 
ATOM     12  C   UNL     1       6.367   3.384  12.124  0.00  0.00    +0.000 A 
ATOM     13  C   UNL     1       7.451   4.224  12.383  0.00  0.00    +0.000 A 
ATOM     14  C   UNL     1       7.447   5.048  13.512  0.00  0.00    +0.000 A 
BRANCH  14  15
ATOM     15  O   UNL     1       8.537   5.833  13.765  0.00  0.00    +0.000 OA
ATOM     16  H   UNL     1       8.921   6.136  12.926  0.00  0.00    +0.000 HD
ENDBRANCH  14  15
ENDBRANCH   7   9
ENDBRANCH   6   7
ENDBRANCH   5   6
ENDBRANCH   2   5
BRANCH   3  17
ATOM     17  C   UNL     1       4.306   3.221  19.269  0.00  0.00    +0.000 C 
BRANCH  17  18
ATOM     18  C   UNL     1       3.218   2.303  18.715  0.00  0.00    +0.000 C 
BRANCH  18  19
ATOM     19  C   UNL     1       1.915   3.072  18.483  0.00  0.00    +0.000 C 
BRANCH  19  20
ATOM     20  C   UNL     1       2.022   4.513  18.920  0.00  0.00    +0.000 A 
ATOM     21  C   UNL     1       1.689   4.886  20.229  0.00  0.00    +0.000 A 
ATOM     22  C   UNL     1       1.770   6.221  20.629  0.00  0.00    +0.000 A 
ATOM     23  C   UNL     1       2.185   7.197  19.723  0.00  0.00    +0.000 A 
ATOM     24  C   UNL     1       2.517   6.837  18.419  0.00  0.00    +0.000 A 
ATOM     25  C   UNL     1       2.435   5.502  18.017  0.00  0.00    +0.000 A 
ENDBRANCH  19  20
ENDBRANCH  18  19
ENDBRANCH  17  18
ENDBRANCH   3  17
TORSDOF 9
ENDMDL
