MODEL 1
REMARK VINA RESULT:      -7.9      0.000      0.000
REMARK  Name = 
REMARK  5 active torsions:
REMARK  status: ('A' for Active; 'I' for Inactive)
REMARK    1  A    between atoms: C_1  and  N_2
REMARK    2  A    between atoms: N_2  and  C_3
REMARK    3  A    between atoms: C_6  and  C_7
REMARK    4  A    between atoms: C_12  and  O_13
REMARK    5  A    between atoms: O_13  and  C_14
REMARK                            x       y       z     vdW  Elec       q    Type
REMARK                         _______ _______ _______ _____ _____    ______ ____
ROOT
ATOM      1  C   UNL     1       3.793   4.369  16.999  0.00  0.00    +0.000 C 
ATOM      2  C   UNL     1       4.351   5.798  17.120  0.00  0.00    +0.000 C 
ATOM      3  C   UNL     1       4.565   6.256  18.561  0.00  0.00    +0.000 C 
ATOM      4  C   UNL     1       3.296   6.122  19.420  0.00  0.00    +0.000 C 
ATOM      5  C   UNL     1       2.561   4.806  19.205  0.00  0.00    +0.000 A 
ATOM      6  C   UNL     1       1.617   4.397  20.167  0.00  0.00    +0.000 A 
ATOM      7  C   UNL     1       0.828   3.267  19.961  0.00  0.00    +0.000 A 
ATOM      8  C   UNL     1       0.961   2.534  18.787  0.00  0.00    +0.000 A 
ATOM      9  C   UNL     1       1.908   2.912  17.837  0.00  0.00    +0.000 A 
ATOM     10  C   UNL     1       2.735   4.034  18.040  0.00  0.00    +0.000 A 
ENDROOT
BRANCH   4  11
ATOM     11  C   UNL     1       2.407   7.351  19.226  0.00  0.00    +0.000 A 
ATOM     12  C   UNL     1       2.212   7.938  17.965  0.00  0.00    +0.000 A 
ATOM     13  C   UNL     1       1.457   9.102  17.834  0.00  0.00    +0.000 A 
ATOM     14  C   UNL     1       0.891   9.694  18.957  0.00  0.00    +0.000 A 
ATOM     15  F   UNL     1       0.197  10.827  18.773  0.00  0.00    +0.000 F 
ATOM     16  C   UNL     1       1.049   9.127  20.224  0.00  0.00    +0.000 A 
ATOM     17  C   UNL     1       1.812   7.959  20.345  0.00  0.00    +0.000 A 
BRANCH  16  18
ATOM     18  O   UNL     1       0.540   9.590  21.407  0.00  0.00    +0.000 OA
ATOM     19  C   UNL     1      -0.455   8.791  22.036  0.00  0.00    +0.000 C 
ENDBRANCH  16  18
ENDBRANCH   4  11
BRANCH   1  21
ATOM     20  C   UNL     1       5.945   3.620  16.014  0.00  0.00    +0.000 C 
ATOM     21  N   UNL     1       4.834   3.328  16.905  0.00  0.00    +0.000 NA
ATOM     22  H   UNL     1       5.207   3.163  17.839  0.00  0.00    +0.000 HD
ENDBRANCH   1  21
TORSDOF 3
ENDMDL
MODEL 2
REMARK VINA RESULT:      -7.8      1.709      3.542
REMARK  Name = 
REMARK  5 active torsions:
REMARK  status: ('A' for Active; 'I' for Inactive)
REMARK    1  A    between atoms: C_1  and  N_2
REMARK    2  A    between atoms: N_2  and  C_3
REMARK    3  A    between atoms: C_6  and  C_7
REMARK    4  A    between atoms: C_12  and  O_13
REMARK    5  A    between atoms: O_13  and  C_14
REMARK                            x       y       z     vdW  Elec       q    Type
REMARK                         _______ _______ _______ _____ _____    ______ ____
ROOT
ATOM      1  C   UNL     1       4.689   4.254  19.709  0.00  0.00    +0.000 C 
ATOM      2  C   UNL     1       3.158   4.396  19.644  0.00  0.00    +0.000 C 
ATOM      3  C   UNL     1       2.632   4.771  18.260  0.00  0.00    +0.000 C 
ATOM      4  C   UNL     1       3.293   6.043  17.701  0.00  0.00    +0.000 C 
ATOM      5  C   UNL     1       4.801   6.078  17.910  0.00  0.00    +0.000 A 
ATOM      6  C   UNL     1       5.567   6.978  17.144  0.00  0.00    +0.000 A 
ATOM      7  C   UNL     1       6.930   7.141  17.380  0.00  0.00    +0.000 A 
ATOM      8  C   UNL     1       7.549   6.416  18.393  0.00  0.00    +0.000 A 
ATOM      9  C   UNL     1       6.809   5.504  19.144  0.00  0.00    +0.000 A 
ATOM     10  C   UNL     1       5.436   5.304  18.901  0.00  0.00    +0.000 A 
ENDROOT
BRANCH   4  11
ATOM     11  C   UNL     1       2.577   7.280  18.243  0.00  0.00    +0.000 A 
ATOM     12  C   UNL     1       2.398   8.437  17.467  0.00  0.00    +0.000 A 
ATOM     13  C   UNL     1       1.811   9.575  18.016  0.00  0.00    +0.000 A 
ATOM     14  C   UNL     1       1.395   9.572  19.343  0.00  0.00    +0.000 A 
ATOM     15  F   UNL     1       0.861  10.705  19.823  0.00  0.00    +0.000 F 
ATOM     16  C   UNL     1       1.541   8.433  20.139  0.00  0.00    +0.000 A 
ATOM     17  C   UNL     1       2.136   7.296  19.577  0.00  0.00    +0.000 A 
BRANCH  16  18
ATOM     18  O   UNL     1       1.168   8.285  21.446  0.00  0.00    +0.000 OA
ATOM     19  C   UNL     1      -0.200   8.519  21.756  0.00  0.00    +0.000 C 
ENDBRANCH  16  18
ENDBRANCH   4  11
BRANCH   1  21
ATOM     20  C   UNL     1       4.496   1.819  20.149  0.00  0.00    +0.000 C 
ATOM     21  N   UNL     1       5.174   2.887  19.434  0.00  0.00    +0.000 NA
ATOM     22  H   UNL     1       5.086   2.712  18.435  0.00  0.00    +0.000 HD
ENDBRANCH   1  21
TORSDOF 3
ENDMDL
MODEL 3
REMARK VINA RESULT:      -7.8      3.708      6.056
REMARK  Name = 
REMARK  5 active torsions:
REMARK  status: ('A' for Active; 'I' for Inactive)
REMARK    1  A    between atoms: C_1  and  N_2
REMARK    2  A    between atoms: N_2  and  C_3
REMARK    3  A    between atoms: C_6  and  C_7
REMARK    4  A    between atoms: C_12  and  O_13
REMARK    5  A    between atoms: O_13  and  C_14
REMARK                            x       y       z     vdW  Elec       q    Type
REMARK                         _______ _______ _______ _____ _____    ______ ____
ROOT
ATOM      1  C   UNL     1       1.925   6.421  20.493  0.00  0.00    +0.000 C 
ATOM      2  C   UNL     1       2.885   7.267  19.638  0.00  0.00    +0.000 C 
ATOM      3  C   UNL     1       2.688   7.091  18.134  0.00  0.00    +0.000 C 
ATOM      4  C   UNL     1       2.765   5.619  17.694  0.00  0.00    +0.000 C 
ATOM      5  C   UNL     1       2.003   4.676  18.615  0.00  0.00    +0.000 A 
ATOM      6  C   UNL     1       1.684   3.387  18.146  0.00  0.00    +0.000 A 
ATOM      7  C   UNL     1       1.098   2.442  18.986  0.00  0.00    +0.000 A 
ATOM      8  C   UNL     1       0.832   2.766  20.311  0.00  0.00    +0.000 A 
ATOM      9  C   UNL     1       1.120   4.045  20.785  0.00  0.00    +0.000 A 
ATOM     10  C   UNL     1       1.686   5.023  19.943  0.00  0.00    +0.000 A 
ENDROOT
BRANCH   4  11
ATOM     11  C   UNL     1       4.226   5.216  17.489  0.00  0.00    +0.000 A 
ATOM     12  C   UNL     1       5.021   4.734  18.541  0.00  0.00    +0.000 A 
ATOM     13  C   UNL     1       6.369   4.448  18.338  0.00  0.00    +0.000 A 
ATOM     14  C   UNL     1       6.940   4.639  17.085  0.00  0.00    +0.000 A 
ATOM     15  F   UNL     1       8.247   4.372  16.956  0.00  0.00    +0.000 F 
ATOM     16  C   UNL     1       6.175   5.100  16.010  0.00  0.00    +0.000 A 
ATOM     17  C   UNL     1       4.821   5.387  16.227  0.00  0.00    +0.000 A 
BRANCH  16  18
ATOM     18  O   UNL     1       6.597   5.320  14.728  0.00  0.00    +0.000 OA
ATOM     19  C   UNL     1       6.516   4.223  13.826  0.00  0.00    +0.000 C 
ENDBRANCH  16  18
ENDBRANCH   4  11
BRANCH   1  21
ATOM     20  C   UNL     1       0.805   8.458  21.362  0.00  0.00    +0.000 C 
ATOM     21  N   UNL     1       0.666   7.110  20.836  0.00  0.00    +0.000 NA
ATOM     22  H   UNL     1       0.085   7.150  20.000  0.00  0.00    +0.000 HD
ENDBRANCH   1  21
TORSDOF 3
ENDMDL
MODEL 4
REMARK VINA RESULT:      -7.7      3.449      5.610
REMARK  Name = 
REMARK  5 active torsions:
REMARK  status: ('A' for Active; 'I' for Inactive)
REMARK    1  A    between atoms: C_1  and  N_2
REMARK    2  A    between atoms: N_2  and  C_3
REMARK    3  A    between atoms: C_6  and  C_7
REMARK    4  A    between atoms: C_12  and  O_13
REMARK    5  A    between atoms: O_13  and  C_14
REMARK                            x       y       z     vdW  Elec       q    Type
REMARK                         _______ _______ _______ _____ _____    ______ ____
ROOT
ATOM      1  C   UNL     1       2.090   6.441  20.563  0.00  0.00    +0.000 C 
ATOM      2  C   UNL     1       2.763   7.315  19.490  0.00  0.00    +0.000 C 
ATOM      3  C   UNL     1       2.257   7.049  18.073  0.00  0.00    +0.000 C 
ATOM      4  C   UNL     1       2.364   5.567  17.675  0.00  0.00    +0.000 C 
ATOM      5  C   UNL     1       1.906   4.616  18.772  0.00  0.00    +0.000 A 
ATOM      6  C   UNL     1       1.604   3.284  18.426  0.00  0.00    +0.000 A 
ATOM      7  C   UNL     1       1.300   2.340  19.405  0.00  0.00    +0.000 A 
ATOM      8  C   UNL     1       1.304   2.709  20.746  0.00  0.00    +0.000 A 
ATOM      9  C   UNL     1       1.577   4.028  21.102  0.00  0.00    +0.000 A 
ATOM     10  C   UNL     1       1.858   5.003  20.125  0.00  0.00    +0.000 A 
ENDROOT
BRANCH   4  11
ATOM     11  C   UNL     1       3.773   5.268  17.163  0.00  0.00    +0.000 A 
ATOM     12  C   UNL     1       4.192   3.964  16.853  0.00  0.00    +0.000 A 
ATOM     13  C   UNL     1       5.506   3.715  16.463  0.00  0.00    +0.000 A 
ATOM     14  C   UNL     1       6.417   4.762  16.378  0.00  0.00    +0.000 A 
ATOM     15  F   UNL     1       7.674   4.459  16.023  0.00  0.00    +0.000 F 
ATOM     16  C   UNL     1       6.031   6.075  16.662  0.00  0.00    +0.000 A 
ATOM     17  C   UNL     1       4.708   6.312  17.056  0.00  0.00    +0.000 A 
BRANCH  16  18
ATOM     18  O   UNL     1       6.811   7.197  16.608  0.00  0.00    +0.000 OA
ATOM     19  C   UNL     1       7.660   7.444  17.723  0.00  0.00    +0.000 C 
ENDBRANCH  16  18
ENDBRANCH   4  11
BRANCH   1  21
ATOM     20  C   UNL     1       0.905   8.494  21.300  0.00  0.00    +0.000 C 
ATOM     21  N   UNL     1       0.882   7.048  21.155  0.00  0.00    +0.000 NA
ATOM     22  H   UNL     1       0.081   6.796  20.577  0.00  0.00    +0.000 HD
ENDBRANCH   1  21
TORSDOF 3
ENDMDL
MODEL 5
REMARK VINA RESULT:      -7.7      1.743      3.690
REMARK  Name = 
REMARK  5 active torsions:
REMARK  status: ('A' for Active; 'I' for Inactive)
REMARK    1  A    between atoms: C_1  and  N_2
REMARK    2  A    between atoms: N_2  and  C_3
REMARK    3  A    between atoms: C_6  and  C_7
REMARK    4  A    between atoms: C_12  and  O_13
REMARK    5  A    between atoms: O_13  and  C_14
REMARK                            x       y       z     vdW  Elec       q    Type
REMARK                         _______ _______ _______ _____ _____    ______ ____
ROOT
ATOM      1  C   UNL     1       4.228   3.791  19.104  0.00  0.00    +0.000 C 
ATOM      2  C   UNL     1       2.717   4.057  19.205  0.00  0.00    +0.000 C 
ATOM      3  C   UNL     1       2.146   4.827  18.015  0.00  0.00    +0.000 C 
ATOM      4  C   UNL     1       2.888   6.148  17.754  0.00  0.00    +0.000 C 
ATOM      5  C   UNL     1       4.402   6.015  17.841  0.00  0.00    +0.000 A 
ATOM      6  C   UNL     1       5.202   7.027  17.275  0.00  0.00    +0.000 A 
ATOM      7  C   UNL     1       6.587   7.019  17.432  0.00  0.00    +0.000 A 
ATOM      8  C   UNL     1       7.194   6.006  18.166  0.00  0.00    +0.000 A 
ATOM      9  C   UNL     1       6.419   4.985  18.712  0.00  0.00    +0.000 A 
ATOM     10  C   UNL     1       5.021   4.959  18.539  0.00  0.00    +0.000 A 
ENDROOT
BRANCH   4  11
ATOM     11  C   UNL     1       2.325   7.246  18.657  0.00  0.00    +0.000 A 
ATOM     12  C   UNL     1       2.095   7.040  20.027  0.00  0.00    +0.000 A 
ATOM     13  C   UNL     1       1.509   8.036  20.805  0.00  0.00    +0.000 A 
ATOM     14  C   UNL     1       1.146   9.247  20.228  0.00  0.00    +0.000 A 
ATOM     15  F   UNL     1       0.563  10.158  21.021  0.00  0.00    +0.000 F 
ATOM     16  C   UNL     1       1.377   9.494  18.872  0.00  0.00    +0.000 A 
ATOM     17  C   UNL     1       1.963   8.484  18.098  0.00  0.00    +0.000 A 
BRANCH  16  18
ATOM     18  O   UNL     1       1.085  10.636  18.178  0.00  0.00    +0.000 OA
ATOM     19  C   UNL     1       1.833  11.800  18.510  0.00  0.00    +0.000 C 
ENDBRANCH  16  18
ENDBRANCH   4  11
BRANCH   1  21
ATOM     20  C   UNL     1       3.531   1.494  18.469  0.00  0.00    +0.000 C 
ATOM     21  N   UNL     1       4.566   2.515  18.444  0.00  0.00    +0.000 NA
ATOM     22  H   UNL     1       4.801   2.710  17.472  0.00  0.00    +0.000 HD
ENDBRANCH   1  21
TORSDOF 3
ENDMDL
MODEL 6
REMARK VINA RESULT:      -7.7      3.559      5.669
REMARK  Name = 
REMARK  5 active torsions:
REMARK  status: ('A' for Active; 'I' for Inactive)
REMARK    1  A    between atoms: C_1  and  N_2
REMARK    2  A    between atoms: N_2  and  C_3
REMARK    3  A    between atoms: C_6  and  C_7
REMARK    4  A    between atoms: C_12  and  O_13
REMARK    5  A    between atoms: O_13  and  C_14
REMARK                            x       y       z     vdW  Elec       q    Type
REMARK                         _______ _______ _______ _____ _____    ______ ____
ROOT
ATOM      1  C   UNL     1       1.980   6.390  20.571  0.00  0.00    +0.000 C 
ATOM      2  C   UNL     1       2.731   7.235  19.528  0.00  0.00    +0.000 C 
ATOM      3  C   UNL     1       2.385   6.879  18.083  0.00  0.00    +0.000 C 
ATOM      4  C   UNL     1       2.582   5.385  17.777  0.00  0.00    +0.000 C 
ATOM      5  C   UNL     1       2.045   4.472  18.871  0.00  0.00    +0.000 A 
ATOM      6  C   UNL     1       1.826   3.114  18.568  0.00  0.00    +0.000 A 
ATOM      7  C   UNL     1       1.454   2.209  19.560  0.00  0.00    +0.000 A 
ATOM      8  C   UNL     1       1.305   2.644  20.873  0.00  0.00    +0.000 A 
ATOM      9  C   UNL     1       1.495   3.988  21.184  0.00  0.00    +0.000 A 
ATOM     10  C   UNL     1       1.843   4.924  20.190  0.00  0.00    +0.000 A 
ENDROOT
BRANCH   4  11
ATOM     11  C   UNL     1       4.047   5.116  17.430  0.00  0.00    +0.000 A 
ATOM     12  C   UNL     1       4.460   4.816  16.122  0.00  0.00    +0.000 A 
ATOM     13  C   UNL     1       5.790   4.500  15.852  0.00  0.00    +0.000 A 
ATOM     14  C   UNL     1       6.722   4.478  16.883  0.00  0.00    +0.000 A 
ATOM     15  F   UNL     1       7.981   4.142  16.568  0.00  0.00    +0.000 F 
ATOM     16  C   UNL     1       6.351   4.789  18.194  0.00  0.00    +0.000 A 
ATOM     17  C   UNL     1       5.010   5.102  18.453  0.00  0.00    +0.000 A 
BRANCH  16  18
ATOM     18  O   UNL     1       7.159   4.820  19.297  0.00  0.00    +0.000 OA
ATOM     19  C   UNL     1       8.066   5.911  19.399  0.00  0.00    +0.000 C 
ENDBRANCH  16  18
ENDBRANCH   4  11
BRANCH   1  21
ATOM     20  C   UNL     1       0.708   8.409  21.256  0.00  0.00    +0.000 C 
ATOM     21  N   UNL     1       0.696   6.978  21.003  0.00  0.00    +0.000 NA
ATOM     22  H   UNL     1      -0.001   6.784  20.286  0.00  0.00    +0.000 HD
ENDBRANCH   1  21
TORSDOF 3
ENDMDL
MODEL 7
REMARK VINA RESULT:      -7.0      1.148      1.916
REMARK  Name = 
REMARK  5 active torsions:
REMARK  status: ('A' for Active; 'I' for Inactive)
REMARK    1  A    between atoms: C_1  and  N_2
REMARK    2  A    between atoms: N_2  and  C_3
REMARK    3  A    between atoms: C_6  and  C_7
REMARK    4  A    between atoms: C_12  and  O_13
REMARK    5  A    between atoms: O_13  and  C_14
REMARK                            x       y       z     vdW  Elec       q    Type
REMARK                         _______ _______ _______ _____ _____    ______ ____
ROOT
ATOM      1  C   UNL     1       3.726   4.433  17.201  0.00  0.00    +0.000 C 
ATOM      2  C   UNL     1       4.329   5.801  17.563  0.00  0.00    +0.000 C 
ATOM      3  C   UNL     1       4.552   5.999  19.061  0.00  0.00    +0.000 C 
ATOM      4  C   UNL     1       3.277   5.762  19.887  0.00  0.00    +0.000 C 
ATOM      5  C   UNL     1       2.501   4.526  19.451  0.00  0.00    +0.000 A 
ATOM      6  C   UNL     1       1.540   3.989  20.331  0.00  0.00    +0.000 A 
ATOM      7  C   UNL     1       0.716   2.936  19.937  0.00  0.00    +0.000 A 
ATOM      8  C   UNL     1       0.831   2.411  18.655  0.00  0.00    +0.000 A 
ATOM      9  C   UNL     1       1.793   2.915  17.781  0.00  0.00    +0.000 A 
ATOM     10  C   UNL     1       2.654   3.959  18.171  0.00  0.00    +0.000 A 
ENDROOT
BRANCH   4  11
ATOM     11  C   UNL     1       2.428   7.033  19.906  0.00  0.00    +0.000 A 
ATOM     12  C   UNL     1       1.569   7.339  20.974  0.00  0.00    +0.000 A 
ATOM     13  C   UNL     1       0.751   8.467  20.926  0.00  0.00    +0.000 A 
ATOM     14  C   UNL     1       0.781   9.300  19.814  0.00  0.00    +0.000 A 
ATOM     15  F   UNL     1      -0.047  10.355  19.813  0.00  0.00    +0.000 F 
ATOM     16  C   UNL     1       1.636   9.037  18.741  0.00  0.00    +0.000 A 
ATOM     17  C   UNL     1       2.451   7.899  18.799  0.00  0.00    +0.000 A 
BRANCH  16  18
ATOM     18  O   UNL     1       1.779   9.772  17.597  0.00  0.00    +0.000 OA
ATOM     19  C   UNL     1       2.236  11.111  17.746  0.00  0.00    +0.000 C 
ENDBRANCH  16  18
ENDBRANCH   4  11
BRANCH   1  21
ATOM     20  C   UNL     1       5.830   3.780  16.057  0.00  0.00    +0.000 C 
ATOM     21  N   UNL     1       4.734   3.390  16.929  0.00  0.00    +0.000 NA
ATOM     22  H   UNL     1       5.125   3.083  17.818  0.00  0.00    +0.000 HD
ENDBRANCH   1  21
TORSDOF 3
ENDMDL
MODEL 8
REMARK VINA RESULT:      -6.8      4.034      5.554
REMARK  Name = 
REMARK  5 active torsions:
REMARK  status: ('A' for Active; 'I' for Inactive)
REMARK    1  A    between atoms: C_1  and  N_2
REMARK    2  A    between atoms: N_2  and  C_3
REMARK    3  A    between atoms: C_6  and  C_7
REMARK    4  A    between atoms: C_12  and  O_13
REMARK    5  A    between atoms: O_13  and  C_14
REMARK                            x       y       z     vdW  Elec       q    Type
REMARK                         _______ _______ _______ _____ _____    ______ ____
ROOT
ATOM      1  C   UNL     1       6.272   6.839  17.061  0.00  0.00    +0.000 C 
ATOM      2  C   UNL     1       5.690   6.563  18.458  0.00  0.00    +0.000 C 
ATOM      3  C   UNL     1       5.994   5.162  18.985  0.00  0.00    +0.000 C 
ATOM      4  C   UNL     1       5.552   4.055  18.014  0.00  0.00    +0.000 C 
ATOM      5  C   UNL     1       5.911   4.350  16.563  0.00  0.00    +0.000 A 
ATOM      6  C   UNL     1       5.902   3.289  15.637  0.00  0.00    +0.000 A 
ATOM      7  C   UNL     1       6.101   3.521  14.278  0.00  0.00    +0.000 A 
ATOM      8  C   UNL     1       6.301   4.819  13.820  0.00  0.00    +0.000 A 
ATOM      9  C   UNL     1       6.336   5.877  14.727  0.00  0.00    +0.000 A 
ATOM     10  C   UNL     1       6.166   5.658  16.108  0.00  0.00    +0.000 A 
ENDROOT
BRANCH   4  11
ATOM     11  C   UNL     1       4.069   3.746  18.219  0.00  0.00    +0.000 A 
ATOM     12  C   UNL     1       3.088   4.148  17.297  0.00  0.00    +0.000 A 
ATOM     13  C   UNL     1       1.738   3.919  17.552  0.00  0.00    +0.000 A 
ATOM     14  C   UNL     1       1.350   3.286  18.728  0.00  0.00    +0.000 A 
ATOM     15  F   UNL     1       0.035   3.116  18.930  0.00  0.00    +0.000 F 
ATOM     16  C   UNL     1       2.298   2.855  19.659  0.00  0.00    +0.000 A 
ATOM     17  C   UNL     1       3.653   3.095  19.393  0.00  0.00    +0.000 A 
BRANCH  16  18
ATOM     18  O   UNL     1       2.063   2.213  20.843  0.00  0.00    +0.000 OA
ATOM     19  C   UNL     1       2.111   3.004  22.024  0.00  0.00    +0.000 C 
ENDBRANCH  16  18
ENDBRANCH   4  11
BRANCH   1  21
ATOM     20  C   UNL     1       7.759   8.702  17.754  0.00  0.00    +0.000 C 
ATOM     21  N   UNL     1       7.629   7.419  17.084  0.00  0.00    +0.000 NA
ATOM     22  H   UNL     1       8.254   6.754  17.538  0.00  0.00    +0.000 HD
ENDBRANCH   1  21
TORSDOF 3
ENDMDL
MODEL 9
REMARK VINA RESULT:      -6.7      1.378      1.888
REMARK  Name = 
REMARK  5 active torsions:
REMARK  status: ('A' for Active; 'I' for Inactive)
REMARK    1  A    between atoms: C_1  and  N_2
REMARK    2  A    between atoms: N_2  and  C_3
REMARK    3  A    between atoms: C_6  and  C_7
REMARK    4  A    between atoms: C_12  and  O_13
REMARK    5  A    between atoms: O_13  and  C_14
REMARK                            x       y       z     vdW  Elec       q    Type
REMARK                         _______ _______ _______ _____ _____    ______ ____
ROOT
ATOM      1  C   UNL     1       2.013   2.955  17.832  0.00  0.00    +0.000 C 
ATOM      2  C   UNL     1       2.518   4.127  16.974  0.00  0.00    +0.000 C 
ATOM      3  C   UNL     1       3.716   4.860  17.575  0.00  0.00    +0.000 C 
ATOM      4  C   UNL     1       3.454   5.346  19.010  0.00  0.00    +0.000 C 
ATOM      5  C   UNL     1       2.761   4.305  19.880  0.00  0.00    +0.000 A 
ATOM      6  C   UNL     1       2.791   4.467  21.279  0.00  0.00    +0.000 A 
ATOM      7  C   UNL     1       2.072   3.616  22.115  0.00  0.00    +0.000 A 
ATOM      8  C   UNL     1       1.302   2.596  21.567  0.00  0.00    +0.000 A 
ATOM      9  C   UNL     1       1.280   2.408  20.187  0.00  0.00    +0.000 A 
ATOM     10  C   UNL     1       2.024   3.240  19.327  0.00  0.00    +0.000 A 
ENDROOT
BRANCH   4  11
ATOM     11  C   UNL     1       2.725   6.689  18.978  0.00  0.00    +0.000 A 
ATOM     12  C   UNL     1       2.846   7.578  17.897  0.00  0.00    +0.000 A 
ATOM     13  C   UNL     1       2.230   8.827  17.933  0.00  0.00    +0.000 A 
ATOM     14  C   UNL     1       1.488   9.205  19.046  0.00  0.00    +0.000 A 
ATOM     15  F   UNL     1       0.940  10.429  19.034  0.00  0.00    +0.000 F 
ATOM     16  C   UNL     1       1.330   8.339  20.132  0.00  0.00    +0.000 A 
ATOM     17  C   UNL     1       1.956   7.087  20.086  0.00  0.00    +0.000 A 
BRANCH  16  18
ATOM     18  O   UNL     1       0.621   8.572  21.278  0.00  0.00    +0.000 OA
ATOM     19  C   UNL     1       1.291   9.277  22.316  0.00  0.00    +0.000 C 
ENDBRANCH  16  18
ENDBRANCH   4  11
BRANCH   1  21
ATOM     20  C   UNL     1       3.837   1.327  18.266  0.00  0.00    +0.000 C 
ATOM     21  N   UNL     1       2.644   1.661  17.506  0.00  0.00    +0.000 NA
ATOM     22  H   UNL     1       1.956   0.924  17.649  0.00  0.00    +0.000 HD
ENDBRANCH   1  21
TORSDOF 3
ENDMDL
