MODEL 1
REMARK VINA RESULT:      -7.4      0.000      0.000
REMARK  Name = 
REMARK  5 active torsions:
REMARK  status: ('A' for Active; 'I' for Inactive)
REMARK    1  A    between atoms: C_1  and  C_2
REMARK    2  A    between atoms: C_2  and  O_3
REMARK    3  A    between atoms: O_3  and  C_4
REMARK    4  A    between atoms: C_14  and  C_15
REMARK    5  A    between atoms: C_15  and  C_16
REMARK                            x       y       z     vdW  Elec       q    Type
REMARK                         _______ _______ _______ _____ _____    ______ ____
ROOT
ATOM      1  C   UNL     1       2.624   4.828  18.823  0.00  0.00    +0.000 A 
ATOM      2  C   UNL     1       2.511   6.145  18.346  0.00  0.00    +0.000 A 
ATOM      3  C   UNL     1       3.598   6.804  17.764  0.00  0.00    +0.000 A 
ATOM      4  C   UNL     1       4.815   6.153  17.636  0.00  0.00    +0.000 A 
ATOM      5  C   UNL     1       5.970   6.828  17.067  0.00  0.00    +0.000 A 
ATOM      6  C   UNL     1       7.142   6.186  16.985  0.00  0.00    +0.000 A 
ATOM      7  C   UNL     1       7.301   4.790  17.431  0.00  0.00    +0.000 A 
ATOM      8  O   UNL     1       8.391   4.235  17.359  0.00  0.00    +0.000 OA
ATOM      9  O   UNL     1       6.159   4.154  17.897  0.00  0.00    +0.000 OA
ATOM     10  C   UNL     1       4.920   4.826  18.066  0.00  0.00    +0.000 A 
ATOM     11  C   UNL     1       3.832   4.133  18.645  0.00  0.00    +0.000 A 
ENDROOT
BRANCH  11  12
ATOM     12  C   UNL     1       4.045   2.709  19.028  0.00  0.00    +0.000 C 
ATOM     13  C   UNL     1       3.450   1.601  18.197  0.00  0.00    +0.000 C 
ATOM     14  O   UNL     1       4.693   2.442  20.039  0.00  0.00    +0.000 OA
ENDBRANCH  11  12
BRANCH   1  15
ATOM     15  O   UNL     1       1.455   4.382  19.375  0.00  0.00    +0.000 OA
BRANCH  15  17
ATOM     16  C   UNL     1       1.255   2.868  21.252  0.00  0.00    +0.000 C 
ATOM     17  C   UNL     1       1.347   4.310  20.795  0.00  0.00    +0.000 C 
ENDBRANCH  15  17
ENDBRANCH   1  15
TORSDOF 3
ENDMDL
MODEL 2
REMARK VINA RESULT:      -7.1      1.331      1.331
REMARK  Name = 
REMARK  5 active torsions:
REMARK  status: ('A' for Active; 'I' for Inactive)
REMARK    1  A    between atoms: C_1  and  C_2
REMARK    2  A    between atoms: C_2  and  O_3
REMARK    3  A    between atoms: O_3  and  C_4
REMARK    4  A    between atoms: C_14  and  C_15
REMARK    5  A    between atoms: C_15  and  C_16
REMARK                            x       y       z     vdW  Elec       q    Type
REMARK                         _______ _______ _______ _____ _____    ______ ____
ROOT
ATOM      1  C   UNL     1       3.084   5.024  19.687  0.00  0.00    +0.000 A 
ATOM      2  C   UNL     1       2.837   6.349  19.284  0.00  0.00    +0.000 A 
ATOM      3  C   UNL     1       3.397   6.869  18.113  0.00  0.00    +0.000 A 
ATOM      4  C   UNL     1       4.204   6.071  17.317  0.00  0.00    +0.000 A 
ATOM      5  C   UNL     1       4.826   6.599  16.115  0.00  0.00    +0.000 A 
ATOM      6  C   UNL     1       5.627   5.816  15.381  0.00  0.00    +0.000 A 
ATOM      7  C   UNL     1       5.882   4.409  15.737  0.00  0.00    +0.000 A 
ATOM      8  O   UNL     1       6.635   3.722  15.056  0.00  0.00    +0.000 OA
ATOM      9  O   UNL     1       5.211   3.918  16.848  0.00  0.00    +0.000 OA
ATOM     10  C   UNL     1       4.414   4.740  17.689  0.00  0.00    +0.000 A 
ATOM     11  C   UNL     1       3.848   4.185  18.860  0.00  0.00    +0.000 A 
ENDROOT
BRANCH  11  12
ATOM     12  C   UNL     1       4.105   2.744  19.136  0.00  0.00    +0.000 C 
ATOM     13  C   UNL     1       3.293   1.681  18.439  0.00  0.00    +0.000 C 
ATOM     14  O   UNL     1       4.969   2.425  19.950  0.00  0.00    +0.000 OA
ENDBRANCH  11  12
BRANCH   1  15
ATOM     15  O   UNL     1       2.463   4.726  20.868  0.00  0.00    +0.000 OA
BRANCH  15  17
ATOM     16  C   UNL     1       1.463   2.673  21.671  0.00  0.00    +0.000 C 
ATOM     17  C   UNL     1       1.280   3.929  20.841  0.00  0.00    +0.000 C 
ENDBRANCH  15  17
ENDBRANCH   1  15
TORSDOF 3
ENDMDL
MODEL 3
REMARK VINA RESULT:      -6.9      1.760      1.783
REMARK  Name = 
REMARK  5 active torsions:
REMARK  status: ('A' for Active; 'I' for Inactive)
REMARK    1  A    between atoms: C_1  and  C_2
REMARK    2  A    between atoms: C_2  and  O_3
REMARK    3  A    between atoms: O_3  and  C_4
REMARK    4  A    between atoms: C_14  and  C_15
REMARK    5  A    between atoms: C_15  and  C_16
REMARK                            x       y       z     vdW  Elec       q    Type
REMARK                         _______ _______ _______ _____ _____    ______ ____
ROOT
ATOM      1  C   UNL     1       2.395   4.903  19.088  0.00  0.00    +0.000 A 
ATOM      2  C   UNL     1       2.581   6.295  19.019  0.00  0.00    +0.000 A 
ATOM      3  C   UNL     1       3.449   6.867  18.084  0.00  0.00    +0.000 A 
ATOM      4  C   UNL     1       4.140   6.059  17.194  0.00  0.00    +0.000 A 
ATOM      5  C   UNL     1       5.075   6.627  16.237  0.00  0.00    +0.000 A 
ATOM      6  C   UNL     1       5.752   5.820  15.411  0.00  0.00    +0.000 A 
ATOM      7  C   UNL     1       5.561   4.360  15.414  0.00  0.00    +0.000 A 
ATOM      8  O   UNL     1       6.209   3.645  14.657  0.00  0.00    +0.000 OA
ATOM      9  O   UNL     1       4.604   3.861  16.288  0.00  0.00    +0.000 OA
ATOM     10  C   UNL     1       3.923   4.678  17.228  0.00  0.00    +0.000 A 
ATOM     11  C   UNL     1       3.039   4.076  18.153  0.00  0.00    +0.000 A 
ENDROOT
BRANCH  11  12
ATOM     12  C   UNL     1       2.854   2.600  18.071  0.00  0.00    +0.000 C 
ATOM     13  C   UNL     1       3.763   1.676  18.840  0.00  0.00    +0.000 C 
ATOM     14  O   UNL     1       1.966   2.137  17.356  0.00  0.00    +0.000 OA
ENDBRANCH  11  12
BRANCH   1  15
ATOM     15  O   UNL     1       1.526   4.553  20.083  0.00  0.00    +0.000 OA
BRANCH  15  17
ATOM     16  C   UNL     1       1.532   2.681  21.618  0.00  0.00    +0.000 C 
ATOM     17  C   UNL     1       2.051   4.074  21.320  0.00  0.00    +0.000 C 
ENDBRANCH  15  17
ENDBRANCH   1  15
TORSDOF 3
ENDMDL
MODEL 4
REMARK VINA RESULT:      -6.7      1.903      3.040
REMARK  Name = 
REMARK  5 active torsions:
REMARK  status: ('A' for Active; 'I' for Inactive)
REMARK    1  A    between atoms: C_1  and  C_2
REMARK    2  A    between atoms: C_2  and  O_3
REMARK    3  A    between atoms: O_3  and  C_4
REMARK    4  A    between atoms: C_14  and  C_15
REMARK    5  A    between atoms: C_15  and  C_16
REMARK                            x       y       z     vdW  Elec       q    Type
REMARK                         _______ _______ _______ _____ _____    ______ ____
ROOT
ATOM      1  C   UNL     1       2.442   4.351  17.888  0.00  0.00    +0.000 A 
ATOM      2  C   UNL     1       3.064   3.216  17.338  0.00  0.00    +0.000 A 
ATOM      3  C   UNL     1       4.384   3.261  16.878  0.00  0.00    +0.000 A 
ATOM      4  C   UNL     1       5.110   4.439  16.969  0.00  0.00    +0.000 A 
ATOM      5  C   UNL     1       6.470   4.521  16.464  0.00  0.00    +0.000 A 
ATOM      6  C   UNL     1       7.137   5.680  16.536  0.00  0.00    +0.000 A 
ATOM      7  C   UNL     1       6.545   6.885  17.142  0.00  0.00    +0.000 A 
ATOM      8  O   UNL     1       7.175   7.937  17.178  0.00  0.00    +0.000 OA
ATOM      9  O   UNL     1       5.274   6.748  17.682  0.00  0.00    +0.000 OA
ATOM     10  C   UNL     1       4.511   5.557  17.558  0.00  0.00    +0.000 A 
ATOM     11  C   UNL     1       3.184   5.533  18.044  0.00  0.00    +0.000 A 
ENDROOT
BRANCH  11  12
ATOM     12  C   UNL     1       2.662   6.771  18.690  0.00  0.00    +0.000 C 
ATOM     13  C   UNL     1       2.262   7.956  17.849  0.00  0.00    +0.000 C 
ATOM     14  O   UNL     1       2.579   6.827  19.916  0.00  0.00    +0.000 OA
ENDBRANCH  11  12
BRANCH   1  15
ATOM     15  O   UNL     1       1.149   4.097  18.253  0.00  0.00    +0.000 OA
BRANCH  15  17
ATOM     16  C   UNL     1       1.138   3.638  20.629  0.00  0.00    +0.000 C 
ATOM     17  C   UNL     1       0.895   3.094  19.235  0.00  0.00    +0.000 C 
ENDBRANCH  15  17
ENDBRANCH   1  15
TORSDOF 3
ENDMDL
MODEL 5
REMARK VINA RESULT:      -6.7      2.638      4.123
REMARK  Name = 
REMARK  5 active torsions:
REMARK  status: ('A' for Active; 'I' for Inactive)
REMARK    1  A    between atoms: C_1  and  C_2
REMARK    2  A    between atoms: C_2  and  O_3
REMARK    3  A    between atoms: O_3  and  C_4
REMARK    4  A    between atoms: C_14  and  C_15
REMARK    5  A    between atoms: C_15  and  C_16
REMARK                            x       y       z     vdW  Elec       q    Type
REMARK                         _______ _______ _______ _____ _____    ______ ____
ROOT
ATOM      1  C   UNL     1       5.120   5.240  18.016  0.00  0.00    +0.000 A 
ATOM      2  C   UNL     1       4.319   4.206  17.501  0.00  0.00    +0.000 A 
ATOM      3  C   UNL     1       4.526   3.697  16.215  0.00  0.00    +0.000 A 
ATOM      4  C   UNL     1       5.546   4.205  15.425  0.00  0.00    +0.000 A 
ATOM      5  C   UNL     1       5.759   3.719  14.072  0.00  0.00    +0.000 A 
ATOM      6  C   UNL     1       6.731   4.250  13.320  0.00  0.00    +0.000 A 
ATOM      7  C   UNL     1       7.625   5.305  13.829  0.00  0.00    +0.000 A 
ATOM      8  O   UNL     1       8.494   5.784  13.110  0.00  0.00    +0.000 OA
ATOM      9  O   UNL     1       7.441   5.690  15.150  0.00  0.00    +0.000 OA
ATOM     10  C   UNL     1       6.375   5.201  15.951  0.00  0.00    +0.000 A 
ATOM     11  C   UNL     1       6.196   5.722  17.253  0.00  0.00    +0.000 A 
ENDROOT
BRANCH  11  12
ATOM     12  C   UNL     1       7.164   6.752  17.725  0.00  0.00    +0.000 C 
ATOM     13  C   UNL     1       8.084   6.455  18.882  0.00  0.00    +0.000 C 
ATOM     14  O   UNL     1       7.195   7.853  17.178  0.00  0.00    +0.000 OA
ENDBRANCH  11  12
BRANCH   1  15
ATOM     15  O   UNL     1       4.735   5.603  19.277  0.00  0.00    +0.000 OA
BRANCH  15  17
ATOM     16  C   UNL     1       2.547   6.583  19.616  0.00  0.00    +0.000 C 
ATOM     17  C   UNL     1       3.398   5.330  19.694  0.00  0.00    +0.000 C 
ENDBRANCH  15  17
ENDBRANCH   1  15
TORSDOF 3
ENDMDL
MODEL 6
REMARK VINA RESULT:      -6.5      1.785      4.923
REMARK  Name = 
REMARK  5 active torsions:
REMARK  status: ('A' for Active; 'I' for Inactive)
REMARK    1  A    between atoms: C_1  and  C_2
REMARK    2  A    between atoms: C_2  and  O_3
REMARK    3  A    between atoms: O_3  and  C_4
REMARK    4  A    between atoms: C_14  and  C_15
REMARK    5  A    between atoms: C_15  and  C_16
REMARK                            x       y       z     vdW  Elec       q    Type
REMARK                         _______ _______ _______ _____ _____    ______ ____
ROOT
ATOM      1  C   UNL     1       5.547   6.858  17.178  0.00  0.00    +0.000 A 
ATOM      2  C   UNL     1       4.375   7.560  17.509  0.00  0.00    +0.000 A 
ATOM      3  C   UNL     1       3.202   6.890  17.870  0.00  0.00    +0.000 A 
ATOM      4  C   UNL     1       3.184   5.504  17.919  0.00  0.00    +0.000 A 
ATOM      5  C   UNL     1       1.968   4.783  18.257  0.00  0.00    +0.000 A 
ATOM      6  C   UNL     1       1.970   3.444  18.265  0.00  0.00    +0.000 A 
ATOM      7  C   UNL     1       3.183   2.663  17.968  0.00  0.00    +0.000 A 
ATOM      8  O   UNL     1       3.149   1.437  17.967  0.00  0.00    +0.000 OA
ATOM      9  O   UNL     1       4.343   3.385  17.726  0.00  0.00    +0.000 OA
ATOM     10  C   UNL     1       4.360   4.803  17.636  0.00  0.00    +0.000 A 
ATOM     11  C   UNL     1       5.562   5.457  17.283  0.00  0.00    +0.000 A 
ENDROOT
BRANCH  11  12
ATOM     12  C   UNL     1       6.765   4.611  17.044  0.00  0.00    +0.000 C 
ATOM     13  C   UNL     1       7.080   4.112  15.656  0.00  0.00    +0.000 C 
ATOM     14  O   UNL     1       7.491   4.306  17.989  0.00  0.00    +0.000 OA
ENDBRANCH  11  12
BRANCH   1  15
ATOM     15  O   UNL     1       6.567   7.701  16.833  0.00  0.00    +0.000 OA
BRANCH  15  17
ATOM     16  C   UNL     1       8.120   9.227  17.890  0.00  0.00    +0.000 C 
ATOM     17  C   UNL     1       7.710   7.782  17.682  0.00  0.00    +0.000 C 
ENDBRANCH  15  17
ENDBRANCH   1  15
TORSDOF 3
ENDMDL
MODEL 7
REMARK VINA RESULT:      -6.4      1.914      4.715
REMARK  Name = 
REMARK  5 active torsions:
REMARK  status: ('A' for Active; 'I' for Inactive)
REMARK    1  A    between atoms: C_1  and  C_2
REMARK    2  A    between atoms: C_2  and  O_3
REMARK    3  A    between atoms: O_3  and  C_4
REMARK    4  A    between atoms: C_14  and  C_15
REMARK    5  A    between atoms: C_15  and  C_16
REMARK                            x       y       z     vdW  Elec       q    Type
REMARK                         _______ _______ _______ _____ _____    ______ ____
ROOT
ATOM      1  C   UNL     1       5.223   4.706  16.457  0.00  0.00    +0.000 A 
ATOM      2  C   UNL     1       5.269   5.976  15.854  0.00  0.00    +0.000 A 
ATOM      3  C   UNL     1       4.547   7.055  16.373  0.00  0.00    +0.000 A 
ATOM      4  C   UNL     1       3.775   6.888  17.513  0.00  0.00    +0.000 A 
ATOM      5  C   UNL     1       2.987   7.984  18.051  0.00  0.00    +0.000 A 
ATOM      6  C   UNL     1       2.225   7.786  19.133  0.00  0.00    +0.000 A 
ATOM      7  C   UNL     1       2.175   6.487  19.827  0.00  0.00    +0.000 A 
ATOM      8  O   UNL     1       1.454   6.331  20.806  0.00  0.00    +0.000 OA
ATOM      9  O   UNL     1       2.999   5.486  19.330  0.00  0.00    +0.000 OA
ATOM     10  C   UNL     1       3.762   5.639  18.142  0.00  0.00    +0.000 A 
ATOM     11  C   UNL     1       4.495   4.536  17.646  0.00  0.00    +0.000 A 
ENDROOT
BRANCH  11  12
ATOM     12  C   UNL     1       4.441   3.265  18.422  0.00  0.00    +0.000 C 
ATOM     13  C   UNL     1       3.502   2.161  18.007  0.00  0.00    +0.000 C 
ATOM     14  O   UNL     1       5.153   3.129  19.415  0.00  0.00    +0.000 OA
ENDBRANCH  11  12
BRANCH   1  15
ATOM     15  O   UNL     1       5.979   3.791  15.779  0.00  0.00    +0.000 OA
BRANCH  15  17
ATOM     16  C   UNL     1       5.971   3.680  13.361  0.00  0.00    +0.000 C 
ATOM     17  C   UNL     1       6.668   4.206  14.600  0.00  0.00    +0.000 C 
ENDBRANCH  15  17
ENDBRANCH   1  15
TORSDOF 3
ENDMDL
MODEL 8
REMARK VINA RESULT:      -6.4      1.645      5.004
REMARK  Name = 
REMARK  5 active torsions:
REMARK  status: ('A' for Active; 'I' for Inactive)
REMARK    1  A    between atoms: C_1  and  C_2
REMARK    2  A    between atoms: C_2  and  O_3
REMARK    3  A    between atoms: O_3  and  C_4
REMARK    4  A    between atoms: C_14  and  C_15
REMARK    5  A    between atoms: C_15  and  C_16
REMARK                            x       y       z     vdW  Elec       q    Type
REMARK                         _______ _______ _______ _____ _____    ______ ____
ROOT
ATOM      1  C   UNL     1       5.996   6.584  17.375  0.00  0.00    +0.000 A 
ATOM      2  C   UNL     1       4.654   6.953  17.173  0.00  0.00    +0.000 A 
ATOM      3  C   UNL     1       3.603   6.173  17.666  0.00  0.00    +0.000 A 
ATOM      4  C   UNL     1       3.875   5.016  18.380  0.00  0.00    +0.000 A 
ATOM      5  C   UNL     1       2.800   4.169  18.871  0.00  0.00    +0.000 A 
ATOM      6  C   UNL     1       3.091   3.041  19.530  0.00  0.00    +0.000 A 
ATOM      7  C   UNL     1       4.480   2.633  19.805  0.00  0.00    +0.000 A 
ATOM      8  O   UNL     1       4.715   1.584  20.395  0.00  0.00    +0.000 OA
ATOM      9  O   UNL     1       5.477   3.504  19.388  0.00  0.00    +0.000 OA
ATOM     10  C   UNL     1       5.208   4.670  18.623  0.00  0.00    +0.000 A 
ATOM     11  C   UNL     1       6.288   5.449  18.149  0.00  0.00    +0.000 A 
ENDROOT
BRANCH  11  12
ATOM     12  C   UNL     1       7.666   5.008  18.503  0.00  0.00    +0.000 C 
ATOM     13  C   UNL     1       8.338   5.539  19.744  0.00  0.00    +0.000 C 
ATOM     14  O   UNL     1       8.261   4.222  17.768  0.00  0.00    +0.000 OA
ENDBRANCH  11  12
BRANCH   1  15
ATOM     15  O   UNL     1       6.861   7.468  16.793  0.00  0.00    +0.000 OA
BRANCH  15  17
ATOM     16  C   UNL     1       8.421   8.763  18.117  0.00  0.00    +0.000 C 
ATOM     17  C   UNL     1       7.075   8.733  17.418  0.00  0.00    +0.000 C 
ENDBRANCH  15  17
ENDBRANCH   1  15
TORSDOF 3
ENDMDL
MODEL 9
REMARK VINA RESULT:      -6.2      1.990      5.525
REMARK  Name = 
REMARK  5 active torsions:
REMARK  status: ('A' for Active; 'I' for Inactive)
REMARK    1  A    between atoms: C_1  and  C_2
REMARK    2  A    between atoms: C_2  and  O_3
REMARK    3  A    between atoms: O_3  and  C_4
REMARK    4  A    between atoms: C_14  and  C_15
REMARK    5  A    between atoms: C_15  and  C_16
REMARK                            x       y       z     vdW  Elec       q    Type
REMARK                         _______ _______ _______ _____ _____    ______ ____
ROOT
ATOM      1  C   UNL     1       4.831   6.050  17.440  0.00  0.00    +0.000 A 
ATOM      2  C   UNL     1       5.442   4.938  16.833  0.00  0.00    +0.000 A 
ATOM      3  C   UNL     1       4.854   3.670  16.880  0.00  0.00    +0.000 A 
ATOM      4  C   UNL     1       3.640   3.492  17.525  0.00  0.00    +0.000 A 
ATOM      5  C   UNL     1       3.027   2.178  17.619  0.00  0.00    +0.000 A 
ATOM      6  C   UNL     1       1.870   2.029  18.274  0.00  0.00    +0.000 A 
ATOM      7  C   UNL     1       1.168   3.170  18.890  0.00  0.00    +0.000 A 
ATOM      8  O   UNL     1       0.118   2.999  19.499  0.00  0.00    +0.000 OA
ATOM      9  O   UNL     1       1.744   4.421  18.714  0.00  0.00    +0.000 OA
ATOM     10  C   UNL     1       3.006   4.604  18.089  0.00  0.00    +0.000 A 
ATOM     11  C   UNL     1       3.571   5.899  18.042  0.00  0.00    +0.000 A 
ENDROOT
BRANCH  11  12
ATOM     12  C   UNL     1       2.788   7.017  18.639  0.00  0.00    +0.000 C 
ATOM     13  C   UNL     1       2.250   8.120  17.764  0.00  0.00    +0.000 C 
ATOM     14  O   UNL     1       2.599   7.046  19.854  0.00  0.00    +0.000 OA
ENDBRANCH  11  12
BRANCH   1  15
ATOM     15  O   UNL     1       5.580   7.185  17.297  0.00  0.00    +0.000 OA
BRANCH  15  17
ATOM     16  C   UNL     1       7.689   8.319  17.653  0.00  0.00    +0.000 C 
ATOM     17  C   UNL     1       6.995   7.063  17.162  0.00  0.00    +0.000 C 
ENDBRANCH  15  17
ENDBRANCH   1  15
TORSDOF 3
ENDMDL
