MODEL 1
REMARK VINA RESULT:      -7.6      0.000      0.000
REMARK  Name = 
REMARK  8 active torsions:
REMARK  status: ('A' for Active; 'I' for Inactive)
REMARK    1  A    between atoms: C_1  and  O_2
REMARK    2  A    between atoms: O_2  and  C_3
REMARK    3  A    between atoms: CA_5  and  C_6
REMARK    4  A    between atoms: C_6  and  O_7
REMARK    5  A    between atoms: C_8  and  C_9
REMARK    6  A    between atoms: C_11  and  N_12
REMARK    7  A    between atoms: N_12  and  S_13
REMARK    8  A    between atoms: S_13  and  C_16
REMARK                            x       y       z     vdW  Elec       q    Type
REMARK                         _______ _______ _______ _____ _____    ______ ____
ROOT
ATOM      1  N   UNL     1       5.464   3.979  17.808  0.00  0.00    +0.000 N 
ATOM      2  H   UNL     1       6.108   3.512  18.446  0.00  0.00    +0.000 HD
ENDROOT
BRANCH   1   9
ATOM      3  C   UNL     1       7.202   5.182  16.493  0.00  0.00    +0.000 A 
ATOM      4  N   UNL     1       7.751   5.505  15.294  0.00  0.00    +0.000 NA
ATOM      5  CA  UNL     1       7.169   4.944  14.194  0.00  0.00    +0.000 A 
ATOM      6  C   UNL     1       6.046   4.109  14.303  0.00  0.00    +0.000 A 
ATOM      7  C   UNL     1       5.394   3.442  13.130  0.00  0.00    +0.000 C 
ATOM      8  N   UNL     1       5.488   3.811  15.514  0.00  0.00    +0.000 NA
ATOM      9  C   UNL     1       6.083   4.360  16.592  0.00  0.00    +0.000 A 
BRANCH   3  11
ATOM     10  C   UNL     1       7.645   7.220  17.571  0.00  0.00    +0.000 C 
ATOM     11  O   UNL     1       7.673   5.799  17.635  0.00  0.00    +0.000 OA
ENDBRANCH   3  11
BRANCH   5  12
ATOM     12  C   UNL     1       7.738   5.362  12.856  0.00  0.00    +0.000 C 
BRANCH  12  13
ATOM     13  O   UNL     1       8.974   6.065  12.989  0.00  0.00    +0.000 OA
ATOM     14  H   UNL     1       9.662   5.373  13.031  0.00  0.00    +0.000 HD
ENDBRANCH  12  13
ENDBRANCH   5  12
ENDBRANCH   1   9
BRANCH   1  15
ATOM     15  S   UNL     1       4.626   5.187  18.628  0.00  0.00    +0.000 S 
ATOM     16  O   UNL     1       5.486   5.649  19.699  0.00  0.00    +0.000 OA
ATOM     17  O   UNL     1       4.089   6.125  17.661  0.00  0.00    +0.000 OA
BRANCH  15  18
ATOM     18  C   UNL     1       3.264   4.356  19.389  0.00  0.00    +0.000 A 
ATOM     19  C   UNL     1       3.108   4.509  20.784  0.00  0.00    +0.000 A 
ATOM     20  C   UNL     1       2.088   3.844  21.457  0.00  0.00    +0.000 A 
ATOM     21  C   UNL     1       1.221   3.020  20.751  0.00  0.00    +0.000 A 
ATOM     22  C   UNL     1       1.371   2.864  19.369  0.00  0.00    +0.000 A 
ATOM     23 CL   UNL     1       0.242   1.805  18.581  0.00  0.00    +0.000 Cl
ATOM     24  C   UNL     1       2.398   3.527  18.671  0.00  0.00    +0.000 A 
ATOM     25 CL   UNL     1       2.548   3.299  16.957  0.00  0.00    +0.000 Cl
ENDBRANCH  15  18
ENDBRANCH   1  15
TORSDOF 6
ENDMDL
MODEL 2
REMARK VINA RESULT:      -7.3      1.939      2.313
REMARK  Name = 
REMARK  8 active torsions:
REMARK  status: ('A' for Active; 'I' for Inactive)
REMARK    1  A    between atoms: C_1  and  O_2
REMARK    2  A    between atoms: O_2  and  C_3
REMARK    3  A    between atoms: CA_5  and  C_6
REMARK    4  A    between atoms: C_6  and  O_7
REMARK    5  A    between atoms: C_8  and  C_9
REMARK    6  A    between atoms: C_11  and  N_12
REMARK    7  A    between atoms: N_12  and  S_13
REMARK    8  A    between atoms: S_13  and  C_16
REMARK                            x       y       z     vdW  Elec       q    Type
REMARK                         _______ _______ _______ _____ _____    ______ ____
ROOT
ATOM      1  N   UNL     1       5.396   3.730  17.721  0.00  0.00    +0.000 N 
ATOM      2  H   UNL     1       5.504   4.357  18.517  0.00  0.00    +0.000 HD
ENDROOT
BRANCH   1   9
ATOM      3  C   UNL     1       7.014   5.210  16.541  0.00  0.00    +0.000 A 
ATOM      4  N   UNL     1       7.600   5.623  15.388  0.00  0.00    +0.000 NA
ATOM      5  CA  UNL     1       7.215   4.974  14.251  0.00  0.00    +0.000 A 
ATOM      6  C   UNL     1       6.242   3.963  14.276  0.00  0.00    +0.000 A 
ATOM      7  C   UNL     1       5.812   3.199  13.060  0.00  0.00    +0.000 C 
ATOM      8  N   UNL     1       5.641   3.573  15.439  0.00  0.00    +0.000 NA
ATOM      9  C   UNL     1       6.043   4.212  16.556  0.00  0.00    +0.000 A 
BRANCH   3  11
ATOM     10  C   UNL     1       7.448   7.295  17.528  0.00  0.00    +0.000 C 
ATOM     11  O   UNL     1       7.276   5.894  17.710  0.00  0.00    +0.000 OA
ENDBRANCH   3  11
BRANCH   5  12
ATOM     12  C   UNL     1       7.818   5.484  12.959  0.00  0.00    +0.000 C 
BRANCH  12  13
ATOM     13  O   UNL     1       9.079   6.120  13.165  0.00  0.00    +0.000 OA
ATOM     14  H   UNL     1       8.874   7.064  13.302  0.00  0.00    +0.000 HD
ENDBRANCH  12  13
ENDBRANCH   5  12
ENDBRANCH   1   9
BRANCH   1  15
ATOM     15  S   UNL     1       3.776   3.302  17.550  0.00  0.00    +0.000 S 
ATOM     16  O   UNL     1       3.308   3.899  16.316  0.00  0.00    +0.000 OA
ATOM     17  O   UNL     1       3.642   1.875  17.773  0.00  0.00    +0.000 OA
BRANCH  15  18
ATOM     18  C   UNL     1       2.946   4.136  18.869  0.00  0.00    +0.000 A 
ATOM     19  C   UNL     1       2.309   3.336  19.843  0.00  0.00    +0.000 A 
ATOM     20  C   UNL     1       1.595   3.925  20.882  0.00  0.00    +0.000 A 
ATOM     21  C   UNL     1       1.505   5.309  20.957  0.00  0.00    +0.000 A 
ATOM     22  C   UNL     1       2.134   6.106  19.995  0.00  0.00    +0.000 A 
ATOM     23 CL   UNL     1       1.954   7.824  20.175  0.00  0.00    +0.000 Cl
ATOM     24  C   UNL     1       2.860   5.528  18.936  0.00  0.00    +0.000 A 
ATOM     25 CL   UNL     1       3.618   6.559  17.763  0.00  0.00    +0.000 Cl
ENDBRANCH  15  18
ENDBRANCH   1  15
TORSDOF 6
ENDMDL
MODEL 3
REMARK VINA RESULT:      -7.0      1.934      2.162
REMARK  Name = 
REMARK  8 active torsions:
REMARK  status: ('A' for Active; 'I' for Inactive)
REMARK    1  A    between atoms: C_1  and  O_2
REMARK    2  A    between atoms: O_2  and  C_3
REMARK    3  A    between atoms: CA_5  and  C_6
REMARK    4  A    between atoms: C_6  and  O_7
REMARK    5  A    between atoms: C_8  and  C_9
REMARK    6  A    between atoms: C_11  and  N_12
REMARK    7  A    between atoms: N_12  and  S_13
REMARK    8  A    between atoms: S_13  and  C_16
REMARK                            x       y       z     vdW  Elec       q    Type
REMARK                         _______ _______ _______ _____ _____    ______ ____
ROOT
ATOM      1  N   UNL     1       4.182   4.600  16.825  0.00  0.00    +0.000 N 
ATOM      2  H   UNL     1       3.288   4.425  16.368  0.00  0.00    +0.000 HD
ENDROOT
BRANCH   1   9
ATOM      3  C   UNL     1       6.367   5.567  16.125  0.00  0.00    +0.000 A 
ATOM      4  N   UNL     1       7.350   5.692  15.196  0.00  0.00    +0.000 NA
ATOM      5  CA  UNL     1       7.191   4.971  14.049  0.00  0.00    +0.000 A 
ATOM      6  C   UNL     1       6.056   4.174  13.834  0.00  0.00    +0.000 A 
ATOM      7  C   UNL     1       5.853   3.337  12.607  0.00  0.00    +0.000 C 
ATOM      8  N   UNL     1       5.062   4.074  14.766  0.00  0.00    +0.000 NA
ATOM      9  C   UNL     1       5.240   4.781  15.900  0.00  0.00    +0.000 A 
BRANCH   3  11
ATOM     10  C   UNL     1       7.497   7.269  17.279  0.00  0.00    +0.000 C 
ATOM     11  O   UNL     1       6.411   6.350  17.259  0.00  0.00    +0.000 OA
ENDBRANCH   3  11
BRANCH   5  12
ATOM     12  C   UNL     1       8.252   5.168  12.988  0.00  0.00    +0.000 C 
BRANCH  12  13
ATOM     13  O   UNL     1       9.222   6.145  13.367  0.00  0.00    +0.000 OA
ATOM     14  H   UNL     1       9.108   6.882  12.736  0.00  0.00    +0.000 HD
ENDBRANCH  12  13
ENDBRANCH   5  12
ENDBRANCH   1   9
BRANCH   1  15
ATOM     15  S   UNL     1       4.438   3.459  18.036  0.00  0.00    +0.000 S 
ATOM     16  O   UNL     1       4.197   2.156  17.448  0.00  0.00    +0.000 OA
ATOM     17  O   UNL     1       5.698   3.745  18.693  0.00  0.00    +0.000 OA
BRANCH  15  18
ATOM     18  C   UNL     1       3.142   3.741  19.204  0.00  0.00    +0.000 A 
ATOM     19  C   UNL     1       2.428   2.613  19.665  0.00  0.00    +0.000 A 
ATOM     20  C   UNL     1       1.363   2.766  20.548  0.00  0.00    +0.000 A 
ATOM     21  C   UNL     1       0.998   4.036  20.972  0.00  0.00    +0.000 A 
ATOM     22  C   UNL     1       1.701   5.157  20.517  0.00  0.00    +0.000 A 
ATOM     23 CL   UNL     1       1.159   6.701  21.101  0.00  0.00    +0.000 Cl
ATOM     24  C   UNL     1       2.780   5.023  19.624  0.00  0.00    +0.000 A 
ATOM     25 CL   UNL     1       3.618   6.443  19.083  0.00  0.00    +0.000 Cl
ENDBRANCH  15  18
ENDBRANCH   1  15
TORSDOF 6
ENDMDL
MODEL 4
REMARK VINA RESULT:      -7.0      3.488      6.742
REMARK  Name = 
REMARK  8 active torsions:
REMARK  status: ('A' for Active; 'I' for Inactive)
REMARK    1  A    between atoms: C_1  and  O_2
REMARK    2  A    between atoms: O_2  and  C_3
REMARK    3  A    between atoms: CA_5  and  C_6
REMARK    4  A    between atoms: C_6  and  O_7
REMARK    5  A    between atoms: C_8  and  C_9
REMARK    6  A    between atoms: C_11  and  N_12
REMARK    7  A    between atoms: N_12  and  S_13
REMARK    8  A    between atoms: S_13  and  C_16
REMARK                            x       y       z     vdW  Elec       q    Type
REMARK                         _______ _______ _______ _____ _____    ______ ____
ROOT
ATOM      1  N   UNL     1       2.351   3.589  18.184  0.00  0.00    +0.000 N 
ATOM      2  H   UNL     1       2.075   3.645  17.204  0.00  0.00    +0.000 HD
ENDROOT
BRANCH   1   9
ATOM      3  C   UNL     1       1.649   4.893  20.185  0.00  0.00    +0.000 A 
ATOM      4  N   UNL     1       1.465   6.090  20.799  0.00  0.00    +0.000 NA
ATOM      5  CA  UNL     1       1.817   7.196  20.082  0.00  0.00    +0.000 A 
ATOM      6  C   UNL     1       2.310   7.095  18.772  0.00  0.00    +0.000 A 
ATOM      7  C   UNL     1       2.742   8.277  17.957  0.00  0.00    +0.000 C 
ATOM      8  N   UNL     1       2.468   5.886  18.155  0.00  0.00    +0.000 NA
ATOM      9  C   UNL     1       2.129   4.803  18.881  0.00  0.00    +0.000 A 
BRANCH   3  11
ATOM     10  C   UNL     1       2.067   3.304  21.861  0.00  0.00    +0.000 C 
ATOM     11  O   UNL     1       1.213   3.743  20.811  0.00  0.00    +0.000 OA
ENDBRANCH   3  11
BRANCH   5  12
ATOM     12  C   UNL     1       1.545   8.530  20.742  0.00  0.00    +0.000 C 
BRANCH  12  13
ATOM     13  O   UNL     1       1.854   8.518  22.136  0.00  0.00    +0.000 OA
ATOM     14  H   UNL     1       0.992   8.555  22.593  0.00  0.00    +0.000 HD
ENDBRANCH  12  13
ENDBRANCH   5  12
ENDBRANCH   1   9
BRANCH   1  15
ATOM     15  S   UNL     1       3.896   2.933  18.303  0.00  0.00    +0.000 S 
ATOM     16  O   UNL     1       4.350   3.161  19.660  0.00  0.00    +0.000 OA
ATOM     17  O   UNL     1       3.881   1.592  17.751  0.00  0.00    +0.000 OA
BRANCH  15  18
ATOM     18  C   UNL     1       4.898   3.940  17.252  0.00  0.00    +0.000 A 
ATOM     19  C   UNL     1       4.922   3.619  15.877  0.00  0.00    +0.000 A 
ATOM     20  C   UNL     1       5.727   4.338  14.998  0.00  0.00    +0.000 A 
ATOM     21  C   UNL     1       6.516   5.374  15.480  0.00  0.00    +0.000 A 
ATOM     22  C   UNL     1       6.497   5.695  16.841  0.00  0.00    +0.000 A 
ATOM     23 CL   UNL     1       7.527   7.001  17.343  0.00  0.00    +0.000 Cl
ATOM     24  C   UNL     1       5.691   4.979  17.745  0.00  0.00    +0.000 A 
ATOM     25 CL   UNL     1       5.705   5.411  19.426  0.00  0.00    +0.000 Cl
ENDBRANCH  15  18
ENDBRANCH   1  15
TORSDOF 6
ENDMDL
MODEL 5
REMARK VINA RESULT:      -6.7      1.334      1.413
REMARK  Name = 
REMARK  8 active torsions:
REMARK  status: ('A' for Active; 'I' for Inactive)
REMARK    1  A    between atoms: C_1  and  O_2
REMARK    2  A    between atoms: O_2  and  C_3
REMARK    3  A    between atoms: CA_5  and  C_6
REMARK    4  A    between atoms: C_6  and  O_7
REMARK    5  A    between atoms: C_8  and  C_9
REMARK    6  A    between atoms: C_11  and  N_12
REMARK    7  A    between atoms: N_12  and  S_13
REMARK    8  A    between atoms: S_13  and  C_16
REMARK                            x       y       z     vdW  Elec       q    Type
REMARK                         _______ _______ _______ _____ _____    ______ ____
ROOT
ATOM      1  N   UNL     1       5.345   4.004  17.717  0.00  0.00    +0.000 N 
ATOM      2  H   UNL     1       5.889   3.349  18.276  0.00  0.00    +0.000 HD
ENDROOT
BRANCH   1   9
ATOM      3  C   UNL     1       7.177   5.070  16.411  0.00  0.00    +0.000 A 
ATOM      4  N   UNL     1       7.745   5.365  15.214  0.00  0.00    +0.000 NA
ATOM      5  CA  UNL     1       7.109   4.879  14.109  0.00  0.00    +0.000 A 
ATOM      6  C   UNL     1       5.916   4.146  14.211  0.00  0.00    +0.000 A 
ATOM      7  C   UNL     1       5.200   3.563  13.031  0.00  0.00    +0.000 C 
ATOM      8  N   UNL     1       5.340   3.877  15.421  0.00  0.00    +0.000 NA
ATOM      9  C   UNL     1       5.988   4.351  16.503  0.00  0.00    +0.000 A 
BRANCH   3  11
ATOM     10  C   UNL     1       7.771   7.041  17.538  0.00  0.00    +0.000 C 
ATOM     11  O   UNL     1       7.707   5.620  17.560  0.00  0.00    +0.000 OA
ENDBRANCH   3  11
BRANCH   5  12
ATOM     12  C   UNL     1       7.706   5.268  12.774  0.00  0.00    +0.000 C 
BRANCH  12  13
ATOM     13  O   UNL     1       8.890   6.053  12.919  0.00  0.00    +0.000 OA
ATOM     14  H   UNL     1       9.628   5.414  12.899  0.00  0.00    +0.000 HD
ENDBRANCH  12  13
ENDBRANCH   5  12
ENDBRANCH   1   9
BRANCH   1  15
ATOM     15  S   UNL     1       4.832   5.286  18.681  0.00  0.00    +0.000 S 
ATOM     16  O   UNL     1       5.825   5.457  19.722  0.00  0.00    +0.000 OA
ATOM     17  O   UNL     1       4.466   6.399  17.826  0.00  0.00    +0.000 OA
BRANCH  15  18
ATOM     18  C   UNL     1       3.361   4.701  19.467  0.00  0.00    +0.000 A 
ATOM     19  C   UNL     1       2.217   5.526  19.398  0.00  0.00    +0.000 A 
ATOM     20  C   UNL     1       1.038   5.151  20.036  0.00  0.00    +0.000 A 
ATOM     21  C   UNL     1       0.990   3.961  20.749  0.00  0.00    +0.000 A 
ATOM     22  C   UNL     1       2.121   3.141  20.822  0.00  0.00    +0.000 A 
ATOM     23 CL   UNL     1       1.960   1.679  21.747  0.00  0.00    +0.000 Cl
ATOM     24  C   UNL     1       3.322   3.503  20.184  0.00  0.00    +0.000 A 
ATOM     25 CL   UNL     1       4.701   2.456  20.308  0.00  0.00    +0.000 Cl
ENDBRANCH  15  18
ENDBRANCH   1  15
TORSDOF 6
ENDMDL
MODEL 6
REMARK VINA RESULT:      -6.5      1.715      1.905
REMARK  Name = 
REMARK  8 active torsions:
REMARK  status: ('A' for Active; 'I' for Inactive)
REMARK    1  A    between atoms: C_1  and  O_2
REMARK    2  A    between atoms: O_2  and  C_3
REMARK    3  A    between atoms: CA_5  and  C_6
REMARK    4  A    between atoms: C_6  and  O_7
REMARK    5  A    between atoms: C_8  and  C_9
REMARK    6  A    between atoms: C_11  and  N_12
REMARK    7  A    between atoms: N_12  and  S_13
REMARK    8  A    between atoms: S_13  and  C_16
REMARK                            x       y       z     vdW  Elec       q    Type
REMARK                         _______ _______ _______ _____ _____    ______ ____
ROOT
ATOM      1  N   UNL     1       4.766   5.337  17.476  0.00  0.00    +0.000 N 
ATOM      2  H   UNL     1       3.794   5.487  17.210  0.00  0.00    +0.000 HD
ENDROOT
BRANCH   1   9
ATOM      3  C   UNL     1       6.958   5.722  16.358  0.00  0.00    +0.000 A 
ATOM      4  N   UNL     1       7.739   5.640  15.251  0.00  0.00    +0.000 NA
ATOM      5  CA  UNL     1       7.168   5.069  14.150  0.00  0.00    +0.000 A 
ATOM      6  C   UNL     1       5.837   4.624  14.161  0.00  0.00    +0.000 A 
ATOM      7  C   UNL     1       5.177   3.960  12.991  0.00  0.00    +0.000 C 
ATOM      8  N   UNL     1       5.052   4.734  15.274  0.00  0.00    +0.000 NA
ATOM      9  C   UNL     1       5.635   5.287  16.357  0.00  0.00    +0.000 A 
BRANCH   3  11
ATOM     10  C   UNL     1       7.400   7.802  17.350  0.00  0.00    +0.000 C 
ATOM     11  O   UNL     1       7.435   6.385  17.469  0.00  0.00    +0.000 OA
ENDBRANCH   3  11
BRANCH   5  12
ATOM     12  C   UNL     1       8.018   5.044  12.898  0.00  0.00    +0.000 C 
BRANCH  12  13
ATOM     13  O   UNL     1       9.008   6.073  12.896  0.00  0.00    +0.000 OA
ATOM     14  H   UNL     1       9.819   5.653  13.241  0.00  0.00    +0.000 HD
ENDBRANCH  12  13
ENDBRANCH   5  12
ENDBRANCH   1   9
BRANCH   1  15
ATOM     15  S   UNL     1       4.870   4.050  18.557  0.00  0.00    +0.000 S 
ATOM     16  O   UNL     1       4.938   2.837  17.767  0.00  0.00    +0.000 OA
ATOM     17  O   UNL     1       5.895   4.345  19.540  0.00  0.00    +0.000 OA
BRANCH  15  18
ATOM     18  C   UNL     1       3.311   4.033  19.390  0.00  0.00    +0.000 A 
ATOM     19  C   UNL     1       2.370   5.021  19.025  0.00  0.00    +0.000 A 
ATOM     20  C   UNL     1       1.141   5.097  19.674  0.00  0.00    +0.000 A 
ATOM     21  C   UNL     1       0.843   4.199  20.690  0.00  0.00    +0.000 A 
ATOM     22  C   UNL     1       1.772   3.219  21.056  0.00  0.00    +0.000 A 
ATOM     23 CL   UNL     1       1.305   2.151  22.343  0.00  0.00    +0.000 Cl
ATOM     24  C   UNL     1       3.020   3.127  20.412  0.00  0.00    +0.000 A 
ATOM     25 CL   UNL     1       4.142   1.897  20.905  0.00  0.00    +0.000 Cl
ENDBRANCH  15  18
ENDBRANCH   1  15
TORSDOF 6
ENDMDL
MODEL 7
REMARK VINA RESULT:      -6.4      0.898      1.024
REMARK  Name = 
REMARK  8 active torsions:
REMARK  status: ('A' for Active; 'I' for Inactive)
REMARK    1  A    between atoms: C_1  and  O_2
REMARK    2  A    between atoms: O_2  and  C_3
REMARK    3  A    between atoms: CA_5  and  C_6
REMARK    4  A    between atoms: C_6  and  O_7
REMARK    5  A    between atoms: C_8  and  C_9
REMARK    6  A    between atoms: C_11  and  N_12
REMARK    7  A    between atoms: N_12  and  S_13
REMARK    8  A    between atoms: S_13  and  C_16
REMARK                            x       y       z     vdW  Elec       q    Type
REMARK                         _______ _______ _______ _____ _____    ______ ____
ROOT
ATOM      1  N   UNL     1       4.405   5.445  17.472  0.00  0.00    +0.000 N 
ATOM      2  H   UNL     1       3.486   5.113  17.180  0.00  0.00    +0.000 HD
ENDROOT
BRANCH   1   9
ATOM      3  C   UNL     1       6.563   6.098  16.417  0.00  0.00    +0.000 A 
ATOM      4  N   UNL     1       7.438   6.004  15.383  0.00  0.00    +0.000 NA
ATOM      5  CA  UNL     1       7.091   5.153  14.374  0.00  0.00    +0.000 A 
ATOM      6  C   UNL     1       5.879   4.445  14.396  0.00  0.00    +0.000 A 
ATOM      7  C   UNL     1       5.470   3.474  13.330  0.00  0.00    +0.000 C 
ATOM      8  N   UNL     1       4.995   4.566  15.430  0.00  0.00    +0.000 NA
ATOM      9  C   UNL     1       5.359   5.398  16.426  0.00  0.00    +0.000 A 
BRANCH   3  11
ATOM     10  C   UNL     1       7.984   6.762  18.163  0.00  0.00    +0.000 C 
ATOM     11  O   UNL     1       6.800   7.019  17.416  0.00  0.00    +0.000 OA
ENDBRANCH   3  11
BRANCH   5  12
ATOM     12  C   UNL     1       8.034   5.105  13.192  0.00  0.00    +0.000 C 
BRANCH  12  13
ATOM     13  O   UNL     1       9.075   6.078  13.290  0.00  0.00    +0.000 OA
ATOM     14  H   UNL     1       8.621   6.927  13.450  0.00  0.00    +0.000 HD
ENDBRANCH  12  13
ENDBRANCH   5  12
ENDBRANCH   1   9
BRANCH   1  15
ATOM     15  S   UNL     1       4.846   4.700  18.917  0.00  0.00    +0.000 S 
ATOM     16  O   UNL     1       5.682   3.568  18.572  0.00  0.00    +0.000 OA
ATOM     17  O   UNL     1       5.324   5.712  19.840  0.00  0.00    +0.000 OA
BRANCH  15  18
ATOM     18  C   UNL     1       3.338   4.044  19.566  0.00  0.00    +0.000 A 
ATOM     19  C   UNL     1       3.055   4.295  20.927  0.00  0.00    +0.000 A 
ATOM     20  C   UNL     1       1.911   3.767  21.517  0.00  0.00    +0.000 A 
ATOM     21  C   UNL     1       1.046   2.985  20.764  0.00  0.00    +0.000 A 
ATOM     22  C   UNL     1       1.323   2.732  19.416  0.00  0.00    +0.000 A 
ATOM     23 CL   UNL     1       0.183   1.735  18.565  0.00  0.00    +0.000 Cl
ATOM     24  C   UNL     1       2.475   3.256  18.801  0.00  0.00    +0.000 A 
ATOM     25 CL   UNL     1       2.779   2.911  17.127  0.00  0.00    +0.000 Cl
ENDBRANCH  15  18
ENDBRANCH   1  15
TORSDOF 6
ENDMDL
MODEL 8
REMARK VINA RESULT:      -6.4      1.688      1.846
REMARK  Name = 
REMARK  8 active torsions:
REMARK  status: ('A' for Active; 'I' for Inactive)
REMARK    1  A    between atoms: C_1  and  O_2
REMARK    2  A    between atoms: O_2  and  C_3
REMARK    3  A    between atoms: CA_5  and  C_6
REMARK    4  A    between atoms: C_6  and  O_7
REMARK    5  A    between atoms: C_8  and  C_9
REMARK    6  A    between atoms: C_11  and  N_12
REMARK    7  A    between atoms: N_12  and  S_13
REMARK    8  A    between atoms: S_13  and  C_16
REMARK                            x       y       z     vdW  Elec       q    Type
REMARK                         _______ _______ _______ _____ _____    ______ ____
ROOT
ATOM      1  N   UNL     1       5.420   3.182  16.927  0.00  0.00    +0.000 N 
ATOM      2  H   UNL     1       6.023   3.033  17.735  0.00  0.00    +0.000 HD
ENDROOT
BRANCH   1   9
ATOM      3  C   UNL     1       7.058   4.828  16.028  0.00  0.00    +0.000 A 
ATOM      4  N   UNL     1       7.662   5.420  14.967  0.00  0.00    +0.000 NA
ATOM      5  CA  UNL     1       7.292   4.968  13.733  0.00  0.00    +0.000 A 
ATOM      6  C   UNL     1       6.318   3.970  13.579  0.00  0.00    +0.000 A 
ATOM      7  C   UNL     1       5.904   3.417  12.249  0.00  0.00    +0.000 C 
ATOM      8  N   UNL     1       5.699   3.398  14.654  0.00  0.00    +0.000 NA
ATOM      9  C   UNL     1       6.085   3.845  15.866  0.00  0.00    +0.000 A 
BRANCH   3  11
ATOM     10  C   UNL     1       7.360   6.730  17.369  0.00  0.00    +0.000 C 
ATOM     11  O   UNL     1       7.305   5.310  17.297  0.00  0.00    +0.000 OA
ENDBRANCH   3  11
BRANCH   5  12
ATOM     12  C   UNL     1       7.915   5.679  12.551  0.00  0.00    +0.000 C 
BRANCH  12  13
ATOM     13  O   UNL     1       9.186   6.247  12.869  0.00  0.00    +0.000 OA
ATOM     14  H   UNL     1       9.825   5.513  12.787  0.00  0.00    +0.000 HD
ENDBRANCH  12  13
ENDBRANCH   5  12
ENDBRANCH   1   9
BRANCH   1  15
ATOM     15  S   UNL     1       3.958   3.852  17.424  0.00  0.00    +0.000 S 
ATOM     16  O   UNL     1       4.176   5.275  17.582  0.00  0.00    +0.000 OA
ATOM     17  O   UNL     1       2.900   3.362  16.561  0.00  0.00    +0.000 OA
BRANCH  15  18
ATOM     18  C   UNL     1       3.685   3.193  19.042  0.00  0.00    +0.000 A 
ATOM     19  C   UNL     1       4.725   2.429  19.614  0.00  0.00    +0.000 A 
ATOM     20  C   UNL     1       4.561   1.839  20.864  0.00  0.00    +0.000 A 
ATOM     21  C   UNL     1       3.363   1.998  21.547  0.00  0.00    +0.000 A 
ATOM     22  C   UNL     1       2.328   2.752  20.984  0.00  0.00    +0.000 A 
ATOM     23 CL   UNL     1       0.868   2.883  21.916  0.00  0.00    +0.000 Cl
ATOM     24  C   UNL     1       2.476   3.356  19.721  0.00  0.00    +0.000 A 
ATOM     25 CL   UNL     1       1.162   4.279  19.060  0.00  0.00    +0.000 Cl
ENDBRANCH  15  18
ENDBRANCH   1  15
TORSDOF 6
ENDMDL
MODEL 9
REMARK VINA RESULT:      -6.4      1.372      1.601
REMARK  Name = 
REMARK  8 active torsions:
REMARK  status: ('A' for Active; 'I' for Inactive)
REMARK    1  A    between atoms: C_1  and  O_2
REMARK    2  A    between atoms: O_2  and  C_3
REMARK    3  A    between atoms: CA_5  and  C_6
REMARK    4  A    between atoms: C_6  and  O_7
REMARK    5  A    between atoms: C_8  and  C_9
REMARK    6  A    between atoms: C_11  and  N_12
REMARK    7  A    between atoms: N_12  and  S_13
REMARK    8  A    between atoms: S_13  and  C_16
REMARK                            x       y       z     vdW  Elec       q    Type
REMARK                         _______ _______ _______ _____ _____    ______ ____
ROOT
ATOM      1  N   UNL     1       5.947   3.820  17.368  0.00  0.00    +0.000 N 
ATOM      2  H   UNL     1       6.687   3.444  17.959  0.00  0.00    +0.000 HD
ENDROOT
BRANCH   1   9
ATOM      3  C   UNL     1       7.428   5.209  15.927  0.00  0.00    +0.000 A 
ATOM      4  N   UNL     1       7.845   5.582  14.691  0.00  0.00    +0.000 NA
ATOM      5  CA  UNL     1       7.257   4.944  13.637  0.00  0.00    +0.000 A 
ATOM      6  C   UNL     1       6.253   3.982  13.830  0.00  0.00    +0.000 A 
ATOM      7  C   UNL     1       5.602   3.230  12.708  0.00  0.00    +0.000 C 
ATOM      8  N   UNL     1       5.824   3.632  15.079  0.00  0.00    +0.000 NA
ATOM      9  C   UNL     1       6.425   4.260  16.109  0.00  0.00    +0.000 A 
BRANCH   3  11
ATOM     10  C   UNL     1       7.615   7.282  17.011  0.00  0.00    +0.000 C 
ATOM     11  O   UNL     1       7.903   5.888  17.030  0.00  0.00    +0.000 OA
ENDBRANCH   3  11
BRANCH   5  12
ATOM     12  C   UNL     1       7.673   5.413  12.260  0.00  0.00    +0.000 C 
BRANCH  12  13
ATOM     13  O   UNL     1       8.698   6.406  12.313  0.00  0.00    +0.000 OA
ATOM     14  H   UNL     1       9.498   5.972  11.960  0.00  0.00    +0.000 HD
ENDBRANCH  12  13
ENDBRANCH   5  12
ENDBRANCH   1   9
BRANCH   1  15
ATOM     15  S   UNL     1       5.026   4.925  18.242  0.00  0.00    +0.000 S 
ATOM     16  O   UNL     1       5.790   5.273  19.423  0.00  0.00    +0.000 OA
ATOM     17  O   UNL     1       4.554   5.960  17.342  0.00  0.00    +0.000 OA
BRANCH  15  18
ATOM     18  C   UNL     1       3.620   4.007  18.794  0.00  0.00    +0.000 A 
ATOM     19  C   UNL     1       3.597   2.624  18.509  0.00  0.00    +0.000 A 
ATOM     20  C   UNL     1       2.500   1.848  18.871  0.00  0.00    +0.000 A 
ATOM     21  C   UNL     1       1.419   2.440  19.510  0.00  0.00    +0.000 A 
ATOM     22  C   UNL     1       1.436   3.810  19.793  0.00  0.00    +0.000 A 
ATOM     23 CL   UNL     1       0.032   4.455  20.587  0.00  0.00    +0.000 Cl
ATOM     24  C   UNL     1       2.536   4.611  19.435  0.00  0.00    +0.000 A 
ATOM     25 CL   UNL     1       2.510   6.308  19.803  0.00  0.00    +0.000 Cl
ENDBRANCH  15  18
ENDBRANCH   1  15
TORSDOF 6
ENDMDL
