MODEL 1
REMARK VINA RESULT:      -6.3      0.000      0.000
REMARK  Name = 
REMARK  7 active torsions:
REMARK  status: ('A' for Active; 'I' for Inactive)
REMARK    1  A    between atoms: C_1  and  C_2
REMARK    2  A    between atoms: C_2  and  C_3
REMARK    3  A    between atoms: C_2  and  C_4
REMARK    4  A    between atoms: C_2  and  N_5
REMARK    5  A    between atoms: C_6  and  S_7
REMARK    6  A    between atoms: N_8  and  N_9
REMARK    7  A    between atoms: C_10  and  C_12
REMARK                            x       y       z     vdW  Elec       q    Type
REMARK                         _______ _______ _______ _____ _____    ______ ____
ROOT
ATOM      1  N   UNL     1       2.523   7.512  18.924  0.00  0.00    +0.000 N 
ATOM      2  C   UNL     1       2.013   8.643  18.312  0.00  0.00    +0.000 C 
ATOM      3  O   UNL     1       2.305   8.983  17.170  0.00  0.00    +0.000 OA
ATOM      4  H   UNL     1       2.134   7.081  19.763  0.00  0.00    +0.000 HD
ENDROOT
BRANCH   2   5
ATOM      5  C   UNL     1       1.067   9.450  19.119  0.00  0.00    +0.000 A 
ATOM      6  C   UNL     1       0.276  10.443  18.524  0.00  0.00    +0.000 A 
ATOM      7  C   UNL     1      -0.633  11.165  19.298  0.00  0.00    +0.000 A 
ATOM      8  C   UNL     1      -0.754  10.898  20.663  0.00  0.00    +0.000 A 
ATOM      9  C   UNL     1       0.027   9.902  21.248  0.00  0.00    +0.000 A 
ATOM     10 BR   UNL     1      -0.149   9.543  23.096  0.00  0.00    +0.000 Br
ATOM     11  C   UNL     1       0.933   9.168  20.483  0.00  0.00    +0.000 A 
ENDBRANCH   2   5
BRANCH   1  14
ATOM     12  N   UNL     1       2.341   4.743  18.988  0.00  0.00    +0.000 NA
ATOM     13  C   UNL     1       3.352   5.342  18.471  0.00  0.00    +0.000 C 
ATOM     14  N   UNL     1       3.325   6.676  18.136  0.00  0.00    +0.000 N 
ATOM     15  H   UNL     1       4.229   7.090  17.899  0.00  0.00    +0.000 HD
BRANCH  12  17
ATOM     16  C   UNL     1       3.174   2.887  20.398  0.00  0.00    +0.000 C 
ATOM     17  C   UNL     1       2.138   3.345  19.367  0.00  0.00    +0.000 C 
ATOM     18  C   UNL     1       2.039   2.414  18.152  0.00  0.00    +0.000 C 
ATOM     19  C   UNL     1       0.759   3.301  20.067  0.00  0.00    +0.000 C 
ENDBRANCH  12  17
BRANCH  13  20
ATOM     20  S   UNL     1       4.917   4.659  18.082  0.00  0.00    +0.000 S 
ATOM     21  H   UNL     1       4.520   3.493  17.580  0.00  0.00    +0.000 HD
ENDBRANCH  13  20
ENDBRANCH   1  14
TORSDOF 4
ENDMDL
MODEL 2
REMARK VINA RESULT:      -6.1      3.619      6.934
REMARK  Name = 
REMARK  7 active torsions:
REMARK  status: ('A' for Active; 'I' for Inactive)
REMARK    1  A    between atoms: C_1  and  C_2
REMARK    2  A    between atoms: C_2  and  C_3
REMARK    3  A    between atoms: C_2  and  C_4
REMARK    4  A    between atoms: C_2  and  N_5
REMARK    5  A    between atoms: C_6  and  S_7
REMARK    6  A    between atoms: N_8  and  N_9
REMARK    7  A    between atoms: C_10  and  C_12
REMARK                            x       y       z     vdW  Elec       q    Type
REMARK                         _______ _______ _______ _____ _____    ______ ____
ROOT
ATOM      1  N   UNL     1       2.431   6.831  20.399  0.00  0.00    +0.000 N 
ATOM      2  C   UNL     1       2.325   5.528  19.946  0.00  0.00    +0.000 C 
ATOM      3  O   UNL     1       1.427   4.765  20.287  0.00  0.00    +0.000 OA
ATOM      4  H   UNL     1       3.015   7.549  19.970  0.00  0.00    +0.000 HD
ENDROOT
BRANCH   2   5
ATOM      5  C   UNL     1       3.375   5.080  19.000  0.00  0.00    +0.000 A 
ATOM      6  C   UNL     1       3.050   4.321  17.868  0.00  0.00    +0.000 A 
ATOM      7  C   UNL     1       4.051   3.941  16.973  0.00  0.00    +0.000 A 
ATOM      8  C   UNL     1       5.375   4.318  17.206  0.00  0.00    +0.000 A 
ATOM      9  C   UNL     1       5.692   5.084  18.328  0.00  0.00    +0.000 A 
ATOM     10 BR   UNL     1       7.487   5.596  18.631  0.00  0.00    +0.000 Br
ATOM     11  C   UNL     1       4.699   5.476  19.224  0.00  0.00    +0.000 A 
ENDBRANCH   2   5
BRANCH   1  14
ATOM     12  N   UNL     1       1.108   9.218  19.897  0.00  0.00    +0.000 NA
ATOM     13  C   UNL     1       1.018   8.621  21.030  0.00  0.00    +0.000 C 
ATOM     14  N   UNL     1       1.385   7.306  21.200  0.00  0.00    +0.000 N 
ATOM     15  H   UNL     1       1.440   6.985  22.170  0.00  0.00    +0.000 HD
BRANCH  12  17
ATOM     16  C   UNL     1       1.144  11.609  20.535  0.00  0.00    +0.000 C 
ATOM     17  C   UNL     1       0.733  10.571  19.486  0.00  0.00    +0.000 C 
ATOM     18  C   UNL     1      -0.742  10.674  19.076  0.00  0.00    +0.000 C 
ATOM     19  C   UNL     1       1.564  10.864  18.214  0.00  0.00    +0.000 C 
ENDBRANCH  12  17
BRANCH  13  20
ATOM     20  S   UNL     1       0.440   9.283  22.545  0.00  0.00    +0.000 S 
ATOM     21  H   UNL     1      -0.863   9.073  22.384  0.00  0.00    +0.000 HD
ENDBRANCH  13  20
ENDBRANCH   1  14
TORSDOF 4
ENDMDL
MODEL 3
REMARK VINA RESULT:      -6.1      0.103      1.017
REMARK  Name = 
REMARK  7 active torsions:
REMARK  status: ('A' for Active; 'I' for Inactive)
REMARK    1  A    between atoms: C_1  and  C_2
REMARK    2  A    between atoms: C_2  and  C_3
REMARK    3  A    between atoms: C_2  and  C_4
REMARK    4  A    between atoms: C_2  and  N_5
REMARK    5  A    between atoms: C_6  and  S_7
REMARK    6  A    between atoms: N_8  and  N_9
REMARK    7  A    between atoms: C_10  and  C_12
REMARK                            x       y       z     vdW  Elec       q    Type
REMARK                         _______ _______ _______ _____ _____    ______ ____
ROOT
ATOM      1  N   UNL     1       2.553   7.507  18.947  0.00  0.00    +0.000 N 
ATOM      2  C   UNL     1       2.025   8.624  18.326  0.00  0.00    +0.000 C 
ATOM      3  O   UNL     1       2.311   8.959  17.180  0.00  0.00    +0.000 OA
ATOM      4  H   UNL     1       2.172   7.077  19.790  0.00  0.00    +0.000 HD
ENDROOT
BRANCH   2   5
ATOM      5  C   UNL     1       1.066   9.423  19.126  0.00  0.00    +0.000 A 
ATOM      6  C   UNL     1       0.256  10.394  18.523  0.00  0.00    +0.000 A 
ATOM      7  C   UNL     1      -0.664  11.108  19.291  0.00  0.00    +0.000 A 
ATOM      8  C   UNL     1      -0.776  10.855  20.659  0.00  0.00    +0.000 A 
ATOM      9  C   UNL     1       0.024   9.879  21.253  0.00  0.00    +0.000 A 
ATOM     10 BR   UNL     1      -0.141   9.538  23.106  0.00  0.00    +0.000 Br
ATOM     11  C   UNL     1       0.941   9.153  20.494  0.00  0.00    +0.000 A 
ENDBRANCH   2   5
BRANCH   1  14
ATOM     12  N   UNL     1       2.382   4.737  19.000  0.00  0.00    +0.000 NA
ATOM     13  C   UNL     1       3.397   5.342  18.497  0.00  0.00    +0.000 C 
ATOM     14  N   UNL     1       3.368   6.677  18.166  0.00  0.00    +0.000 N 
ATOM     15  H   UNL     1       4.273   7.096  17.941  0.00  0.00    +0.000 HD
BRANCH  12  17
ATOM     16  C   UNL     1       0.807   3.119  20.012  0.00  0.00    +0.000 C 
ATOM     17  C   UNL     1       2.181   3.336  19.372  0.00  0.00    +0.000 C 
ATOM     18  C   UNL     1       3.337   2.779  20.212  0.00  0.00    +0.000 C 
ATOM     19  C   UNL     1       2.186   2.549  18.040  0.00  0.00    +0.000 C 
ENDBRANCH  12  17
BRANCH  13  20
ATOM     20  S   UNL     1       4.969   4.667  18.124  0.00  0.00    +0.000 S 
ATOM     21  H   UNL     1       5.619   5.791  17.837  0.00  0.00    +0.000 HD
ENDBRANCH  13  20
ENDBRANCH   1  14
TORSDOF 4
ENDMDL
MODEL 4
REMARK VINA RESULT:      -6.1      2.527      3.597
REMARK  Name = 
REMARK  7 active torsions:
REMARK  status: ('A' for Active; 'I' for Inactive)
REMARK    1  A    between atoms: C_1  and  C_2
REMARK    2  A    between atoms: C_2  and  C_3
REMARK    3  A    between atoms: C_2  and  C_4
REMARK    4  A    between atoms: C_2  and  N_5
REMARK    5  A    between atoms: C_6  and  S_7
REMARK    6  A    between atoms: N_8  and  N_9
REMARK    7  A    between atoms: C_10  and  C_12
REMARK                            x       y       z     vdW  Elec       q    Type
REMARK                         _______ _______ _______ _____ _____    ______ ____
ROOT
ATOM      1  N   UNL     1       3.187   6.642  19.763  0.00  0.00    +0.000 N 
ATOM      2  C   UNL     1       1.943   6.803  20.346  0.00  0.00    +0.000 C 
ATOM      3  O   UNL     1       1.311   5.882  20.854  0.00  0.00    +0.000 OA
ATOM      4  H   UNL     1       3.828   7.405  19.545  0.00  0.00    +0.000 HD
ENDROOT
BRANCH   2   5
ATOM      5  C   UNL     1       1.389   8.178  20.331  0.00  0.00    +0.000 A 
ATOM      6  C   UNL     1       1.514   8.995  19.200  0.00  0.00    +0.000 A 
ATOM      7  C   UNL     1       0.952  10.272  19.197  0.00  0.00    +0.000 A 
ATOM      8  C   UNL     1       0.266  10.734  20.321  0.00  0.00    +0.000 A 
ATOM      9  C   UNL     1       0.133   9.913  21.441  0.00  0.00    +0.000 A 
ATOM     10 BR   UNL     1      -0.806  10.546  22.955  0.00  0.00    +0.000 Br
ATOM     11  C   UNL     1       0.683   8.632  21.451  0.00  0.00    +0.000 A 
ENDBRANCH   2   5
BRANCH   1  14
ATOM     12  N   UNL     1       5.462   5.906  18.355  0.00  0.00    +0.000 NA
ATOM     13  C   UNL     1       4.704   5.035  18.915  0.00  0.00    +0.000 C 
ATOM     14  N   UNL     1       3.775   5.375  19.872  0.00  0.00    +0.000 N 
ATOM     15  H   UNL     1       3.109   4.641  20.122  0.00  0.00    +0.000 HD
BRANCH  12  17
ATOM     16  C   UNL     1       5.973   5.573  15.956  0.00  0.00    +0.000 C 
ATOM     17  C   UNL     1       6.533   5.760  17.368  0.00  0.00    +0.000 C 
ATOM     18  C   UNL     1       7.554   4.685  17.764  0.00  0.00    +0.000 C 
ATOM     19  C   UNL     1       7.291   7.109  17.377  0.00  0.00    +0.000 C 
ENDBRANCH  12  17
BRANCH  13  20
ATOM     20  S   UNL     1       4.662   3.308  18.629  0.00  0.00    +0.000 S 
ATOM     21  H   UNL     1       3.345   3.136  18.564  0.00  0.00    +0.000 HD
ENDBRANCH  13  20
ENDBRANCH   1  14
TORSDOF 4
ENDMDL
MODEL 5
REMARK VINA RESULT:      -6.1      1.439      2.000
REMARK  Name = 
REMARK  7 active torsions:
REMARK  status: ('A' for Active; 'I' for Inactive)
REMARK    1  A    between atoms: C_1  and  C_2
REMARK    2  A    between atoms: C_2  and  C_3
REMARK    3  A    between atoms: C_2  and  C_4
REMARK    4  A    between atoms: C_2  and  N_5
REMARK    5  A    between atoms: C_6  and  S_7
REMARK    6  A    between atoms: N_8  and  N_9
REMARK    7  A    between atoms: C_10  and  C_12
REMARK                            x       y       z     vdW  Elec       q    Type
REMARK                         _______ _______ _______ _____ _____    ______ ____
ROOT
ATOM      1  N   UNL     1       1.968   7.962  19.609  0.00  0.00    +0.000 N 
ATOM      2  C   UNL     1       1.277   9.152  19.478  0.00  0.00    +0.000 C 
ATOM      3  O   UNL     1       1.251   9.809  18.441  0.00  0.00    +0.000 OA
ATOM      4  H   UNL     1       1.826   7.288  20.360  0.00  0.00    +0.000 HD
ENDROOT
BRANCH   2   5
ATOM      5  C   UNL     1       0.542   9.615  20.680  0.00  0.00    +0.000 A 
ATOM      6  C   UNL     1       0.153   8.714  21.679  0.00  0.00    +0.000 A 
ATOM      7  C   UNL     1      -0.505   9.179  22.819  0.00  0.00    +0.000 A 
ATOM      8  C   UNL     1      -0.774  10.542  22.961  0.00  0.00    +0.000 A 
ATOM      9  C   UNL     1      -0.374  11.437  21.969  0.00  0.00    +0.000 A 
ATOM     10 BR   UNL     1      -0.736  13.281  22.176  0.00  0.00    +0.000 Br
ATOM     11  C   UNL     1       0.292  10.984  20.831  0.00  0.00    +0.000 A 
ENDBRANCH   2   5
BRANCH   1  14
ATOM     12  N   UNL     1       2.127   5.247  19.058  0.00  0.00    +0.000 NA
ATOM     13  C   UNL     1       2.850   6.105  18.435  0.00  0.00    +0.000 C 
ATOM     14  N   UNL     1       2.570   7.452  18.450  0.00  0.00    +0.000 N 
ATOM     15  H   UNL     1       3.301   8.060  18.074  0.00  0.00    +0.000 HD
BRANCH  12  17
ATOM     16  C   UNL     1       3.416   3.338  19.964  0.00  0.00    +0.000 C 
ATOM     17  C   UNL     1       2.211   3.788  19.133  0.00  0.00    +0.000 C 
ATOM     18  C   UNL     1       2.144   3.123  17.752  0.00  0.00    +0.000 C 
ATOM     19  C   UNL     1       0.944   3.338  19.899  0.00  0.00    +0.000 C 
ENDBRANCH  12  17
BRANCH  13  20
ATOM     20  S   UNL     1       4.279   5.802  17.469  0.00  0.00    +0.000 S 
ATOM     21  H   UNL     1       4.937   6.934  17.704  0.00  0.00    +0.000 HD
ENDBRANCH  13  20
ENDBRANCH   1  14
TORSDOF 4
ENDMDL
MODEL 6
REMARK VINA RESULT:      -6.1      0.190      1.013
REMARK  Name = 
REMARK  7 active torsions:
REMARK  status: ('A' for Active; 'I' for Inactive)
REMARK    1  A    between atoms: C_1  and  C_2
REMARK    2  A    between atoms: C_2  and  C_3
REMARK    3  A    between atoms: C_2  and  C_4
REMARK    4  A    between atoms: C_2  and  N_5
REMARK    5  A    between atoms: C_6  and  S_7
REMARK    6  A    between atoms: N_8  and  N_9
REMARK    7  A    between atoms: C_10  and  C_12
REMARK                            x       y       z     vdW  Elec       q    Type
REMARK                         _______ _______ _______ _____ _____    ______ ____
ROOT
ATOM      1  N   UNL     1       2.513   7.523  18.848  0.00  0.00    +0.000 N 
ATOM      2  C   UNL     1       1.985   8.664  18.272  0.00  0.00    +0.000 C 
ATOM      3  O   UNL     1       2.270   9.044  17.140  0.00  0.00    +0.000 OA
ATOM      4  H   UNL     1       2.134   7.061  19.674  0.00  0.00    +0.000 HD
ENDROOT
BRANCH   2   5
ATOM      5  C   UNL     1       1.029   9.432  19.105  0.00  0.00    +0.000 A 
ATOM      6  C   UNL     1       0.165  10.374  18.530  0.00  0.00    +0.000 A 
ATOM      7  C   UNL     1      -0.751  11.058  19.329  0.00  0.00    +0.000 A 
ATOM      8  C   UNL     1      -0.807  10.803  20.701  0.00  0.00    +0.000 A 
ATOM      9  C   UNL     1       0.047   9.856  21.267  0.00  0.00    +0.000 A 
ATOM     10 BR   UNL     1      -0.042   9.513  23.124  0.00  0.00    +0.000 Br
ATOM     11  C   UNL     1       0.960   9.160  20.476  0.00  0.00    +0.000 A 
ENDBRANCH   2   5
BRANCH   1  14
ATOM     12  N   UNL     1       2.341   4.753  18.791  0.00  0.00    +0.000 NA
ATOM     13  C   UNL     1       3.355   5.377  18.311  0.00  0.00    +0.000 C 
ATOM     14  N   UNL     1       3.326   6.724  18.033  0.00  0.00    +0.000 N 
ATOM     15  H   UNL     1       4.232   7.151  17.823  0.00  0.00    +0.000 HD
BRANCH  12  17
ATOM     16  C   UNL     1       2.361   2.453  17.880  0.00  0.00    +0.000 C 
ATOM     17  C   UNL     1       2.139   3.339  19.108  0.00  0.00    +0.000 C 
ATOM     18  C   UNL     1       0.800   3.079  19.810  0.00  0.00    +0.000 C 
ATOM     19  C   UNL     1       3.246   2.981  20.128  0.00  0.00    +0.000 C 
ENDBRANCH  12  17
BRANCH  13  20
ATOM     20  S   UNL     1       4.926   4.716  17.909  0.00  0.00    +0.000 S 
ATOM     21  H   UNL     1       5.209   5.471  16.852  0.00  0.00    +0.000 HD
ENDBRANCH  13  20
ENDBRANCH   1  14
TORSDOF 4
ENDMDL
MODEL 7
REMARK VINA RESULT:      -6.1      1.244      1.699
REMARK  Name = 
REMARK  7 active torsions:
REMARK  status: ('A' for Active; 'I' for Inactive)
REMARK    1  A    between atoms: C_1  and  C_2
REMARK    2  A    between atoms: C_2  and  C_3
REMARK    3  A    between atoms: C_2  and  C_4
REMARK    4  A    between atoms: C_2  and  N_5
REMARK    5  A    between atoms: C_6  and  S_7
REMARK    6  A    between atoms: N_8  and  N_9
REMARK    7  A    between atoms: C_10  and  C_12
REMARK                            x       y       z     vdW  Elec       q    Type
REMARK                         _______ _______ _______ _____ _____    ______ ____
ROOT
ATOM      1  N   UNL     1       2.593   7.224  18.904  0.00  0.00    +0.000 N 
ATOM      2  C   UNL     1       2.014   8.423  18.529  0.00  0.00    +0.000 C 
ATOM      3  O   UNL     1       2.169   8.932  17.423  0.00  0.00    +0.000 OA
ATOM      4  H   UNL     1       2.307   6.669  19.710  0.00  0.00    +0.000 HD
ENDROOT
BRANCH   2   5
ATOM      5  C   UNL     1       1.172   9.089  19.552  0.00  0.00    +0.000 A 
ATOM      6  C   UNL     1       1.170   8.649  20.883  0.00  0.00    +0.000 A 
ATOM      7  C   UNL     1       0.397   9.314  21.835  0.00  0.00    +0.000 A 
ATOM      8  C   UNL     1      -0.373  10.417  21.461  0.00  0.00    +0.000 A 
ATOM      9  C   UNL     1      -0.359  10.859  20.138  0.00  0.00    +0.000 A 
ATOM     10 BR   UNL     1      -1.399  12.359  19.643  0.00  0.00    +0.000 Br
ATOM     11  C   UNL     1       0.417  10.207  19.180  0.00  0.00    +0.000 A 
ENDBRANCH   2   5
BRANCH   1  14
ATOM     12  N   UNL     1       2.627   4.454  18.743  0.00  0.00    +0.000 NA
ATOM     13  C   UNL     1       3.480   5.178  18.113  0.00  0.00    +0.000 C 
ATOM     14  N   UNL     1       3.295   6.526  17.913  0.00  0.00    +0.000 N 
ATOM     15  H   UNL     1       4.107   7.036  17.559  0.00  0.00    +0.000 HD
BRANCH  12  17
ATOM     16  C   UNL     1       3.747   2.603  19.946  0.00  0.00    +0.000 C 
ATOM     17  C   UNL     1       2.599   3.017  19.021  0.00  0.00    +0.000 C 
ATOM     18  C   UNL     1       2.514   2.173  17.743  0.00  0.00    +0.000 C 
ATOM     19  C   UNL     1       1.284   2.771  19.798  0.00  0.00    +0.000 C 
ENDBRANCH  12  17
BRANCH  13  20
ATOM     20  S   UNL     1       4.992   4.667  17.391  0.00  0.00    +0.000 S 
ATOM     21  H   UNL     1       5.768   5.669  17.796  0.00  0.00    +0.000 HD
ENDBRANCH  13  20
ENDBRANCH   1  14
TORSDOF 4
ENDMDL
MODEL 8
REMARK VINA RESULT:      -6.0      5.894      8.166
REMARK  Name = 
REMARK  7 active torsions:
REMARK  status: ('A' for Active; 'I' for Inactive)
REMARK    1  A    between atoms: C_1  and  C_2
REMARK    2  A    between atoms: C_2  and  C_3
REMARK    3  A    between atoms: C_2  and  C_4
REMARK    4  A    between atoms: C_2  and  N_5
REMARK    5  A    between atoms: C_6  and  S_7
REMARK    6  A    between atoms: N_8  and  N_9
REMARK    7  A    between atoms: C_10  and  C_12
REMARK                            x       y       z     vdW  Elec       q    Type
REMARK                         _______ _______ _______ _____ _____    ______ ____
ROOT
ATOM      1  N   UNL     1       6.276   3.983  16.347  0.00  0.00    +0.000 N 
ATOM      2  C   UNL     1       6.842   5.013  15.616  0.00  0.00    +0.000 C 
ATOM      3  O   UNL     1       7.224   6.067  16.116  0.00  0.00    +0.000 OA
ATOM      4  H   UNL     1       6.164   3.027  16.011  0.00  0.00    +0.000 HD
ENDROOT
BRANCH   2   5
ATOM      5  C   UNL     1       6.973   4.782  14.158  0.00  0.00    +0.000 A 
ATOM      6  C   UNL     1       7.818   5.578  13.373  0.00  0.00    +0.000 A 
ATOM      7  C   UNL     1       7.953   5.317  12.009  0.00  0.00    +0.000 A 
ATOM      8  C   UNL     1       7.245   4.264  11.427  0.00  0.00    +0.000 A 
ATOM      9  C   UNL     1       6.414   3.467  12.214  0.00  0.00    +0.000 A 
ATOM     10 BR   UNL     1       5.465   2.037  11.417  0.00  0.00    +0.000 Br
ATOM     11  C   UNL     1       6.279   3.712  13.580  0.00  0.00    +0.000 A 
ENDBRANCH   2   5
BRANCH   1  14
ATOM     12  N   UNL     1       4.034   3.444  17.890  0.00  0.00    +0.000 NA
ATOM     13  C   UNL     1       5.018   4.130  18.346  0.00  0.00    +0.000 C 
ATOM     14  N   UNL     1       6.253   4.138  17.739  0.00  0.00    +0.000 N 
ATOM     15  H   UNL     1       6.906   4.848  18.078  0.00  0.00    +0.000 HD
BRANCH  12  17
ATOM     16  C   UNL     1       1.748   4.391  17.959  0.00  0.00    +0.000 C 
ATOM     17  C   UNL     1       2.674   3.252  18.396  0.00  0.00    +0.000 C 
ATOM     18  C   UNL     1       2.641   2.988  19.906  0.00  0.00    +0.000 C 
ATOM     19  C   UNL     1       2.155   1.964  17.713  0.00  0.00    +0.000 C 
ENDBRANCH  12  17
BRANCH  13  20
ATOM     20  S   UNL     1       5.041   5.157  19.764  0.00  0.00    +0.000 S 
ATOM     21  H   UNL     1       6.231   5.726  19.594  0.00  0.00    +0.000 HD
ENDBRANCH  13  20
ENDBRANCH   1  14
TORSDOF 4
ENDMDL
MODEL 9
REMARK VINA RESULT:      -6.0      1.478      2.308
REMARK  Name = 
REMARK  7 active torsions:
REMARK  status: ('A' for Active; 'I' for Inactive)
REMARK    1  A    between atoms: C_1  and  C_2
REMARK    2  A    between atoms: C_2  and  C_3
REMARK    3  A    between atoms: C_2  and  C_4
REMARK    4  A    between atoms: C_2  and  N_5
REMARK    5  A    between atoms: C_6  and  S_7
REMARK    6  A    between atoms: N_8  and  N_9
REMARK    7  A    between atoms: C_10  and  C_12
REMARK                            x       y       z     vdW  Elec       q    Type
REMARK                         _______ _______ _______ _____ _____    ______ ____
ROOT
ATOM      1  N   UNL     1       1.981   8.003  19.764  0.00  0.00    +0.000 N 
ATOM      2  C   UNL     1       1.242   9.163  19.618  0.00  0.00    +0.000 C 
ATOM      3  O   UNL     1       1.178   9.797  18.569  0.00  0.00    +0.000 OA
ATOM      4  H   UNL     1       1.874   7.340  20.531  0.00  0.00    +0.000 HD
ENDROOT
BRANCH   2   5
ATOM      5  C   UNL     1       0.507   9.624  20.820  0.00  0.00    +0.000 A 
ATOM      6  C   UNL     1       0.691   9.001  22.062  0.00  0.00    +0.000 A 
ATOM      7  C   UNL     1       0.016   9.476  23.186  0.00  0.00    +0.000 A 
ATOM      8  C   UNL     1      -0.843  10.571  23.074  0.00  0.00    +0.000 A 
ATOM      9  C   UNL     1      -1.014  11.195  21.839  0.00  0.00    +0.000 A 
ATOM     10 BR   UNL     1      -2.173  12.683  21.698  0.00  0.00    +0.000 Br
ATOM     11  C   UNL     1      -0.337  10.735  20.710  0.00  0.00    +0.000 A 
ENDBRANCH   2   5
BRANCH   1  14
ATOM     12  N   UNL     1       2.100   5.289  19.194  0.00  0.00    +0.000 NA
ATOM     13  C   UNL     1       2.844   6.140  18.586  0.00  0.00    +0.000 C 
ATOM     14  N   UNL     1       2.586   7.491  18.608  0.00  0.00    +0.000 N 
ATOM     15  H   UNL     1       3.331   8.090  18.244  0.00  0.00    +0.000 HD
BRANCH  12  17
ATOM     16  C   UNL     1       0.950   3.251  20.000  0.00  0.00    +0.000 C 
ATOM     17  C   UNL     1       2.159   3.828  19.260  0.00  0.00    +0.000 C 
ATOM     18  C   UNL     1       3.502   3.318  19.799  0.00  0.00    +0.000 C 
ATOM     19  C   UNL     1       2.062   3.344  17.794  0.00  0.00    +0.000 C 
ENDBRANCH  12  17
BRANCH  13  20
ATOM     20  S   UNL     1       4.278   5.820  17.632  0.00  0.00    +0.000 S 
ATOM     21  H   UNL     1       3.733   5.074  16.675  0.00  0.00    +0.000 HD
ENDBRANCH  13  20
ENDBRANCH   1  14
TORSDOF 4
ENDMDL
