MODEL 1
REMARK VINA RESULT:      -7.6      0.000      0.000
REMARK  Name = 
REMARK  6 active torsions:
REMARK  status: ('A' for Active; 'I' for Inactive)
REMARK    1  A    between atoms: C_1  and  C_2
REMARK    2  A    between atoms: C_2  and  C_3
REMARK    3  A    between atoms: C_3  and  C_4
REMARK    4  A    between atoms: C_4  and  C_5
REMARK    5  A    between atoms: C_5  and  O_7
REMARK    6  A    between atoms: C_15  and  C_16
REMARK                            x       y       z     vdW  Elec       q    Type
REMARK                         _______ _______ _______ _____ _____    ______ ____
ROOT
ATOM      1  C   UNL     1       6.836   6.260  17.215  0.00  0.00    +0.000 C 
ATOM      2  O   UNL     1       7.217   5.871  15.860  0.00  0.00    +0.000 OA
ATOM      3  C   UNL     1       6.991   4.496  15.498  0.00  0.00    +0.000 C 
ATOM      4  C   UNL     1       5.513   4.076  15.562  0.00  0.00    +0.000 C 
ATOM      5  C   UNL     1       4.870   4.659  16.764  0.00  0.00    +0.000 A 
ATOM      6  C   UNL     1       5.487   5.661  17.476  0.00  0.00    +0.000 A 
ATOM      7  N   UNL     1       4.647   6.032  18.489  0.00  0.00    +0.000 N 
ATOM      8  C   UNL     1       3.494   5.279  18.460  0.00  0.00    +0.000 A 
ATOM      9  C   UNL     1       2.371   5.318  19.309  0.00  0.00    +0.000 A 
ATOM     10  C   UNL     1       1.332   4.427  18.998  0.00  0.00    +0.000 A 
ATOM     11  C   UNL     1       1.410   3.550  17.916  0.00  0.00    +0.000 A 
ATOM     12  C   UNL     1       2.545   3.529  17.097  0.00  0.00    +0.000 A 
ATOM     13  C   UNL     1       3.608   4.407  17.372  0.00  0.00    +0.000 A 
ATOM     14  H   UNL     1       4.860   6.730  19.196  0.00  0.00    +0.000 HD
ENDROOT
BRANCH   9  15
ATOM     15  C   UNL     1       2.316   6.331  20.421  0.00  0.00    +0.000 C 
ATOM     16  C   UNL     1       1.899   7.756  20.135  0.00  0.00    +0.000 C 
ATOM     17  C   UNL     1       0.992   6.863  20.921  0.00  0.00    +0.000 C 
ENDBRANCH   9  15
BRANCH   1  19
ATOM     18  C   UNL     1       8.041   8.468  17.826  0.00  0.00    +0.000 C 
ATOM     19  C   UNL     1       6.813   7.810  17.201  0.00  0.00    +0.000 C 
ENDBRANCH   1  19
BRANCH   1  20
ATOM     20  C   UNL     1       7.899   5.721  18.196  0.00  0.00    +0.000 C 
BRANCH  20  21
ATOM     21  C   UNL     1       7.360   5.150  19.490  0.00  0.00    +0.000 C 
ATOM     22  O   UNL     1       6.509   4.280  19.600  0.00  0.00    +0.000 OA
BRANCH  21  23
ATOM     23  O   UNL     1       7.937   5.712  20.579  0.00  0.00    +0.000 OA
ATOM     24  H   UNL     1       7.522   6.548  20.867  0.00  0.00    +0.000 HD
ENDBRANCH  21  23
ENDBRANCH  20  21
ENDBRANCH   1  20
TORSDOF 5
ENDMDL
MODEL 2
REMARK VINA RESULT:      -7.4      2.692      6.136
REMARK  Name = 
REMARK  6 active torsions:
REMARK  status: ('A' for Active; 'I' for Inactive)
REMARK    1  A    between atoms: C_1  and  C_2
REMARK    2  A    between atoms: C_2  and  C_3
REMARK    3  A    between atoms: C_3  and  C_4
REMARK    4  A    between atoms: C_4  and  C_5
REMARK    5  A    between atoms: C_5  and  O_7
REMARK    6  A    between atoms: C_15  and  C_16
REMARK                            x       y       z     vdW  Elec       q    Type
REMARK                         _______ _______ _______ _____ _____    ______ ____
ROOT
ATOM      1  C   UNL     1       4.471   4.386  17.815  0.00  0.00    +0.000 C 
ATOM      2  O   UNL     1       4.952   5.427  18.720  0.00  0.00    +0.000 OA
ATOM      3  C   UNL     1       6.380   5.587  18.815  0.00  0.00    +0.000 C 
ATOM      4  C   UNL     1       7.047   5.970  17.484  0.00  0.00    +0.000 C 
ATOM      5  C   UNL     1       6.443   5.198  16.371  0.00  0.00    +0.000 A 
ATOM      6  C   UNL     1       5.265   4.511  16.549  0.00  0.00    +0.000 A 
ATOM      7  N   UNL     1       4.928   3.942  15.353  0.00  0.00    +0.000 N 
ATOM      8  C   UNL     1       5.874   4.236  14.396  0.00  0.00    +0.000 A 
ATOM      9  C   UNL     1       5.931   3.857  13.040  0.00  0.00    +0.000 A 
ATOM     10  C   UNL     1       7.026   4.345  12.310  0.00  0.00    +0.000 A 
ATOM     11  C   UNL     1       8.004   5.151  12.893  0.00  0.00    +0.000 A 
ATOM     12  C   UNL     1       7.922   5.501  14.246  0.00  0.00    +0.000 A 
ATOM     13  C   UNL     1       6.840   5.036  15.013  0.00  0.00    +0.000 A 
ATOM     14  H   UNL     1       4.120   3.346  15.199  0.00  0.00    +0.000 HD
ENDROOT
BRANCH   9  15
ATOM     15  C   UNL     1       4.813   3.040  12.450  0.00  0.00    +0.000 C 
ATOM     16  C   UNL     1       4.114   3.501  11.190  0.00  0.00    +0.000 C 
ATOM     17  C   UNL     1       4.999   2.297  11.147  0.00  0.00    +0.000 C 
ENDBRANCH   9  15
BRANCH   1  19
ATOM     18  C   UNL     1       2.504   6.026  18.193  0.00  0.00    +0.000 C 
ATOM     19  C   UNL     1       2.965   4.691  17.611  0.00  0.00    +0.000 C 
ENDBRANCH   1  19
BRANCH   1  20
ATOM     20  C   UNL     1       4.683   3.015  18.490  0.00  0.00    +0.000 C 
BRANCH  20  21
ATOM     21  C   UNL     1       3.474   2.446  19.201  0.00  0.00    +0.000 C 
ATOM     22  O   UNL     1       3.024   2.816  20.275  0.00  0.00    +0.000 OA
BRANCH  21  23
ATOM     23  O   UNL     1       2.894   1.440  18.503  0.00  0.00    +0.000 OA
ATOM     24  H   UNL     1       3.241   1.327  17.597  0.00  0.00    +0.000 HD
ENDBRANCH  21  23
ENDBRANCH  20  21
ENDBRANCH   1  20
TORSDOF 5
ENDMDL
MODEL 3
REMARK VINA RESULT:      -7.3      2.950      5.657
REMARK  Name = 
REMARK  6 active torsions:
REMARK  status: ('A' for Active; 'I' for Inactive)
REMARK    1  A    between atoms: C_1  and  C_2
REMARK    2  A    between atoms: C_2  and  C_3
REMARK    3  A    between atoms: C_3  and  C_4
REMARK    4  A    between atoms: C_4  and  C_5
REMARK    5  A    between atoms: C_5  and  O_7
REMARK    6  A    between atoms: C_15  and  C_16
REMARK                            x       y       z     vdW  Elec       q    Type
REMARK                         _______ _______ _______ _____ _____    ______ ____
ROOT
ATOM      1  C   UNL     1       3.569   2.699  19.846  0.00  0.00    +0.000 C 
ATOM      2  O   UNL     1       2.596   1.754  19.302  0.00  0.00    +0.000 OA
ATOM      3  C   UNL     1       1.839   2.196  18.160  0.00  0.00    +0.000 C 
ATOM      4  C   UNL     1       2.709   2.522  16.934  0.00  0.00    +0.000 C 
ATOM      5  C   UNL     1       3.935   3.242  17.355  0.00  0.00    +0.000 A 
ATOM      6  C   UNL     1       4.306   3.283  18.679  0.00  0.00    +0.000 A 
ATOM      7  N   UNL     1       5.489   3.964  18.760  0.00  0.00    +0.000 N 
ATOM      8  C   UNL     1       5.892   4.381  17.511  0.00  0.00    +0.000 A 
ATOM      9  C   UNL     1       7.035   5.110  17.130  0.00  0.00    +0.000 A 
ATOM     10  C   UNL     1       7.178   5.360  15.756  0.00  0.00    +0.000 A 
ATOM     11  C   UNL     1       6.239   4.918  14.823  0.00  0.00    +0.000 A 
ATOM     12  C   UNL     1       5.108   4.204  15.236  0.00  0.00    +0.000 A 
ATOM     13  C   UNL     1       4.929   3.930  16.603  0.00  0.00    +0.000 A 
ATOM     14  H   UNL     1       5.980   4.177  19.623  0.00  0.00    +0.000 HD
ENDROOT
BRANCH   9  15
ATOM     15  C   UNL     1       8.046   5.503  18.173  0.00  0.00    +0.000 C 
ATOM     16  C   UNL     1       8.113   6.929  18.672  0.00  0.00    +0.000 C 
ATOM     17  C   UNL     1       7.615   5.850  19.580  0.00  0.00    +0.000 C 
ENDBRANCH   9  15
BRANCH   1  19
ATOM     18  C   UNL     1       5.091   0.622  20.106  0.00  0.00    +0.000 C 
ATOM     19  C   UNL     1       4.481   1.854  20.771  0.00  0.00    +0.000 C 
ENDBRANCH   1  19
BRANCH   1  20
ATOM     20  C   UNL     1       2.807   3.781  20.640  0.00  0.00    +0.000 C 
BRANCH  20  21
ATOM     21  C   UNL     1       1.527   3.320  21.305  0.00  0.00    +0.000 C 
ATOM     22  O   UNL     1       1.438   2.698  22.353  0.00  0.00    +0.000 OA
BRANCH  21  23
ATOM     23  O   UNL     1       0.426   3.681  20.603  0.00  0.00    +0.000 OA
ATOM     24  H   UNL     1      -0.092   4.401  21.012  0.00  0.00    +0.000 HD
ENDBRANCH  21  23
ENDBRANCH  20  21
ENDBRANCH   1  20
TORSDOF 5
ENDMDL
MODEL 4
REMARK VINA RESULT:      -7.1      2.607      4.471
REMARK  Name = 
REMARK  6 active torsions:
REMARK  status: ('A' for Active; 'I' for Inactive)
REMARK    1  A    between atoms: C_1  and  C_2
REMARK    2  A    between atoms: C_2  and  C_3
REMARK    3  A    between atoms: C_3  and  C_4
REMARK    4  A    between atoms: C_4  and  C_5
REMARK    5  A    between atoms: C_5  and  O_7
REMARK    6  A    between atoms: C_15  and  C_16
REMARK                            x       y       z     vdW  Elec       q    Type
REMARK                         _______ _______ _______ _____ _____    ______ ____
ROOT
ATOM      1  C   UNL     1       4.027   4.109  18.565  0.00  0.00    +0.000 C 
ATOM      2  O   UNL     1       5.130   4.064  17.609  0.00  0.00    +0.000 OA
ATOM      3  C   UNL     1       4.901   4.688  16.331  0.00  0.00    +0.000 C 
ATOM      4  C   UNL     1       4.605   6.194  16.426  0.00  0.00    +0.000 C 
ATOM      5  C   UNL     1       3.707   6.465  17.574  0.00  0.00    +0.000 A 
ATOM      6  C   UNL     1       3.485   5.507  18.536  0.00  0.00    +0.000 A 
ATOM      7  N   UNL     1       2.666   6.050  19.486  0.00  0.00    +0.000 N 
ATOM      8  C   UNL     1       2.337   7.346  19.155  0.00  0.00    +0.000 A 
ATOM      9  C   UNL     1       1.523   8.271  19.838  0.00  0.00    +0.000 A 
ATOM     10  C   UNL     1       1.403   9.539  19.248  0.00  0.00    +0.000 A 
ATOM     11  C   UNL     1       2.046   9.862  18.053  0.00  0.00    +0.000 A 
ATOM     12  C   UNL     1       2.841   8.917  17.394  0.00  0.00    +0.000 A 
ATOM     13  C   UNL     1       2.990   7.635  17.953  0.00  0.00    +0.000 A 
ATOM     14  H   UNL     1       2.308   5.556  20.298  0.00  0.00    +0.000 HD
ENDROOT
BRANCH   9  15
ATOM     15  C   UNL     1       0.907   7.886  21.156  0.00  0.00    +0.000 C 
ATOM     16  C   UNL     1       0.983   8.828  22.337  0.00  0.00    +0.000 C 
ATOM     17  C   UNL     1      -0.333   8.584  21.668  0.00  0.00    +0.000 C 
ENDBRANCH   9  15
BRANCH   1  19
ATOM     18  C   UNL     1       4.452   2.284  20.351  0.00  0.00    +0.000 C 
ATOM     19  C   UNL     1       4.659   3.738  19.930  0.00  0.00    +0.000 C 
ENDBRANCH   1  19
BRANCH   1  20
ATOM     20  C   UNL     1       2.964   3.076  18.135  0.00  0.00    +0.000 C 
BRANCH  20  21
ATOM     21  C   UNL     1       1.531   3.563  18.173  0.00  0.00    +0.000 C 
ATOM     22  O   UNL     1       0.932   4.122  17.267  0.00  0.00    +0.000 OA
BRANCH  21  23
ATOM     23  O   UNL     1       0.933   3.307  19.361  0.00  0.00    +0.000 OA
ATOM     24  H   UNL     1       0.517   2.425  19.419  0.00  0.00    +0.000 HD
ENDBRANCH  21  23
ENDBRANCH  20  21
ENDBRANCH   1  20
TORSDOF 5
ENDMDL
MODEL 5
REMARK VINA RESULT:      -7.0      2.810      5.282
REMARK  Name = 
REMARK  6 active torsions:
REMARK  status: ('A' for Active; 'I' for Inactive)
REMARK    1  A    between atoms: C_1  and  C_2
REMARK    2  A    between atoms: C_2  and  C_3
REMARK    3  A    between atoms: C_3  and  C_4
REMARK    4  A    between atoms: C_4  and  C_5
REMARK    5  A    between atoms: C_5  and  O_7
REMARK    6  A    between atoms: C_15  and  C_16
REMARK                            x       y       z     vdW  Elec       q    Type
REMARK                         _______ _______ _______ _____ _____    ______ ____
ROOT
ATOM      1  C   UNL     1       2.756   4.947  19.398  0.00  0.00    +0.000 C 
ATOM      2  O   UNL     1       3.934   4.775  18.552  0.00  0.00    +0.000 OA
ATOM      3  C   UNL     1       3.894   5.408  17.259  0.00  0.00    +0.000 C 
ATOM      4  C   UNL     1       3.752   6.938  17.325  0.00  0.00    +0.000 C 
ATOM      5  C   UNL     1       2.783   7.314  18.383  0.00  0.00    +0.000 A 
ATOM      6  C   UNL     1       2.371   6.393  19.319  0.00  0.00    +0.000 A 
ATOM      7  N   UNL     1       1.527   7.029  20.187  0.00  0.00    +0.000 N 
ATOM      8  C   UNL     1       1.371   8.350  19.827  0.00  0.00    +0.000 A 
ATOM      9  C   UNL     1       0.598   9.362  20.429  0.00  0.00    +0.000 A 
ATOM     10  C   UNL     1       0.670  10.630  19.831  0.00  0.00    +0.000 A 
ATOM     11  C   UNL     1       1.454  10.872  18.703  0.00  0.00    +0.000 A 
ATOM     12  C   UNL     1       2.203   9.841  18.123  0.00  0.00    +0.000 A 
ATOM     13  C   UNL     1       2.162   8.556  18.692  0.00  0.00    +0.000 A 
ATOM     14  H   UNL     1       1.044   6.583  20.960  0.00  0.00    +0.000 HD
ENDROOT
BRANCH   9  15
ATOM     15  C   UNL     1      -0.177   9.057  21.683  0.00  0.00    +0.000 C 
ATOM     16  C   UNL     1       0.427   9.340  23.040  0.00  0.00    +0.000 C 
ATOM     17  C   UNL     1      -0.717  10.170  22.551  0.00  0.00    +0.000 C 
ENDBRANCH   9  15
BRANCH   1  19
ATOM     18  C   UNL     1       2.151   3.788  21.633  0.00  0.00    +0.000 C 
ATOM     19  C   UNL     1       3.213   4.524  20.818  0.00  0.00    +0.000 C 
ENDBRANCH   1  19
BRANCH   1  20
ATOM     20  C   UNL     1       1.635   4.027  18.869  0.00  0.00    +0.000 C 
BRANCH  20  21
ATOM     21  C   UNL     1       2.097   2.708  18.287  0.00  0.00    +0.000 C 
ATOM     22  O   UNL     1       2.359   1.692  18.913  0.00  0.00    +0.000 OA
BRANCH  21  23
ATOM     23  O   UNL     1       2.195   2.749  16.936  0.00  0.00    +0.000 OA
ATOM     24  H   UNL     1       2.222   1.871  16.509  0.00  0.00    +0.000 HD
ENDBRANCH  21  23
ENDBRANCH  20  21
ENDBRANCH   1  20
TORSDOF 5
ENDMDL
MODEL 6
REMARK VINA RESULT:      -7.0      2.660      5.891
REMARK  Name = 
REMARK  6 active torsions:
REMARK  status: ('A' for Active; 'I' for Inactive)
REMARK    1  A    between atoms: C_1  and  C_2
REMARK    2  A    between atoms: C_2  and  C_3
REMARK    3  A    between atoms: C_3  and  C_4
REMARK    4  A    between atoms: C_4  and  C_5
REMARK    5  A    between atoms: C_5  and  O_7
REMARK    6  A    between atoms: C_15  and  C_16
REMARK                            x       y       z     vdW  Elec       q    Type
REMARK                         _______ _______ _______ _____ _____    ______ ____
ROOT
ATOM      1  C   UNL     1       2.506   3.134  19.950  0.00  0.00    +0.000 C 
ATOM      2  O   UNL     1       1.411   3.786  20.663  0.00  0.00    +0.000 OA
ATOM      3  C   UNL     1       1.667   5.111  21.164  0.00  0.00    +0.000 C 
ATOM      4  C   UNL     1       2.001   6.131  20.062  0.00  0.00    +0.000 C 
ATOM      5  C   UNL     1       2.895   5.516  19.052  0.00  0.00    +0.000 A 
ATOM      6  C   UNL     1       3.084   4.154  19.016  0.00  0.00    +0.000 A 
ATOM      7  N   UNL     1       3.908   3.874  17.962  0.00  0.00    +0.000 N 
ATOM      8  C   UNL     1       4.273   5.034  17.314  0.00  0.00    +0.000 A 
ATOM      9  C   UNL     1       5.105   5.215  16.191  0.00  0.00    +0.000 A 
ATOM     10  C   UNL     1       5.262   6.538  15.748  0.00  0.00    +0.000 A 
ATOM     11  C   UNL     1       4.638   7.610  16.386  0.00  0.00    +0.000 A 
ATOM     12  C   UNL     1       3.826   7.397  17.506  0.00  0.00    +0.000 A 
ATOM     13  C   UNL     1       3.639   6.087  17.981  0.00  0.00    +0.000 A 
ATOM     14  H   UNL     1       4.246   2.948  17.716  0.00  0.00    +0.000 HD
ENDROOT
BRANCH   9  15
ATOM     15  C   UNL     1       5.698   4.014  15.506  0.00  0.00    +0.000 C 
ATOM     16  C   UNL     1       5.446   3.774  14.034  0.00  0.00    +0.000 C 
ATOM     17  C   UNL     1       6.813   4.168  14.497  0.00  0.00    +0.000 C 
ENDBRANCH   9  15
BRANCH   1  19
ATOM     18  C   UNL     1       0.455   2.223  18.661  0.00  0.00    +0.000 C 
ATOM     19  C   UNL     1       1.853   1.941  19.207  0.00  0.00    +0.000 C 
ENDBRANCH   1  19
BRANCH   1  20
ATOM     20  C   UNL     1       3.546   2.653  20.985  0.00  0.00    +0.000 C 
BRANCH  20  21
ATOM     21  C   UNL     1       4.600   1.704  20.454  0.00  0.00    +0.000 C 
ATOM     22  O   UNL     1       4.680   1.274  19.313  0.00  0.00    +0.000 OA
BRANCH  21  23
ATOM     23  O   UNL     1       5.502   1.356  21.403  0.00  0.00    +0.000 OA
ATOM     24  H   UNL     1       6.221   2.005  21.530  0.00  0.00    +0.000 HD
ENDBRANCH  21  23
ENDBRANCH  20  21
ENDBRANCH   1  20
TORSDOF 5
ENDMDL
MODEL 7
REMARK VINA RESULT:      -7.0      2.321      5.503
REMARK  Name = 
REMARK  6 active torsions:
REMARK  status: ('A' for Active; 'I' for Inactive)
REMARK    1  A    between atoms: C_1  and  C_2
REMARK    2  A    between atoms: C_2  and  C_3
REMARK    3  A    between atoms: C_3  and  C_4
REMARK    4  A    between atoms: C_4  and  C_5
REMARK    5  A    between atoms: C_5  and  O_7
REMARK    6  A    between atoms: C_15  and  C_16
REMARK                            x       y       z     vdW  Elec       q    Type
REMARK                         _______ _______ _______ _____ _____    ______ ____
ROOT
ATOM      1  C   UNL     1       2.410   4.116  19.711  0.00  0.00    +0.000 C 
ATOM      2  O   UNL     1       1.800   2.807  19.487  0.00  0.00    +0.000 OA
ATOM      3  C   UNL     1       1.455   2.483  18.127  0.00  0.00    +0.000 C 
ATOM      4  C   UNL     1       2.662   2.455  17.175  0.00  0.00    +0.000 C 
ATOM      5  C   UNL     1       3.575   3.584  17.476  0.00  0.00    +0.000 A 
ATOM      6  C   UNL     1       3.446   4.300  18.643  0.00  0.00    +0.000 A 
ATOM      7  N   UNL     1       4.443   5.235  18.672  0.00  0.00    +0.000 N 
ATOM      8  C   UNL     1       5.216   5.150  17.535  0.00  0.00    +0.000 A 
ATOM      9  C   UNL     1       6.336   5.913  17.148  0.00  0.00    +0.000 A 
ATOM     10  C   UNL     1       6.928   5.561  15.925  0.00  0.00    +0.000 A 
ATOM     11  C   UNL     1       6.434   4.522  15.136  0.00  0.00    +0.000 A 
ATOM     12  C   UNL     1       5.313   3.789  15.545  0.00  0.00    +0.000 A 
ATOM     13  C   UNL     1       4.691   4.108  16.765  0.00  0.00    +0.000 A 
ATOM     14  H   UNL     1       4.571   5.928  19.403  0.00  0.00    +0.000 HD
ENDROOT
BRANCH   9  15
ATOM     15  C   UNL     1       6.863   6.978  18.071  0.00  0.00    +0.000 C 
ATOM     16  C   UNL     1       8.243   6.849  18.677  0.00  0.00    +0.000 C 
ATOM     17  C   UNL     1       7.985   7.895  17.639  0.00  0.00    +0.000 C 
ENDBRANCH   9  15
BRANCH   1  19
ATOM     18  C   UNL     1       2.275   3.115  22.094  0.00  0.00    +0.000 C 
ATOM     19  C   UNL     1       3.019   4.040  21.133  0.00  0.00    +0.000 C 
ENDBRANCH   1  19
BRANCH   1  20
ATOM     20  C   UNL     1       1.305   5.191  19.626  0.00  0.00    +0.000 C 
BRANCH  20  21
ATOM     21  C   UNL     1       1.759   6.611  19.888  0.00  0.00    +0.000 C 
ATOM     22  O   UNL     1       2.291   7.362  19.084  0.00  0.00    +0.000 OA
BRANCH  21  23
ATOM     23  O   UNL     1       1.506   7.004  21.160  0.00  0.00    +0.000 OA
ATOM     24  H   UNL     1       0.565   7.188  21.343  0.00  0.00    +0.000 HD
ENDBRANCH  21  23
ENDBRANCH  20  21
ENDBRANCH   1  20
TORSDOF 5
ENDMDL
MODEL 8
REMARK VINA RESULT:      -7.0      1.140      1.342
REMARK  Name = 
REMARK  6 active torsions:
REMARK  status: ('A' for Active; 'I' for Inactive)
REMARK    1  A    between atoms: C_1  and  C_2
REMARK    2  A    between atoms: C_2  and  C_3
REMARK    3  A    between atoms: C_3  and  C_4
REMARK    4  A    between atoms: C_4  and  C_5
REMARK    5  A    between atoms: C_5  and  O_7
REMARK    6  A    between atoms: C_15  and  C_16
REMARK                            x       y       z     vdW  Elec       q    Type
REMARK                         _______ _______ _______ _____ _____    ______ ____
ROOT
ATOM      1  C   UNL     1       6.393   5.488  16.923  0.00  0.00    +0.000 C 
ATOM      2  O   UNL     1       6.635   5.048  15.552  0.00  0.00    +0.000 OA
ATOM      3  C   UNL     1       6.509   3.637  15.297  0.00  0.00    +0.000 C 
ATOM      4  C   UNL     1       5.102   3.083  15.581  0.00  0.00    +0.000 C 
ATOM      5  C   UNL     1       4.561   3.679  16.826  0.00  0.00    +0.000 A 
ATOM      6  C   UNL     1       5.157   4.781  17.394  0.00  0.00    +0.000 A 
ATOM      7  N   UNL     1       4.421   5.136  18.490  0.00  0.00    +0.000 N 
ATOM      8  C   UNL     1       3.358   4.275  18.656  0.00  0.00    +0.000 A 
ATOM      9  C   UNL     1       2.355   4.263  19.645  0.00  0.00    +0.000 A 
ATOM     10  C   UNL     1       1.382   3.258  19.523  0.00  0.00    +0.000 A 
ATOM     11  C   UNL     1       1.411   2.322  18.489  0.00  0.00    +0.000 A 
ATOM     12  C   UNL     1       2.428   2.356  17.527  0.00  0.00    +0.000 A 
ATOM     13  C   UNL     1       3.421   3.348  17.610  0.00  0.00    +0.000 A 
ATOM     14  H   UNL     1       4.648   5.896  19.123  0.00  0.00    +0.000 HD
ENDROOT
BRANCH   9  15
ATOM     15  C   UNL     1       2.338   5.337  20.698  0.00  0.00    +0.000 C 
ATOM     16  C   UNL     1       2.250   6.794  20.301  0.00  0.00    +0.000 C 
ATOM     17  C   UNL     1       1.084   6.138  20.971  0.00  0.00    +0.000 C 
ENDBRANCH   9  15
BRANCH   1  19
ATOM     18  C   UNL     1       4.839   7.467  16.317  0.00  0.00    +0.000 C 
ATOM     19  C   UNL     1       6.207   7.023  16.830  0.00  0.00    +0.000 C 
ENDBRANCH   1  19
BRANCH   1  20
ATOM     20  C   UNL     1       7.623   5.119  17.779  0.00  0.00    +0.000 C 
BRANCH  20  21
ATOM     21  C   UNL     1       7.684   5.772  19.144  0.00  0.00    +0.000 C 
ATOM     22  O   UNL     1       7.105   5.398  20.153  0.00  0.00    +0.000 OA
BRANCH  21  23
ATOM     23  O   UNL     1       8.486   6.863  19.156  0.00  0.00    +0.000 OA
ATOM     24  H   UNL     1       8.256   7.523  19.838  0.00  0.00    +0.000 HD
ENDBRANCH  21  23
ENDBRANCH  20  21
ENDBRANCH   1  20
TORSDOF 5
ENDMDL
MODEL 9
REMARK VINA RESULT:      -7.0      2.115      3.470
REMARK  Name = 
REMARK  6 active torsions:
REMARK  status: ('A' for Active; 'I' for Inactive)
REMARK    1  A    between atoms: C_1  and  C_2
REMARK    2  A    between atoms: C_2  and  C_3
REMARK    3  A    between atoms: C_3  and  C_4
REMARK    4  A    between atoms: C_4  and  C_5
REMARK    5  A    between atoms: C_5  and  O_7
REMARK    6  A    between atoms: C_15  and  C_16
REMARK                            x       y       z     vdW  Elec       q    Type
REMARK                         _______ _______ _______ _____ _____    ______ ____
ROOT
ATOM      1  C   UNL     1       5.165   5.037  18.459  0.00  0.00    +0.000 C 
ATOM      2  O   UNL     1       6.053   5.228  17.315  0.00  0.00    +0.000 OA
ATOM      3  C   UNL     1       5.427   5.571  16.065  0.00  0.00    +0.000 C 
ATOM      4  C   UNL     1       4.649   6.897  16.108  0.00  0.00    +0.000 C 
ATOM      5  C   UNL     1       3.904   7.009  17.385  0.00  0.00    +0.000 A 
ATOM      6  C   UNL     1       4.178   6.165  18.436  0.00  0.00    +0.000 A 
ATOM      7  N   UNL     1       3.381   6.531  19.485  0.00  0.00    +0.000 N 
ATOM      8  C   UNL     1       2.579   7.594  19.133  0.00  0.00    +0.000 A 
ATOM      9  C   UNL     1       1.614   8.284  19.893  0.00  0.00    +0.000 A 
ATOM     10  C   UNL     1       0.974   9.355  19.249  0.00  0.00    +0.000 A 
ATOM     11  C   UNL     1       1.272   9.711  17.933  0.00  0.00    +0.000 A 
ATOM     12  C   UNL     1       2.230   8.999  17.203  0.00  0.00    +0.000 A 
ATOM     13  C   UNL     1       2.896   7.920  17.811  0.00  0.00    +0.000 A 
ATOM     14  H   UNL     1       3.347   6.058  20.383  0.00  0.00    +0.000 HD
ENDROOT
BRANCH   9  15
ATOM     15  C   UNL     1       1.382   7.896  21.328  0.00  0.00    +0.000 C 
ATOM     16  C   UNL     1       1.384   8.949  22.413  0.00  0.00    +0.000 C 
ATOM     17  C   UNL     1       0.103   8.275  22.038  0.00  0.00    +0.000 C 
ENDBRANCH   9  15
BRANCH   1  19
ATOM     18  C   UNL     1       7.456   5.713  19.456  0.00  0.00    +0.000 C 
ATOM     19  C   UNL     1       6.091   5.074  19.701  0.00  0.00    +0.000 C 
ENDBRANCH   1  19
BRANCH   1  20
ATOM     20  C   UNL     1       4.469   3.667  18.314  0.00  0.00    +0.000 C 
BRANCH  20  21
ATOM     21  C   UNL     1       4.113   2.978  19.615  0.00  0.00    +0.000 C 
ATOM     22  O   UNL     1       3.227   3.306  20.389  0.00  0.00    +0.000 OA
BRANCH  21  23
ATOM     23  O   UNL     1       4.899   1.902  19.858  0.00  0.00    +0.000 OA
ATOM     24  H   UNL     1       4.556   1.063  19.493  0.00  0.00    +0.000 HD
ENDBRANCH  21  23
ENDBRANCH  20  21
ENDBRANCH   1  20
TORSDOF 5
ENDMDL
