MODEL 1
REMARK VINA RESULT:      -7.9      0.000      0.000
REMARK  Name = 
REMARK  15 active torsions:
REMARK  status: ('A' for Active; 'I' for Inactive)
REMARK    1  A    between atoms: C_1  and  C_2
REMARK    2  A    between atoms: C_2  and  O_4
REMARK    3  A    between atoms: O_4  and  C_5
REMARK    4  A    between atoms: C_5  and  C_6
REMARK    5  A    between atoms: C_5  and  O_7
REMARK    6  A    between atoms: O_7  and  C_8
REMARK    7  A    between atoms: C_8  and  C_10
REMARK    8  A    between atoms: C_10  and  C_11
REMARK    9  A    between atoms: C_10  and  C_12
REMARK   10  A    between atoms: C_10  and  O_13
REMARK   11  A    between atoms: O_13  and  C_14
REMARK   12  A    between atoms: C_17  and  C_18
REMARK   13  A    between atoms: C_18  and  C_19
REMARK   14  A    between atoms: C_19  and  N_20
REMARK   15  A    between atoms: C_21  and  C_23
REMARK                            x       y       z     vdW  Elec       q    Type
REMARK                         _______ _______ _______ _____ _____    ______ ____
ROOT
ATOM      1  C   UNL     1       2.722   7.179  19.069  0.00  0.00    +0.000 A 
ATOM      2  C   UNL     1       2.004   7.561  20.189  0.00  0.00    +0.000 A 
ATOM      3  C   UNL     1       1.152   8.657  20.159  0.00  0.00    +0.000 A 
ATOM      4  C   UNL     1       1.046   9.464  19.027  0.00  0.00    +0.000 A 
ATOM      5  C   UNL     1       1.782   9.094  17.892  0.00  0.00    +0.000 A 
ATOM      6  C   UNL     1       2.617   7.963  17.918  0.00  0.00    +0.000 A 
ENDROOT
BRANCH   1   7
ATOM      7  O   UNL     1       3.582   6.121  19.031  0.00  0.00    +0.000 OA
BRANCH   7   8
ATOM      8  C   UNL     1       3.100   4.760  18.951  0.00  0.00    +0.000 C 
ATOM      9  C   UNL     1       1.934   4.653  17.961  0.00  0.00    +0.000 C 
ATOM     10  C   UNL     1       2.760   4.100  20.303  0.00  0.00    +0.000 C 
BRANCH   8  11
ATOM     11  C   UNL     1       4.275   3.881  18.455  0.00  0.00    +0.000 C 
ATOM     12  O   UNL     1       4.136   2.844  17.814  0.00  0.00    +0.000 OA
BRANCH  11  13
ATOM     13  O   UNL     1       5.446   4.271  19.031  0.00  0.00    +0.000 OA
BRANCH  13  14
ATOM     14  C   UNL     1       6.463   4.680  18.101  0.00  0.00    +0.000 C 
ATOM     15  C   UNL     1       7.306   5.706  18.854  0.00  0.00    +0.000 C 
BRANCH  14  16
ATOM     16  O   UNL     1       5.934   5.282  16.918  0.00  0.00    +0.000 OA
BRANCH  16  18
ATOM     17  C   UNL     1       6.101   3.838  15.071  0.00  0.00    +0.000 C 
ATOM     18  C   UNL     1       6.660   5.022  15.795  0.00  0.00    +0.000 C 
ATOM     19  O   UNL     1       7.639   5.655  15.418  0.00  0.00    +0.000 OA
ENDBRANCH  16  18
ENDBRANCH  14  16
ENDBRANCH  13  14
ENDBRANCH  11  13
ENDBRANCH   8  11
ENDBRANCH   7   8
ENDBRANCH   1   7
BRANCH   4  20
ATOM     20  C   UNL     1       0.139  10.675  19.029  0.00  0.00    +0.000 C 
BRANCH  20  21
ATOM     21  C   UNL     1       0.144  11.441  20.364  0.00  0.00    +0.000 C 
BRANCH  21  22
ATOM     22  N   UNL     1      -1.181  11.716  20.866  0.00  0.00    +0.000 N 
ATOM     23  C   UNL     1      -1.407  11.870  22.220  0.00  0.00    +0.000 C 
ATOM     24  O   UNL     1      -0.550  11.725  23.082  0.00  0.00    +0.000 OA
ATOM     25  H   UNL     1      -1.875  12.032  20.204  0.00  0.00    +0.000 HD
BRANCH  23  26
ATOM     26  C   UNL     1      -2.781  12.287  22.595  0.00  0.00    +0.000 A 
ATOM     27  C   UNL     1      -3.206  12.247  23.929  0.00  0.00    +0.000 A 
ATOM     28  C   UNL     1      -4.508  12.627  24.253  0.00  0.00    +0.000 A 
ATOM     29  C   UNL     1      -5.378  13.054  23.248  0.00  0.00    +0.000 A 
ATOM     30 CL   UNL     1      -6.982  13.519  23.657  0.00  0.00    +0.000 Cl
ATOM     31  C   UNL     1      -4.954  13.112  21.921  0.00  0.00    +0.000 A 
ATOM     32  C   UNL     1      -3.651  12.731  21.592  0.00  0.00    +0.000 A 
ENDBRANCH  23  26
ENDBRANCH  21  22
ENDBRANCH  20  21
ENDBRANCH   4  20
TORSDOF 11
ENDMDL
MODEL 2
REMARK VINA RESULT:      -7.3      4.374      6.396
REMARK  Name = 
REMARK  15 active torsions:
REMARK  status: ('A' for Active; 'I' for Inactive)
REMARK    1  A    between atoms: C_1  and  C_2
REMARK    2  A    between atoms: C_2  and  O_4
REMARK    3  A    between atoms: O_4  and  C_5
REMARK    4  A    between atoms: C_5  and  C_6
REMARK    5  A    between atoms: C_5  and  O_7
REMARK    6  A    between atoms: O_7  and  C_8
REMARK    7  A    between atoms: C_8  and  C_10
REMARK    8  A    between atoms: C_10  and  C_11
REMARK    9  A    between atoms: C_10  and  C_12
REMARK   10  A    between atoms: C_10  and  O_13
REMARK   11  A    between atoms: O_13  and  C_14
REMARK   12  A    between atoms: C_17  and  C_18
REMARK   13  A    between atoms: C_18  and  C_19
REMARK   14  A    between atoms: C_19  and  N_20
REMARK   15  A    between atoms: C_21  and  C_23
REMARK                            x       y       z     vdW  Elec       q    Type
REMARK                         _______ _______ _______ _____ _____    ______ ____
ROOT
ATOM      1  C   UNL     1       5.350   3.480  18.520  0.00  0.00    +0.000 A 
ATOM      2  C   UNL     1       5.037   2.970  19.768  0.00  0.00    +0.000 A 
ATOM      3  C   UNL     1       3.765   2.493  20.054  0.00  0.00    +0.000 A 
ATOM      4  C   UNL     1       2.729   2.585  19.124  0.00  0.00    +0.000 A 
ATOM      5  C   UNL     1       3.032   3.117  17.863  0.00  0.00    +0.000 A 
ATOM      6  C   UNL     1       4.332   3.566  17.568  0.00  0.00    +0.000 A 
ENDROOT
BRANCH   1   7
ATOM      7  O   UNL     1       6.574   3.973  18.175  0.00  0.00    +0.000 OA
BRANCH   7   8
ATOM      8  C   UNL     1       6.832   5.395  18.145  0.00  0.00    +0.000 C 
ATOM      9  C   UNL     1       7.872   5.781  19.205  0.00  0.00    +0.000 C 
ATOM     10  C   UNL     1       5.583   6.296  18.222  0.00  0.00    +0.000 C 
BRANCH   8  11
ATOM     11  C   UNL     1       7.386   5.736  16.740  0.00  0.00    +0.000 C 
ATOM     12  O   UNL     1       7.598   6.877  16.341  0.00  0.00    +0.000 OA
BRANCH  11  13
ATOM     13  O   UNL     1       7.364   4.638  15.934  0.00  0.00    +0.000 OA
BRANCH  13  14
ATOM     14  C   UNL     1       6.798   4.862  14.631  0.00  0.00    +0.000 C 
ATOM     15  C   UNL     1       5.451   5.532  14.888  0.00  0.00    +0.000 C 
BRANCH  14  16
ATOM     16  O   UNL     1       6.592   3.656  13.893  0.00  0.00    +0.000 OA
BRANCH  16  18
ATOM     17  C   UNL     1       5.286   3.218  11.988  0.00  0.00    +0.000 C 
ATOM     18  C   UNL     1       6.528   3.839  12.545  0.00  0.00    +0.000 C 
ATOM     19  O   UNL     1       7.364   4.424  11.865  0.00  0.00    +0.000 OA
ENDBRANCH  16  18
ENDBRANCH  14  16
ENDBRANCH  13  14
ENDBRANCH  11  13
ENDBRANCH   8  11
ENDBRANCH   7   8
ENDBRANCH   1   7
BRANCH   4  20
ATOM     20  C   UNL     1       1.341   2.094  19.470  0.00  0.00    +0.000 C 
BRANCH  20  21
ATOM     21  C   UNL     1       0.613   2.986  20.492  0.00  0.00    +0.000 C 
BRANCH  21  22
ATOM     22  N   UNL     1       0.648   4.388  20.150  0.00  0.00    +0.000 N 
ATOM     23  C   UNL     1       1.587   5.230  20.713  0.00  0.00    +0.000 C 
ATOM     24  O   UNL     1       2.394   4.889  21.568  0.00  0.00    +0.000 OA
ATOM     25  H   UNL     1       0.145   4.679  19.324  0.00  0.00    +0.000 HD
BRANCH  23  26
ATOM     26  C   UNL     1       1.609   6.613  20.176  0.00  0.00    +0.000 A 
ATOM     27  C   UNL     1       1.132   7.688  20.936  0.00  0.00    +0.000 A 
ATOM     28  C   UNL     1       1.146   8.976  20.401  0.00  0.00    +0.000 A 
ATOM     29  C   UNL     1       1.645   9.188  19.116  0.00  0.00    +0.000 A 
ATOM     30 CL   UNL     1       1.658  10.779  18.464  0.00  0.00    +0.000 Cl
ATOM     31  C   UNL     1       2.137   8.124  18.361  0.00  0.00    +0.000 A 
ATOM     32  C   UNL     1       2.123   6.833  18.892  0.00  0.00    +0.000 A 
ENDBRANCH  23  26
ENDBRANCH  21  22
ENDBRANCH  20  21
ENDBRANCH   4  20
TORSDOF 11
ENDMDL
MODEL 3
REMARK VINA RESULT:      -7.3      1.561      3.116
REMARK  Name = 
REMARK  15 active torsions:
REMARK  status: ('A' for Active; 'I' for Inactive)
REMARK    1  A    between atoms: C_1  and  C_2
REMARK    2  A    between atoms: C_2  and  O_4
REMARK    3  A    between atoms: O_4  and  C_5
REMARK    4  A    between atoms: C_5  and  C_6
REMARK    5  A    between atoms: C_5  and  O_7
REMARK    6  A    between atoms: O_7  and  C_8
REMARK    7  A    between atoms: C_8  and  C_10
REMARK    8  A    between atoms: C_10  and  C_11
REMARK    9  A    between atoms: C_10  and  C_12
REMARK   10  A    between atoms: C_10  and  O_13
REMARK   11  A    between atoms: O_13  and  C_14
REMARK   12  A    between atoms: C_17  and  C_18
REMARK   13  A    between atoms: C_18  and  C_19
REMARK   14  A    between atoms: C_19  and  N_20
REMARK   15  A    between atoms: C_21  and  C_23
REMARK                            x       y       z     vdW  Elec       q    Type
REMARK                         _______ _______ _______ _____ _____    ______ ____
ROOT
ATOM      1  C   UNL     1       2.529   6.609  18.334  0.00  0.00    +0.000 A 
ATOM      2  C   UNL     1       2.347   6.739  19.700  0.00  0.00    +0.000 A 
ATOM      3  C   UNL     1       1.801   7.892  20.248  0.00  0.00    +0.000 A 
ATOM      4  C   UNL     1       1.491   8.997  19.454  0.00  0.00    +0.000 A 
ATOM      5  C   UNL     1       1.688   8.880  18.071  0.00  0.00    +0.000 A 
ATOM      6  C   UNL     1       2.209   7.696  17.518  0.00  0.00    +0.000 A 
ENDROOT
BRANCH   1   7
ATOM      7  O   UNL     1       3.068   5.510  17.732  0.00  0.00    +0.000 OA
BRANCH   7   8
ATOM      8  C   UNL     1       4.498   5.361  17.577  0.00  0.00    +0.000 C 
ATOM      9  C   UNL     1       5.187   6.730  17.551  0.00  0.00    +0.000 C 
ATOM     10  C   UNL     1       4.946   4.476  16.396  0.00  0.00    +0.000 C 
BRANCH   8  11
ATOM     11  C   UNL     1       5.013   4.553  18.794  0.00  0.00    +0.000 C 
ATOM     12  O   UNL     1       5.817   4.981  19.615  0.00  0.00    +0.000 OA
BRANCH  11  13
ATOM     13  O   UNL     1       4.656   3.242  18.688  0.00  0.00    +0.000 OA
BRANCH  13  14
ATOM     14  C   UNL     1       3.743   2.787  19.701  0.00  0.00    +0.000 C 
ATOM     15  C   UNL     1       4.584   1.933  20.646  0.00  0.00    +0.000 C 
BRANCH  14  16
ATOM     16  O   UNL     1       2.672   1.997  19.178  0.00  0.00    +0.000 OA
BRANCH  16  18
ATOM     17  C   UNL     1       1.294   3.394  20.472  0.00  0.00    +0.000 C 
ATOM     18  C   UNL     1       1.464   2.624  19.200  0.00  0.00    +0.000 C 
ATOM     19  O   UNL     1       0.618   2.573  18.313  0.00  0.00    +0.000 OA
ENDBRANCH  16  18
ENDBRANCH  14  16
ENDBRANCH  13  14
ENDBRANCH  11  13
ENDBRANCH   8  11
ENDBRANCH   7   8
ENDBRANCH   1   7
BRANCH   4  20
ATOM     20  C   UNL     1       0.931  10.257  20.076  0.00  0.00    +0.000 C 
BRANCH  20  21
ATOM     21  C   UNL     1       0.622  10.113  21.577  0.00  0.00    +0.000 C 
BRANCH  21  22
ATOM     22  N   UNL     1      -0.690  10.596  21.935  0.00  0.00    +0.000 N 
ATOM     23  C   UNL     1      -0.903  11.934  22.203  0.00  0.00    +0.000 C 
ATOM     24  O   UNL     1      -0.019  12.781  22.227  0.00  0.00    +0.000 OA
ATOM     25  H   UNL     1      -1.477   9.992  21.747  0.00  0.00    +0.000 HD
BRANCH  23  26
ATOM     26  C   UNL     1      -2.318  12.325  22.422  0.00  0.00    +0.000 A 
ATOM     27  C   UNL     1      -2.899  12.245  23.693  0.00  0.00    +0.000 A 
ATOM     28  C   UNL     1      -4.236  12.602  23.868  0.00  0.00    +0.000 A 
ATOM     29  C   UNL     1      -4.985  13.044  22.778  0.00  0.00    +0.000 A 
ATOM     30 CL   UNL     1      -6.633  13.480  23.003  0.00  0.00    +0.000 Cl
ATOM     31  C   UNL     1      -4.407  13.142  21.513  0.00  0.00    +0.000 A 
ATOM     32  C   UNL     1      -3.069  12.785  21.333  0.00  0.00    +0.000 A 
ENDBRANCH  23  26
ENDBRANCH  21  22
ENDBRANCH  20  21
ENDBRANCH   4  20
TORSDOF 11
ENDMDL
MODEL 4
REMARK VINA RESULT:      -7.2      1.082      2.057
REMARK  Name = 
REMARK  15 active torsions:
REMARK  status: ('A' for Active; 'I' for Inactive)
REMARK    1  A    between atoms: C_1  and  C_2
REMARK    2  A    between atoms: C_2  and  O_4
REMARK    3  A    between atoms: O_4  and  C_5
REMARK    4  A    between atoms: C_5  and  C_6
REMARK    5  A    between atoms: C_5  and  O_7
REMARK    6  A    between atoms: O_7  and  C_8
REMARK    7  A    between atoms: C_8  and  C_10
REMARK    8  A    between atoms: C_10  and  C_11
REMARK    9  A    between atoms: C_10  and  C_12
REMARK   10  A    between atoms: C_10  and  O_13
REMARK   11  A    between atoms: O_13  and  C_14
REMARK   12  A    between atoms: C_17  and  C_18
REMARK   13  A    between atoms: C_18  and  C_19
REMARK   14  A    between atoms: C_19  and  N_20
REMARK   15  A    between atoms: C_21  and  C_23
REMARK                            x       y       z     vdW  Elec       q    Type
REMARK                         _______ _______ _______ _____ _____    ______ ____
ROOT
ATOM      1  C   UNL     1       2.596   6.898  19.328  0.00  0.00    +0.000 A 
ATOM      2  C   UNL     1       2.600   7.664  18.175  0.00  0.00    +0.000 A 
ATOM      3  C   UNL     1       1.946   8.888  18.120  0.00  0.00    +0.000 A 
ATOM      4  C   UNL     1       1.191   9.356  19.195  0.00  0.00    +0.000 A 
ATOM      5  C   UNL     1       1.167   8.579  20.362  0.00  0.00    +0.000 A 
ATOM      6  C   UNL     1       1.860   7.357  20.423  0.00  0.00    +0.000 A 
ENDROOT
BRANCH   1   7
ATOM      7  O   UNL     1       3.208   5.685  19.448  0.00  0.00    +0.000 OA
BRANCH   7   8
ATOM      8  C   UNL     1       2.517   4.457  19.122  0.00  0.00    +0.000 C 
ATOM      9  C   UNL     1       1.631   4.644  17.885  0.00  0.00    +0.000 C 
ATOM     10  C   UNL     1       1.739   3.808  20.285  0.00  0.00    +0.000 C 
BRANCH   8  11
ATOM     11  C   UNL     1       3.594   3.385  18.822  0.00  0.00    +0.000 C 
ATOM     12  O   UNL     1       3.344   2.218  18.541  0.00  0.00    +0.000 OA
BRANCH  11  13
ATOM     13  O   UNL     1       4.833   3.841  19.156  0.00  0.00    +0.000 OA
BRANCH  13  14
ATOM     14  C   UNL     1       5.517   4.542  18.102  0.00  0.00    +0.000 C 
ATOM     15  C   UNL     1       5.131   3.813  16.818  0.00  0.00    +0.000 C 
BRANCH  14  16
ATOM     16  O   UNL     1       6.939   4.524  18.246  0.00  0.00    +0.000 OA
BRANCH  16  18
ATOM     17  C   UNL     1       7.684   6.753  18.226  0.00  0.00    +0.000 C 
ATOM     18  C   UNL     1       7.425   5.521  19.035  0.00  0.00    +0.000 C 
ATOM     19  O   UNL     1       7.634   5.438  20.241  0.00  0.00    +0.000 OA
ENDBRANCH  16  18
ENDBRANCH  14  16
ENDBRANCH  13  14
ENDBRANCH  11  13
ENDBRANCH   8  11
ENDBRANCH   7   8
ENDBRANCH   1   7
BRANCH   4  20
ATOM     20  C   UNL     1       0.456  10.675  19.101  0.00  0.00    +0.000 C 
BRANCH  20  21
ATOM     21  C   UNL     1       0.511  11.501  20.398  0.00  0.00    +0.000 C 
BRANCH  21  22
ATOM     22  N   UNL     1      -0.772  11.624  21.048  0.00  0.00    +0.000 N 
ATOM     23  C   UNL     1      -1.036  12.678  21.900  0.00  0.00    +0.000 C 
ATOM     24  O   UNL     1      -0.214  13.529  22.218  0.00  0.00    +0.000 OA
ATOM     25  H   UNL     1      -1.535  11.073  20.682  0.00  0.00    +0.000 HD
BRANCH  23  26
ATOM     26  C   UNL     1      -2.432  12.767  22.394  0.00  0.00    +0.000 A 
ATOM     27  C   UNL     1      -3.449  13.292  21.587  0.00  0.00    +0.000 A 
ATOM     28  C   UNL     1      -4.750  13.381  22.081  0.00  0.00    +0.000 A 
ATOM     29  C   UNL     1      -5.034  12.937  23.373  0.00  0.00    +0.000 A 
ATOM     30 CL   UNL     1      -6.641  13.052  23.974  0.00  0.00    +0.000 Cl
ATOM     31  C   UNL     1      -4.029  12.397  24.174  0.00  0.00    +0.000 A 
ATOM     32  C   UNL     1      -2.725  12.308  23.684  0.00  0.00    +0.000 A 
ENDBRANCH  23  26
ENDBRANCH  21  22
ENDBRANCH  20  21
ENDBRANCH   4  20
TORSDOF 11
ENDMDL
MODEL 5
REMARK VINA RESULT:      -7.2      2.633      3.269
REMARK  Name = 
REMARK  15 active torsions:
REMARK  status: ('A' for Active; 'I' for Inactive)
REMARK    1  A    between atoms: C_1  and  C_2
REMARK    2  A    between atoms: C_2  and  O_4
REMARK    3  A    between atoms: O_4  and  C_5
REMARK    4  A    between atoms: C_5  and  C_6
REMARK    5  A    between atoms: C_5  and  O_7
REMARK    6  A    between atoms: O_7  and  C_8
REMARK    7  A    between atoms: C_8  and  C_10
REMARK    8  A    between atoms: C_10  and  C_11
REMARK    9  A    between atoms: C_10  and  C_12
REMARK   10  A    between atoms: C_10  and  O_13
REMARK   11  A    between atoms: O_13  and  C_14
REMARK   12  A    between atoms: C_17  and  C_18
REMARK   13  A    between atoms: C_18  and  C_19
REMARK   14  A    between atoms: C_19  and  N_20
REMARK   15  A    between atoms: C_21  and  C_23
REMARK                            x       y       z     vdW  Elec       q    Type
REMARK                         _______ _______ _______ _____ _____    ______ ____
ROOT
ATOM      1  C   UNL     1       2.465   5.269  18.749  0.00  0.00    +0.000 A 
ATOM      2  C   UNL     1       1.891   4.960  19.970  0.00  0.00    +0.000 A 
ATOM      3  C   UNL     1       1.452   5.956  20.832  0.00  0.00    +0.000 A 
ATOM      4  C   UNL     1       1.645   7.306  20.541  0.00  0.00    +0.000 A 
ATOM      5  C   UNL     1       2.242   7.628  19.314  0.00  0.00    +0.000 A 
ATOM      6  C   UNL     1       2.653   6.615  18.429  0.00  0.00    +0.000 A 
ENDROOT
BRANCH   1   7
ATOM      7  O   UNL     1       2.926   4.343  17.860  0.00  0.00    +0.000 OA
BRANCH   7   8
ATOM      8  C   UNL     1       3.952   3.392  18.226  0.00  0.00    +0.000 C 
ATOM      9  C   UNL     1       4.241   2.431  17.067  0.00  0.00    +0.000 C 
ATOM     10  C   UNL     1       3.708   2.633  19.546  0.00  0.00    +0.000 C 
BRANCH   8  11
ATOM     11  C   UNL     1       5.234   4.197  18.553  0.00  0.00    +0.000 C 
ATOM     12  O   UNL     1       5.678   4.353  19.686  0.00  0.00    +0.000 OA
BRANCH  11  13
ATOM     13  O   UNL     1       5.649   4.905  17.466  0.00  0.00    +0.000 OA
BRANCH  13  14
ATOM     14  C   UNL     1       7.076   4.962  17.299  0.00  0.00    +0.000 C 
ATOM     15  C   UNL     1       7.485   6.345  17.800  0.00  0.00    +0.000 C 
BRANCH  14  16
ATOM     16  O   UNL     1       7.488   4.813  15.939  0.00  0.00    +0.000 OA
BRANCH  16  18
ATOM     17  C   UNL     1       6.205   3.848  14.221  0.00  0.00    +0.000 C 
ATOM     18  C   UNL     1       6.504   5.069  15.033  0.00  0.00    +0.000 C 
ATOM     19  O   UNL     1       5.934   6.144  14.886  0.00  0.00    +0.000 OA
ENDBRANCH  16  18
ENDBRANCH  14  16
ENDBRANCH  13  14
ENDBRANCH  11  13
ENDBRANCH   8  11
ENDBRANCH   7   8
ENDBRANCH   1   7
BRANCH   4  20
ATOM     20  C   UNL     1       1.193   8.373  21.512  0.00  0.00    +0.000 C 
BRANCH  20  21
ATOM     21  C   UNL     1       1.158   9.784  20.898  0.00  0.00    +0.000 C 
BRANCH  21  22
ATOM     22  N   UNL     1      -0.154  10.170  20.437  0.00  0.00    +0.000 N 
ATOM     23  C   UNL     1      -0.343  10.637  19.151  0.00  0.00    +0.000 C 
ATOM     24  O   UNL     1       0.561  10.822  18.346  0.00  0.00    +0.000 OA
ATOM     25  H   UNL     1      -0.949   9.864  20.979  0.00  0.00    +0.000 HD
BRANCH  23  26
ATOM     26  C   UNL     1      -1.754  10.867  18.755  0.00  0.00    +0.000 A 
ATOM     27  C   UNL     1      -2.507  11.896  19.335  0.00  0.00    +0.000 A 
ATOM     28  C   UNL     1      -3.836  12.080  18.959  0.00  0.00    +0.000 A 
ATOM     29  C   UNL     1      -4.408  11.245  17.998  0.00  0.00    +0.000 A 
ATOM     30 CL   UNL     1      -6.049  11.479  17.542  0.00  0.00    +0.000 Cl
ATOM     31  C   UNL     1      -3.659  10.230  17.404  0.00  0.00    +0.000 A 
ATOM     32  C   UNL     1      -2.327  10.042  17.779  0.00  0.00    +0.000 A 
ENDBRANCH  23  26
ENDBRANCH  21  22
ENDBRANCH  20  21
ENDBRANCH   4  20
TORSDOF 11
ENDMDL
MODEL 6
REMARK VINA RESULT:      -7.2      1.678      3.432
REMARK  Name = 
REMARK  15 active torsions:
REMARK  status: ('A' for Active; 'I' for Inactive)
REMARK    1  A    between atoms: C_1  and  C_2
REMARK    2  A    between atoms: C_2  and  O_4
REMARK    3  A    between atoms: O_4  and  C_5
REMARK    4  A    between atoms: C_5  and  C_6
REMARK    5  A    between atoms: C_5  and  O_7
REMARK    6  A    between atoms: O_7  and  C_8
REMARK    7  A    between atoms: C_8  and  C_10
REMARK    8  A    between atoms: C_10  and  C_11
REMARK    9  A    between atoms: C_10  and  C_12
REMARK   10  A    between atoms: C_10  and  O_13
REMARK   11  A    between atoms: O_13  and  C_14
REMARK   12  A    between atoms: C_17  and  C_18
REMARK   13  A    between atoms: C_18  and  C_19
REMARK   14  A    between atoms: C_19  and  N_20
REMARK   15  A    between atoms: C_21  and  C_23
REMARK                            x       y       z     vdW  Elec       q    Type
REMARK                         _______ _______ _______ _____ _____    ______ ____
ROOT
ATOM      1  C   UNL     1       2.630   6.464  18.408  0.00  0.00    +0.000 A 
ATOM      2  C   UNL     1       2.317   7.775  18.096  0.00  0.00    +0.000 A 
ATOM      3  C   UNL     1       1.835   8.650  19.060  0.00  0.00    +0.000 A 
ATOM      4  C   UNL     1       1.570   8.222  20.361  0.00  0.00    +0.000 A 
ATOM      5  C   UNL     1       1.869   6.891  20.683  0.00  0.00    +0.000 A 
ATOM      6  C   UNL     1       2.389   6.018  19.710  0.00  0.00    +0.000 A 
ENDROOT
BRANCH   1   7
ATOM      7  O   UNL     1       3.098   5.550  17.510  0.00  0.00    +0.000 OA
BRANCH   7   8
ATOM      8  C   UNL     1       4.514   5.297  17.360  0.00  0.00    +0.000 C 
ATOM      9  C   UNL     1       5.311   6.603  17.446  0.00  0.00    +0.000 C 
ATOM     10  C   UNL     1       4.910   4.470  16.120  0.00  0.00    +0.000 C 
BRANCH   8  11
ATOM     11  C   UNL     1       4.941   4.360  18.517  0.00  0.00    +0.000 C 
ATOM     12  O   UNL     1       5.801   4.638  19.346  0.00  0.00    +0.000 OA
BRANCH  11  13
ATOM     13  O   UNL     1       4.425   3.112  18.342  0.00  0.00    +0.000 OA
BRANCH  13  14
ATOM     14  C   UNL     1       3.617   2.639  19.434  0.00  0.00    +0.000 C 
ATOM     15  C   UNL     1       4.568   1.845  20.325  0.00  0.00    +0.000 C 
BRANCH  14  16
ATOM     16  O   UNL     1       2.546   1.792  19.014  0.00  0.00    +0.000 OA
BRANCH  16  18
ATOM     17  C   UNL     1       1.249   2.837  20.673  0.00  0.00    +0.000 C 
ATOM     18  C   UNL     1       1.309   2.295  19.279  0.00  0.00    +0.000 C 
ATOM     19  O   UNL     1       0.362   2.306  18.500  0.00  0.00    +0.000 OA
ENDBRANCH  16  18
ENDBRANCH  14  16
ENDBRANCH  13  14
ENDBRANCH  11  13
ENDBRANCH   8  11
ENDBRANCH   7   8
ENDBRANCH   1   7
BRANCH   4  20
ATOM     20  C   UNL     1       1.010   9.184  21.386  0.00  0.00    +0.000 C 
BRANCH  20  21
ATOM     21  C   UNL     1       0.700  10.578  20.813  0.00  0.00    +0.000 C 
BRANCH  21  22
ATOM     22  N   UNL     1      -0.408  11.228  21.471  0.00  0.00    +0.000 N 
ATOM     23  C   UNL     1      -1.375  11.891  20.740  0.00  0.00    +0.000 C 
ATOM     24  O   UNL     1      -1.341  12.036  19.525  0.00  0.00    +0.000 OA
ATOM     25  H   UNL     1      -0.589  10.982  22.434  0.00  0.00    +0.000 HD
BRANCH  23  26
ATOM     26  C   UNL     1      -2.532  12.396  21.521  0.00  0.00    +0.000 A 
ATOM     27  C   UNL     1      -2.619  12.179  22.902  0.00  0.00    +0.000 A 
ATOM     28  C   UNL     1      -3.725  12.648  23.609  0.00  0.00    +0.000 A 
ATOM     29  C   UNL     1      -4.734  13.341  22.940  0.00  0.00    +0.000 A 
ATOM     30 CL   UNL     1      -6.095  13.915  23.821  0.00  0.00    +0.000 Cl
ATOM     31  C   UNL     1      -4.645  13.575  21.568  0.00  0.00    +0.000 A 
ATOM     32  C   UNL     1      -3.539  13.106  20.856  0.00  0.00    +0.000 A 
ENDBRANCH  23  26
ENDBRANCH  21  22
ENDBRANCH  20  21
ENDBRANCH   4  20
TORSDOF 11
ENDMDL
MODEL 7
REMARK VINA RESULT:      -7.1      2.772      4.213
REMARK  Name = 
REMARK  15 active torsions:
REMARK  status: ('A' for Active; 'I' for Inactive)
REMARK    1  A    between atoms: C_1  and  C_2
REMARK    2  A    between atoms: C_2  and  O_4
REMARK    3  A    between atoms: O_4  and  C_5
REMARK    4  A    between atoms: C_5  and  C_6
REMARK    5  A    between atoms: C_5  and  O_7
REMARK    6  A    between atoms: O_7  and  C_8
REMARK    7  A    between atoms: C_8  and  C_10
REMARK    8  A    between atoms: C_10  and  C_11
REMARK    9  A    between atoms: C_10  and  C_12
REMARK   10  A    between atoms: C_10  and  O_13
REMARK   11  A    between atoms: O_13  and  C_14
REMARK   12  A    between atoms: C_17  and  C_18
REMARK   13  A    between atoms: C_18  and  C_19
REMARK   14  A    between atoms: C_19  and  N_20
REMARK   15  A    between atoms: C_21  and  C_23
REMARK                            x       y       z     vdW  Elec       q    Type
REMARK                         _______ _______ _______ _____ _____    ______ ____
ROOT
ATOM      1  C   UNL     1       2.472   6.629  18.537  0.00  0.00    +0.000 A 
ATOM      2  C   UNL     1       2.292   7.707  17.688  0.00  0.00    +0.000 A 
ATOM      3  C   UNL     1       1.831   8.928  18.161  0.00  0.00    +0.000 A 
ATOM      4  C   UNL     1       1.452   9.095  19.493  0.00  0.00    +0.000 A 
ATOM      5  C   UNL     1       1.615   8.004  20.358  0.00  0.00    +0.000 A 
ATOM      6  C   UNL     1       2.115   6.779  19.880  0.00  0.00    +0.000 A 
ENDROOT
BRANCH   1   7
ATOM      7  O   UNL     1       2.911   5.401  18.139  0.00  0.00    +0.000 OA
BRANCH   7   8
ATOM      8  C   UNL     1       4.321   5.122  17.976  0.00  0.00    +0.000 C 
ATOM      9  C   UNL     1       5.151   5.901  19.002  0.00  0.00    +0.000 C 
ATOM     10  C   UNL     1       4.868   5.303  16.546  0.00  0.00    +0.000 C 
BRANCH   8  11
ATOM     11  C   UNL     1       4.521   3.603  18.203  0.00  0.00    +0.000 C 
ATOM     12  O   UNL     1       4.006   2.729  17.514  0.00  0.00    +0.000 OA
BRANCH  11  13
ATOM     13  O   UNL     1       5.129   3.372  19.400  0.00  0.00    +0.000 OA
BRANCH  13  14
ATOM     14  C   UNL     1       4.302   2.714  20.375  0.00  0.00    +0.000 C 
ATOM     15  C   UNL     1       4.954   1.354  20.604  0.00  0.00    +0.000 C 
BRANCH  14  16
ATOM     16  O   UNL     1       2.956   2.523  19.932  0.00  0.00    +0.000 OA
BRANCH  16  18
ATOM     17  C   UNL     1       0.816   3.446  20.234  0.00  0.00    +0.000 C 
ATOM     18  C   UNL     1       2.018   2.826  20.872  0.00  0.00    +0.000 C 
ATOM     19  O   UNL     1       2.128   2.629  22.077  0.00  0.00    +0.000 OA
ENDBRANCH  16  18
ENDBRANCH  14  16
ENDBRANCH  13  14
ENDBRANCH  11  13
ENDBRANCH   8  11
ENDBRANCH   7   8
ENDBRANCH   1   7
BRANCH   4  20
ATOM     20  C   UNL     1       0.917  10.424  19.979  0.00  0.00    +0.000 C 
BRANCH  20  21
ATOM     21  C   UNL     1       0.624  11.419  18.841  0.00  0.00    +0.000 C 
BRANCH  21  22
ATOM     22  N   UNL     1      -0.766  11.800  18.764  0.00  0.00    +0.000 N 
ATOM     23  C   UNL     1      -1.668  11.043  18.043  0.00  0.00    +0.000 C 
ATOM     24  O   UNL     1      -1.366  10.061  17.377  0.00  0.00    +0.000 OA
ATOM     25  H   UNL     1      -1.102  12.476  19.436  0.00  0.00    +0.000 HD
BRANCH  23  26
ATOM     26  C   UNL     1      -3.087  11.462  18.157  0.00  0.00    +0.000 A 
ATOM     27  C   UNL     1      -3.567  12.073  19.321  0.00  0.00    +0.000 A 
ATOM     28  C   UNL     1      -4.909  12.441  19.410  0.00  0.00    +0.000 A 
ATOM     29  C   UNL     1      -5.765  12.207  18.333  0.00  0.00    +0.000 A 
ATOM     30 CL   UNL     1      -7.419  12.662  18.452  0.00  0.00    +0.000 Cl
ATOM     31  C   UNL     1      -5.289  11.614  17.164  0.00  0.00    +0.000 A 
ATOM     32  C   UNL     1      -3.946  11.243  17.072  0.00  0.00    +0.000 A 
ENDBRANCH  23  26
ENDBRANCH  21  22
ENDBRANCH  20  21
ENDBRANCH   4  20
TORSDOF 11
ENDMDL
MODEL 8
REMARK VINA RESULT:      -7.1      2.754      3.524
REMARK  Name = 
REMARK  15 active torsions:
REMARK  status: ('A' for Active; 'I' for Inactive)
REMARK    1  A    between atoms: C_1  and  C_2
REMARK    2  A    between atoms: C_2  and  O_4
REMARK    3  A    between atoms: O_4  and  C_5
REMARK    4  A    between atoms: C_5  and  C_6
REMARK    5  A    between atoms: C_5  and  O_7
REMARK    6  A    between atoms: O_7  and  C_8
REMARK    7  A    between atoms: C_8  and  C_10
REMARK    8  A    between atoms: C_10  and  C_11
REMARK    9  A    between atoms: C_10  and  C_12
REMARK   10  A    between atoms: C_10  and  O_13
REMARK   11  A    between atoms: O_13  and  C_14
REMARK   12  A    between atoms: C_17  and  C_18
REMARK   13  A    between atoms: C_18  and  C_19
REMARK   14  A    between atoms: C_19  and  N_20
REMARK   15  A    between atoms: C_21  and  C_23
REMARK                            x       y       z     vdW  Elec       q    Type
REMARK                         _______ _______ _______ _____ _____    ______ ____
ROOT
ATOM      1  C   UNL     1       2.489   5.325  18.771  0.00  0.00    +0.000 A 
ATOM      2  C   UNL     1       2.731   6.640  18.413  0.00  0.00    +0.000 A 
ATOM      3  C   UNL     1       2.355   7.692  19.237  0.00  0.00    +0.000 A 
ATOM      4  C   UNL     1       1.646   7.472  20.418  0.00  0.00    +0.000 A 
ATOM      5  C   UNL     1       1.382   6.143  20.781  0.00  0.00    +0.000 A 
ATOM      6  C   UNL     1       1.796   5.080  19.958  0.00  0.00    +0.000 A 
ENDROOT
BRANCH   1   7
ATOM      7  O   UNL     1       2.823   4.246  18.006  0.00  0.00    +0.000 OA
BRANCH   7   8
ATOM      8  C   UNL     1       3.703   3.212  18.505  0.00  0.00    +0.000 C 
ATOM      9  C   UNL     1       3.704   2.000  17.565  0.00  0.00    +0.000 C 
ATOM     10  C   UNL     1       3.469   2.795  19.970  0.00  0.00    +0.000 C 
BRANCH   8  11
ATOM     11  C   UNL     1       5.130   3.810  18.568  0.00  0.00    +0.000 C 
ATOM     12  O   UNL     1       5.767   3.965  19.605  0.00  0.00    +0.000 OA
BRANCH  11  13
ATOM     13  O   UNL     1       5.474   4.364  17.372  0.00  0.00    +0.000 OA
BRANCH  13  14
ATOM     14  C   UNL     1       6.850   4.773  17.275  0.00  0.00    +0.000 C 
ATOM     15  C   UNL     1       6.875   6.216  17.770  0.00  0.00    +0.000 C 
BRANCH  14  16
ATOM     16  O   UNL     1       7.358   4.723  15.940  0.00  0.00    +0.000 OA
BRANCH  16  18
ATOM     17  C   UNL     1       6.224   3.784  14.107  0.00  0.00    +0.000 C 
ATOM     18  C   UNL     1       6.422   4.980  14.984  0.00  0.00    +0.000 C 
ATOM     19  O   UNL     1       5.820   6.039  14.844  0.00  0.00    +0.000 OA
ENDBRANCH  16  18
ENDBRANCH  14  16
ENDBRANCH  13  14
ENDBRANCH  11  13
ENDBRANCH   8  11
ENDBRANCH   7   8
ENDBRANCH   1   7
BRANCH   4  20
ATOM     20  C   UNL     1       1.214   8.635  21.283  0.00  0.00    +0.000 C 
BRANCH  20  21
ATOM     21  C   UNL     1       1.268   9.991  20.556  0.00  0.00    +0.000 C 
BRANCH  21  22
ATOM     22  N   UNL     1      -0.018  10.422  20.062  0.00  0.00    +0.000 N 
ATOM     23  C   UNL     1      -0.357  10.257  18.733  0.00  0.00    +0.000 C 
ATOM     24  O   UNL     1       0.399   9.811  17.880  0.00  0.00    +0.000 OA
ATOM     25  H   UNL     1      -0.739  10.614  20.743  0.00  0.00    +0.000 HD
BRANCH  23  26
ATOM     26  C   UNL     1      -1.755  10.611  18.382  0.00  0.00    +0.000 A 
ATOM     27  C   UNL     1      -2.392  10.024  17.282  0.00  0.00    +0.000 A 
ATOM     28  C   UNL     1      -3.700  10.387  16.963  0.00  0.00    +0.000 A 
ATOM     29  C   UNL     1      -4.370  11.327  17.746  0.00  0.00    +0.000 A 
ATOM     30 CL   UNL     1      -5.982  11.771  17.343  0.00  0.00    +0.000 Cl
ATOM     31  C   UNL     1      -3.747  11.903  18.852  0.00  0.00    +0.000 A 
ATOM     32  C   UNL     1      -2.437  11.542  19.175  0.00  0.00    +0.000 A 
ENDBRANCH  23  26
ENDBRANCH  21  22
ENDBRANCH  20  21
ENDBRANCH   4  20
TORSDOF 11
ENDMDL
MODEL 9
REMARK VINA RESULT:      -7.1      4.663     10.027
REMARK  Name = 
REMARK  15 active torsions:
REMARK  status: ('A' for Active; 'I' for Inactive)
REMARK    1  A    between atoms: C_1  and  C_2
REMARK    2  A    between atoms: C_2  and  O_4
REMARK    3  A    between atoms: O_4  and  C_5
REMARK    4  A    between atoms: C_5  and  C_6
REMARK    5  A    between atoms: C_5  and  O_7
REMARK    6  A    between atoms: O_7  and  C_8
REMARK    7  A    between atoms: C_8  and  C_10
REMARK    8  A    between atoms: C_10  and  C_11
REMARK    9  A    between atoms: C_10  and  C_12
REMARK   10  A    between atoms: C_10  and  O_13
REMARK   11  A    between atoms: O_13  and  C_14
REMARK   12  A    between atoms: C_17  and  C_18
REMARK   13  A    between atoms: C_18  and  C_19
REMARK   14  A    between atoms: C_19  and  N_20
REMARK   15  A    between atoms: C_21  and  C_23
REMARK                            x       y       z     vdW  Elec       q    Type
REMARK                         _______ _______ _______ _____ _____    ______ ____
ROOT
ATOM      1  C   UNL     1       1.915   7.192  19.911  0.00  0.00    +0.000 A 
ATOM      2  C   UNL     1       2.318   7.076  18.592  0.00  0.00    +0.000 A 
ATOM      3  C   UNL     1       2.411   5.837  17.972  0.00  0.00    +0.000 A 
ATOM      4  C   UNL     1       2.184   4.655  18.676  0.00  0.00    +0.000 A 
ATOM      5  C   UNL     1       1.792   4.760  20.018  0.00  0.00    +0.000 A 
ATOM      6  C   UNL     1       1.666   6.021  20.630  0.00  0.00    +0.000 A 
ENDROOT
BRANCH   1   7
ATOM      7  O   UNL     1       1.811   8.374  20.583  0.00  0.00    +0.000 OA
BRANCH   7   8
ATOM      8  C   UNL     1       0.617   9.186  20.497  0.00  0.00    +0.000 C 
ATOM      9  C   UNL     1      -0.457   8.676  21.466  0.00  0.00    +0.000 C 
ATOM     10  C   UNL     1       0.053   9.384  19.076  0.00  0.00    +0.000 C 
BRANCH   8  11
ATOM     11  C   UNL     1       1.012  10.632  20.888  0.00  0.00    +0.000 C 
ATOM     12  O   UNL     1       0.843  11.115  22.002  0.00  0.00    +0.000 OA
BRANCH  11  13
ATOM     13  O   UNL     1       1.332  11.359  19.781  0.00  0.00    +0.000 OA
BRANCH  13  14
ATOM     14  C   UNL     1       1.238  12.784  19.954  0.00  0.00    +0.000 C 
ATOM     15  C   UNL     1       0.428  13.281  18.760  0.00  0.00    +0.000 C 
BRANCH  14  16
ATOM     16  O   UNL     1       2.511  13.433  19.964  0.00  0.00    +0.000 OA
BRANCH  16  18
ATOM     17  C   UNL     1       4.225  14.500  21.169  0.00  0.00    +0.000 C 
ATOM     18  C   UNL     1       2.786  14.088  21.126  0.00  0.00    +0.000 C 
ATOM     19  O   UNL     1       1.983  14.314  22.024  0.00  0.00    +0.000 OA
ENDBRANCH  16  18
ENDBRANCH  14  16
ENDBRANCH  13  14
ENDBRANCH  11  13
ENDBRANCH   8  11
ENDBRANCH   7   8
ENDBRANCH   1   7
BRANCH   4  20
ATOM     20  C   UNL     1       2.328   3.313  17.991  0.00  0.00    +0.000 C 
BRANCH  20  21
ATOM     21  C   UNL     1       3.777   2.795  17.959  0.00  0.00    +0.000 C 
BRANCH  21  22
ATOM     22  N   UNL     1       4.754   3.823  18.227  0.00  0.00    +0.000 N 
ATOM     23  C   UNL     1       5.527   4.347  17.209  0.00  0.00    +0.000 C 
ATOM     24  O   UNL     1       5.500   3.953  16.051  0.00  0.00    +0.000 OA
ATOM     25  H   UNL     1       4.686   4.313  19.107  0.00  0.00    +0.000 HD
BRANCH  23  26
ATOM     26  C   UNL     1       6.392   5.492  17.589  0.00  0.00    +0.000 A 
ATOM     27  C   UNL     1       7.348   5.367  18.604  0.00  0.00    +0.000 A 
ATOM     28  C   UNL     1       8.136   6.463  18.954  0.00  0.00    +0.000 A 
ATOM     29  C   UNL     1       7.975   7.676  18.284  0.00  0.00    +0.000 A 
ATOM     30 CL   UNL     1       8.950   9.022  18.722  0.00  0.00    +0.000 Cl
ATOM     31  C   UNL     1       7.037   7.801  17.259  0.00  0.00    +0.000 A 
ATOM     32  C   UNL     1       6.245   6.707  16.907  0.00  0.00    +0.000 A 
ENDBRANCH  23  26
ENDBRANCH  21  22
ENDBRANCH  20  21
ENDBRANCH   4  20
TORSDOF 11
ENDMDL
