MODEL 1
REMARK VINA RESULT:      -8.4      0.000      0.000
REMARK  Name = 
REMARK  15 active torsions:
REMARK  status: ('A' for Active; 'I' for Inactive)
REMARK    1  A    between atoms: C_1  and  O_2
REMARK    2  A    between atoms: O_2  and  C_3
REMARK    3  A    between atoms: C_3  and  C_5
REMARK    4  A    between atoms: C_5  and  C_6
REMARK    5  A    between atoms: C_6  and  C_7
REMARK    6  A    between atoms: C_7  and  C_8
REMARK    7  A    between atoms: C_8  and  C_9
REMARK    8  A    between atoms: C_9  and  N_10
REMARK    9  A    between atoms: C_11  and  C_13
REMARK   10  A    between atoms: C_13  and  C_14
REMARK   11  A    between atoms: C_13  and  N_21
REMARK   12  A    between atoms: C_14  and  C_15
REMARK   13  A    between atoms: C_22  and  C_24
REMARK   14  A    between atoms: C_24  and  N_25
REMARK   15  A    between atoms: C_28  and  C_29
REMARK                            x       y       z     vdW  Elec       q    Type
REMARK                         _______ _______ _______ _____ _____    ______ ____
ROOT
ATOM      1  C   UNL     1       3.558   6.231  18.354  0.00  0.00    +0.000 C 
ENDROOT
BRANCH   1   3
ATOM      2  N   UNL     1       6.004   5.969  17.793  0.00  0.00    +0.000 N 
ATOM      3  C   UNL     1       4.775   6.496  17.421  0.00  0.00    +0.000 C 
ATOM      4  O   UNL     1       4.650   7.176  16.406  0.00  0.00    +0.000 OA
ATOM      5  H   UNL     1       6.104   5.415  18.628  0.00  0.00    +0.000 HD
BRANCH   2   6
ATOM      6  C   UNL     1       7.106   5.978  16.845  0.00  0.00    +0.000 C 
BRANCH   6   7
ATOM      7  C   UNL     1       7.194   4.700  16.018  0.00  0.00    +0.000 C 
BRANCH   7   8
ATOM      8  C   UNL     1       6.896   4.982  14.534  0.00  0.00    +0.000 C 
BRANCH   8   9
ATOM      9  C   UNL     1       6.133   3.825  13.884  0.00  0.00    +0.000 C 
BRANCH   9  10
ATOM     10  C   UNL     1       6.497   3.664  12.408  0.00  0.00    +0.000 C 
BRANCH  10  11
ATOM     11  C   UNL     1       5.459   2.855  11.668  0.00  0.00    +0.000 C 
ATOM     12  O   UNL     1       5.525   1.654  11.443  0.00  0.00    +0.000 OA
BRANCH  11  14
ATOM     13  C   UNL     1       3.338   2.968  10.692  0.00  0.00    +0.000 C 
ATOM     14  O   UNL     1       4.430   3.665  11.292  0.00  0.00    +0.000 OA
ENDBRANCH  11  14
ENDBRANCH  10  11
ENDBRANCH   9  10
ENDBRANCH   8   9
ENDBRANCH   7   8
ENDBRANCH   6   7
ENDBRANCH   2   6
ENDBRANCH   1   3
BRANCH   1  15
ATOM     15  N   UNL     1       2.612   7.423  18.163  0.00  0.00    +0.000 N 
ATOM     16  C   UNL     1       1.950   8.107  19.169  0.00  0.00    +0.000 C 
ATOM     17  O   UNL     1       1.861   7.579  20.288  0.00  0.00    +0.000 OA
ATOM     18  H   UNL     1       2.799   7.934  17.306  0.00  0.00    +0.000 HD
BRANCH  16  19
ATOM     19  C   UNL     1       1.474   9.692  19.004  0.00  0.00    +0.000 C 
BRANCH  19  20
ATOM     20  N   UNL     1       0.188  10.301  19.374  0.00  0.00    +0.000 N 
ATOM     21  C   UNL     1       0.388  11.418  20.186  0.00  0.00    +0.000 A 
ATOM     22  O   UNL     1       1.120  11.529  21.148  0.00  0.00    +0.000 OA
ATOM     23  C   UNL     1      -0.360  12.620  19.639  0.00  0.00    +0.000 A 
ATOM     24  C   UNL     1       0.308  13.242  18.420  0.00  0.00    +0.000 C 
ATOM     25  N   UNL     1      -1.659  12.506  19.724  0.00  0.00    +0.000 NA
ATOM     26  C   UNL     1      -2.059  11.390  18.954  0.00  0.00    +0.000 A 
ATOM     27  C   UNL     1      -3.327  11.520  18.368  0.00  0.00    +0.000 A 
ATOM     28  C   UNL     1      -3.596  10.849  17.190  0.00  0.00    +0.000 A 
ATOM     29  C   UNL     1      -2.591  10.040  16.633  0.00  0.00    +0.000 A 
ATOM     30  C   UNL     1      -1.354   9.790  17.310  0.00  0.00    +0.000 A 
ATOM     31  C   UNL     1      -1.069  10.410  18.533  0.00  0.00    +0.000 A 
ENDBRANCH  19  20
ENDBRANCH  16  19
ENDBRANCH   1  15
BRANCH   1  32
ATOM     32  C   UNL     1       3.059   4.739  18.182  0.00  0.00    +0.000 C 
BRANCH  32  33
ATOM     33  C   UNL     1       2.597   3.957  19.410  0.00  0.00    +0.000 A 
ATOM     34  C   UNL     1       3.492   3.156  20.157  0.00  0.00    +0.000 A 
ATOM     35  C   UNL     1       3.049   2.415  21.263  0.00  0.00    +0.000 A 
ATOM     36  C   UNL     1       1.712   2.475  21.648  0.00  0.00    +0.000 A 
ATOM     37  C   UNL     1       0.830   3.294  20.943  0.00  0.00    +0.000 A 
ATOM     38  C   UNL     1       1.274   4.040  19.840  0.00  0.00    +0.000 A 
ENDBRANCH  32  33
ENDBRANCH   1  32
TORSDOF 13
ENDMDL
MODEL 2
REMARK VINA RESULT:      -8.3      1.925      3.111
REMARK  Name = 
REMARK  15 active torsions:
REMARK  status: ('A' for Active; 'I' for Inactive)
REMARK    1  A    between atoms: C_1  and  O_2
REMARK    2  A    between atoms: O_2  and  C_3
REMARK    3  A    between atoms: C_3  and  C_5
REMARK    4  A    between atoms: C_5  and  C_6
REMARK    5  A    between atoms: C_6  and  C_7
REMARK    6  A    between atoms: C_7  and  C_8
REMARK    7  A    between atoms: C_8  and  C_9
REMARK    8  A    between atoms: C_9  and  N_10
REMARK    9  A    between atoms: C_11  and  C_13
REMARK   10  A    between atoms: C_13  and  C_14
REMARK   11  A    between atoms: C_13  and  N_21
REMARK   12  A    between atoms: C_14  and  C_15
REMARK   13  A    between atoms: C_22  and  C_24
REMARK   14  A    between atoms: C_24  and  N_25
REMARK   15  A    between atoms: C_28  and  C_29
REMARK                            x       y       z     vdW  Elec       q    Type
REMARK                         _______ _______ _______ _____ _____    ______ ____
ROOT
ATOM      1  C   UNL     1       5.217   4.939  19.505  0.00  0.00    +0.000 C 
ENDROOT
BRANCH   1   3
ATOM      2  N   UNL     1       6.455   4.320  17.396  0.00  0.00    +0.000 N 
ATOM      3  C   UNL     1       6.335   5.206  18.458  0.00  0.00    +0.000 C 
ATOM      4  O   UNL     1       7.104   6.155  18.589  0.00  0.00    +0.000 OA
ATOM      5  H   UNL     1       5.828   3.539  17.293  0.00  0.00    +0.000 HD
BRANCH   2   6
ATOM      6  C   UNL     1       7.313   4.657  16.273  0.00  0.00    +0.000 C 
BRANCH   6   7
ATOM      7  C   UNL     1       6.534   5.054  15.023  0.00  0.00    +0.000 C 
BRANCH   7   8
ATOM      8  C   UNL     1       6.002   3.811  14.286  0.00  0.00    +0.000 C 
BRANCH   8   9
ATOM      9  C   UNL     1       6.389   3.827  12.806  0.00  0.00    +0.000 C 
BRANCH   9  10
ATOM     10  C   UNL     1       5.538   2.854  11.987  0.00  0.00    +0.000 C 
BRANCH  10  11
ATOM     11  C   UNL     1       6.382   1.762  11.375  0.00  0.00    +0.000 C 
ATOM     12  O   UNL     1       7.597   1.799  11.236  0.00  0.00    +0.000 OA
BRANCH  11  14
ATOM     13  C   UNL     1       6.099  -0.559  11.371  0.00  0.00    +0.000 C 
ATOM     14  O   UNL     1       5.584   0.722  11.004  0.00  0.00    +0.000 OA
ENDBRANCH  11  14
ENDBRANCH  10  11
ENDBRANCH   9  10
ENDBRANCH   8   9
ENDBRANCH   7   8
ENDBRANCH   6   7
ENDBRANCH   2   6
ENDBRANCH   1   3
BRANCH   1  15
ATOM     15  N   UNL     1       4.269   6.142  19.428  0.00  0.00    +0.000 N 
ATOM     16  C   UNL     1       3.445   6.464  18.363  0.00  0.00    +0.000 C 
ATOM     17  O   UNL     1       3.663   5.936  17.263  0.00  0.00    +0.000 OA
ATOM     18  H   UNL     1       3.983   6.470  20.346  0.00  0.00    +0.000 HD
BRANCH  16  19
ATOM     19  C   UNL     1       2.048   7.346  18.553  0.00  0.00    +0.000 C 
BRANCH  19  20
ATOM     20  N   UNL     1       1.877   8.657  19.196  0.00  0.00    +0.000 N 
ATOM     21  C   UNL     1       1.814   9.671  18.239  0.00  0.00    +0.000 A 
ATOM     22  O   UNL     1       2.530   9.842  17.275  0.00  0.00    +0.000 OA
ATOM     23  C   UNL     1       0.591  10.541  18.460  0.00  0.00    +0.000 A 
ATOM     24  C   UNL     1      -0.708   9.880  18.016  0.00  0.00    +0.000 C 
ATOM     25  N   UNL     1       0.654  11.260  19.549  0.00  0.00    +0.000 NA
ATOM     26  C   UNL     1       0.739  10.385  20.656  0.00  0.00    +0.000 A 
ATOM     27  C   UNL     1       0.131  10.872  21.823  0.00  0.00    +0.000 A 
ATOM     28  C   UNL     1      -0.373   9.973  22.745  0.00  0.00    +0.000 A 
ATOM     29  C   UNL     1      -0.237   8.600  22.487  0.00  0.00    +0.000 A 
ATOM     30  C   UNL     1       0.514   8.105  21.373  0.00  0.00    +0.000 A 
ATOM     31  C   UNL     1       1.087   8.987  20.447  0.00  0.00    +0.000 A 
ENDBRANCH  19  20
ENDBRANCH  16  19
ENDBRANCH   1  15
BRANCH   1  32
ATOM     32  C   UNL     1       4.686   3.455  19.365  0.00  0.00    +0.000 C 
BRANCH  32  33
ATOM     33  C   UNL     1       3.199   3.168  19.566  0.00  0.00    +0.000 A 
ATOM     34  C   UNL     1       2.349   2.870  18.476  0.00  0.00    +0.000 A 
ATOM     35  C   UNL     1       0.978   2.642  18.669  0.00  0.00    +0.000 A 
ATOM     36  C   UNL     1       0.440   2.694  19.953  0.00  0.00    +0.000 A 
ATOM     37  C   UNL     1       1.278   2.947  21.039  0.00  0.00    +0.000 A 
ATOM     38  C   UNL     1       2.650   3.169  20.847  0.00  0.00    +0.000 A 
ENDBRANCH  32  33
ENDBRANCH   1  32
TORSDOF 13
ENDMDL
MODEL 3
REMARK VINA RESULT:      -7.9      3.141     11.041
REMARK  Name = 
REMARK  15 active torsions:
REMARK  status: ('A' for Active; 'I' for Inactive)
REMARK    1  A    between atoms: C_1  and  O_2
REMARK    2  A    between atoms: O_2  and  C_3
REMARK    3  A    between atoms: C_3  and  C_5
REMARK    4  A    between atoms: C_5  and  C_6
REMARK    5  A    between atoms: C_6  and  C_7
REMARK    6  A    between atoms: C_7  and  C_8
REMARK    7  A    between atoms: C_8  and  C_9
REMARK    8  A    between atoms: C_9  and  N_10
REMARK    9  A    between atoms: C_11  and  C_13
REMARK   10  A    between atoms: C_13  and  C_14
REMARK   11  A    between atoms: C_13  and  N_21
REMARK   12  A    between atoms: C_14  and  C_15
REMARK   13  A    between atoms: C_22  and  C_24
REMARK   14  A    between atoms: C_24  and  N_25
REMARK   15  A    between atoms: C_28  and  C_29
REMARK                            x       y       z     vdW  Elec       q    Type
REMARK                         _______ _______ _______ _____ _____    ______ ____
ROOT
ATOM      1  C   UNL     1       0.705  10.886  19.727  0.00  0.00    +0.000 C 
ENDROOT
BRANCH   1   3
ATOM      2  N   UNL     1      -0.179  12.413  21.530  0.00  0.00    +0.000 N 
ATOM      3  C   UNL     1       0.008  11.107  21.100  0.00  0.00    +0.000 C 
ATOM      4  O   UNL     1      -0.337  10.150  21.789  0.00  0.00    +0.000 OA
ATOM      5  H   UNL     1       0.109  13.196  20.965  0.00  0.00    +0.000 HD
BRANCH   2   6
ATOM      6  C   UNL     1      -1.035  12.678  22.675  0.00  0.00    +0.000 C 
BRANCH   6   7
ATOM      7  C   UNL     1      -2.521  12.581  22.346  0.00  0.00    +0.000 C 
BRANCH   7   8
ATOM      8  C   UNL     1      -3.050  13.914  21.786  0.00  0.00    +0.000 C 
BRANCH   8   9
ATOM      9  C   UNL     1      -4.554  13.852  21.511  0.00  0.00    +0.000 C 
BRANCH   9  10
ATOM     10  C   UNL     1      -5.291  13.039  22.577  0.00  0.00    +0.000 C 
BRANCH  10  11
ATOM     11  C   UNL     1      -6.509  12.354  22.004  0.00  0.00    +0.000 C 
ATOM     12  O   UNL     1      -6.502  11.552  21.081  0.00  0.00    +0.000 OA
BRANCH  11  14
ATOM     13  C   UNL     1      -7.350  13.266  23.986  0.00  0.00    +0.000 C 
ATOM     14  O   UNL     1      -7.622  12.762  22.677  0.00  0.00    +0.000 OA
ENDBRANCH  11  14
ENDBRANCH  10  11
ENDBRANCH   9  10
ENDBRANCH   8   9
ENDBRANCH   7   8
ENDBRANCH   6   7
ENDBRANCH   2   6
ENDBRANCH   1   3
BRANCH   1  15
ATOM     15  N   UNL     1       1.006   9.384  19.642  0.00  0.00    +0.000 N 
ATOM     16  C   UNL     1       1.858   8.773  18.738  0.00  0.00    +0.000 C 
ATOM     17  O   UNL     1       2.204   9.404  17.728  0.00  0.00    +0.000 OA
ATOM     18  H   UNL     1       0.856   8.908  20.527  0.00  0.00    +0.000 HD
BRANCH  16  19
ATOM     19  C   UNL     1       2.613   7.327  19.062  0.00  0.00    +0.000 C 
BRANCH  19  20
ATOM     20  N   UNL     1       2.687   6.127  18.215  0.00  0.00    +0.000 N 
ATOM     21  C   UNL     1       3.886   6.102  17.502  0.00  0.00    +0.000 A 
ATOM     22  O   UNL     1       4.414   7.002  16.884  0.00  0.00    +0.000 OA
ATOM     23  C   UNL     1       4.592   4.771  17.688  0.00  0.00    +0.000 A 
ATOM     24  C   UNL     1       5.262   4.628  19.048  0.00  0.00    +0.000 C 
ATOM     25  N   UNL     1       3.970   3.770  17.123  0.00  0.00    +0.000 NA
ATOM     26  C   UNL     1       2.695   3.644  17.721  0.00  0.00    +0.000 A 
ATOM     27  C   UNL     1       2.215   2.327  17.782  0.00  0.00    +0.000 A 
ATOM     28  C   UNL     1       1.341   1.975  18.793  0.00  0.00    +0.000 A 
ATOM     29  C   UNL     1       0.947   2.960  19.713  0.00  0.00    +0.000 A 
ATOM     30  C   UNL     1       1.317   4.335  19.562  0.00  0.00    +0.000 A 
ATOM     31  C   UNL     1       2.159   4.738  18.516  0.00  0.00    +0.000 A 
ENDBRANCH  19  20
ENDBRANCH  16  19
ENDBRANCH   1  15
BRANCH   1  32
ATOM     32  C   UNL     1      -0.093  11.638  18.587  0.00  0.00    +0.000 C 
BRANCH  32  33
ATOM     33  C   UNL     1      -1.533  11.229  18.285  0.00  0.00    +0.000 A 
ATOM     34  C   UNL     1      -2.631  11.989  18.750  0.00  0.00    +0.000 A 
ATOM     35  C   UNL     1      -3.951  11.584  18.496  0.00  0.00    +0.000 A 
ATOM     36  C   UNL     1      -4.192  10.425  17.762  0.00  0.00    +0.000 A 
ATOM     37  C   UNL     1      -3.116   9.691  17.264  0.00  0.00    +0.000 A 
ATOM     38  C   UNL     1      -1.795  10.098  17.513  0.00  0.00    +0.000 A 
ENDBRANCH  32  33
ENDBRANCH   1  32
TORSDOF 13
ENDMDL
MODEL 4
REMARK VINA RESULT:      -7.9      3.251     11.159
REMARK  Name = 
REMARK  15 active torsions:
REMARK  status: ('A' for Active; 'I' for Inactive)
REMARK    1  A    between atoms: C_1  and  O_2
REMARK    2  A    between atoms: O_2  and  C_3
REMARK    3  A    between atoms: C_3  and  C_5
REMARK    4  A    between atoms: C_5  and  C_6
REMARK    5  A    between atoms: C_6  and  C_7
REMARK    6  A    between atoms: C_7  and  C_8
REMARK    7  A    between atoms: C_8  and  C_9
REMARK    8  A    between atoms: C_9  and  N_10
REMARK    9  A    between atoms: C_11  and  C_13
REMARK   10  A    between atoms: C_13  and  C_14
REMARK   11  A    between atoms: C_13  and  N_21
REMARK   12  A    between atoms: C_14  and  C_15
REMARK   13  A    between atoms: C_22  and  C_24
REMARK   14  A    between atoms: C_24  and  N_25
REMARK   15  A    between atoms: C_28  and  C_29
REMARK                            x       y       z     vdW  Elec       q    Type
REMARK                         _______ _______ _______ _____ _____    ______ ____
ROOT
ATOM      1  C   UNL     1       0.943  11.171  19.444  0.00  0.00    +0.000 C 
ENDROOT
BRANCH   1   3
ATOM      2  N   UNL     1      -0.638  11.112  21.408  0.00  0.00    +0.000 N 
ATOM      3  C   UNL     1       0.533  11.630  20.872  0.00  0.00    +0.000 C 
ATOM      4  O   UNL     1       1.212  12.447  21.489  0.00  0.00    +0.000 OA
ATOM      5  H   UNL     1      -1.196  10.446  20.900  0.00  0.00    +0.000 HD
BRANCH   2   6
ATOM      6  C   UNL     1      -0.935  11.315  22.817  0.00  0.00    +0.000 C 
BRANCH   6   7
ATOM      7  C   UNL     1      -1.366  12.743  23.138  0.00  0.00    +0.000 C 
BRANCH   7   8
ATOM      8  C   UNL     1      -2.557  13.170  22.261  0.00  0.00    +0.000 C 
BRANCH   8   9
ATOM      9  C   UNL     1      -3.859  12.513  22.722  0.00  0.00    +0.000 C 
BRANCH   9  10
ATOM     10  C   UNL     1      -4.549  13.328  23.817  0.00  0.00    +0.000 C 
BRANCH  10  11
ATOM     11  C   UNL     1      -6.028  13.026  23.882  0.00  0.00    +0.000 C 
ATOM     12  O   UNL     1      -6.517  11.921  24.070  0.00  0.00    +0.000 OA
BRANCH  11  14
ATOM     13  C   UNL     1      -5.942  15.360  23.779  0.00  0.00    +0.000 C 
ATOM     14  O   UNL     1      -6.737  14.176  23.704  0.00  0.00    +0.000 OA
ENDBRANCH  11  14
ENDBRANCH  10  11
ENDBRANCH   9  10
ENDBRANCH   8   9
ENDBRANCH   7   8
ENDBRANCH   6   7
ENDBRANCH   2   6
ENDBRANCH   1   3
BRANCH   1  15
ATOM     15  N   UNL     1       1.102   9.648  19.518  0.00  0.00    +0.000 N 
ATOM     16  C   UNL     1       1.805   8.857  18.624  0.00  0.00    +0.000 C 
ATOM     17  O   UNL     1       2.103   9.331  17.518  0.00  0.00    +0.000 OA
ATOM     18  H   UNL     1       1.000   9.292  20.464  0.00  0.00    +0.000 HD
BRANCH  16  19
ATOM     19  C   UNL     1       2.459   7.390  19.056  0.00  0.00    +0.000 C 
BRANCH  19  20
ATOM     20  N   UNL     1       2.597   6.177  18.238  0.00  0.00    +0.000 N 
ATOM     21  C   UNL     1       3.819   6.173  17.563  0.00  0.00    +0.000 A 
ATOM     22  O   UNL     1       4.339   7.077  16.944  0.00  0.00    +0.000 OA
ATOM     23  C   UNL     1       4.558   4.869  17.799  0.00  0.00    +0.000 A 
ATOM     24  C   UNL     1       5.188   4.774  19.183  0.00  0.00    +0.000 C 
ATOM     25  N   UNL     1       3.985   3.838  17.237  0.00  0.00    +0.000 NA
ATOM     26  C   UNL     1       2.696   3.685  17.796  0.00  0.00    +0.000 A 
ATOM     27  C   UNL     1       2.254   2.355  17.870  0.00  0.00    +0.000 A 
ATOM     28  C   UNL     1       1.359   1.997  18.860  0.00  0.00    +0.000 A 
ATOM     29  C   UNL     1       0.906   2.988  19.746  0.00  0.00    +0.000 A 
ATOM     30  C   UNL     1       1.239   4.370  19.577  0.00  0.00    +0.000 A 
ATOM     31  C   UNL     1       2.101   4.778  18.551  0.00  0.00    +0.000 A 
ENDBRANCH  19  20
ENDBRANCH  16  19
ENDBRANCH   1  15
BRANCH   1  32
ATOM     32  C   UNL     1       0.010  11.857  18.366  0.00  0.00    +0.000 C 
BRANCH  32  33
ATOM     33  C   UNL     1      -1.413  11.338  18.168  0.00  0.00    +0.000 A 
ATOM     34  C   UNL     1      -2.534  12.044  18.661  0.00  0.00    +0.000 A 
ATOM     35  C   UNL     1      -3.834  11.540  18.503  0.00  0.00    +0.000 A 
ATOM     36  C   UNL     1      -4.034  10.332  17.839  0.00  0.00    +0.000 A 
ATOM     37  C   UNL     1      -2.938   9.648  17.312  0.00  0.00    +0.000 A 
ATOM     38  C   UNL     1      -1.638  10.155  17.465  0.00  0.00    +0.000 A 
ENDBRANCH  32  33
ENDBRANCH   1  32
TORSDOF 13
ENDMDL
MODEL 5
REMARK VINA RESULT:      -7.8      3.725      5.910
REMARK  Name = 
REMARK  15 active torsions:
REMARK  status: ('A' for Active; 'I' for Inactive)
REMARK    1  A    between atoms: C_1  and  O_2
REMARK    2  A    between atoms: O_2  and  C_3
REMARK    3  A    between atoms: C_3  and  C_5
REMARK    4  A    between atoms: C_5  and  C_6
REMARK    5  A    between atoms: C_6  and  C_7
REMARK    6  A    between atoms: C_7  and  C_8
REMARK    7  A    between atoms: C_8  and  C_9
REMARK    8  A    between atoms: C_9  and  N_10
REMARK    9  A    between atoms: C_11  and  C_13
REMARK   10  A    between atoms: C_13  and  C_14
REMARK   11  A    between atoms: C_13  and  N_21
REMARK   12  A    between atoms: C_14  and  C_15
REMARK   13  A    between atoms: C_22  and  C_24
REMARK   14  A    between atoms: C_24  and  N_25
REMARK   15  A    between atoms: C_28  and  C_29
REMARK                            x       y       z     vdW  Elec       q    Type
REMARK                         _______ _______ _______ _____ _____    ______ ____
ROOT
ATOM      1  C   UNL     1       4.511   6.278  17.896  0.00  0.00    +0.000 C 
ENDROOT
BRANCH   1   3
ATOM      2  N   UNL     1       6.600   7.689  17.992  0.00  0.00    +0.000 N 
ATOM      3  C   UNL     1       5.797   6.850  17.233  0.00  0.00    +0.000 C 
ATOM      4  O   UNL     1       6.070   6.587  16.064  0.00  0.00    +0.000 OA
ATOM      5  H   UNL     1       6.372   7.907  18.948  0.00  0.00    +0.000 HD
BRANCH   2   6
ATOM      6  C   UNL     1       7.923   8.048  17.509  0.00  0.00    +0.000 C 
BRANCH   6   7
ATOM      7  C   UNL     1       8.255   9.523  17.712  0.00  0.00    +0.000 C 
BRANCH   7   8
ATOM      8  C   UNL     1       9.026   9.739  19.027  0.00  0.00    +0.000 C 
BRANCH   8   9
ATOM      9  C   UNL     1       9.678  11.122  19.076  0.00  0.00    +0.000 C 
BRANCH   9  10
ATOM     10  C   UNL     1       9.246  11.994  17.896  0.00  0.00    +0.000 C 
BRANCH  10  11
ATOM     11  C   UNL     1      10.190  13.156  17.693  0.00  0.00    +0.000 C 
ATOM     12  O   UNL     1      11.071  13.212  16.846  0.00  0.00    +0.000 OA
BRANCH  11  14
ATOM     13  C   UNL     1       8.636  14.756  18.392  0.00  0.00    +0.000 C 
ATOM     14  O   UNL     1       9.907  14.137  18.594  0.00  0.00    +0.000 OA
ENDBRANCH  11  14
ENDBRANCH  10  11
ENDBRANCH   9  10
ENDBRANCH   8   9
ENDBRANCH   7   8
ENDBRANCH   6   7
ENDBRANCH   2   6
ENDBRANCH   1   3
BRANCH   1  15
ATOM     15  N   UNL     1       3.394   7.284  17.591  0.00  0.00    +0.000 N 
ATOM     16  C   UNL     1       2.422   7.716  18.477  0.00  0.00    +0.000 C 
ATOM     17  O   UNL     1       2.227   7.060  19.511  0.00  0.00    +0.000 OA
ATOM     18  H   UNL     1       3.636   7.913  16.831  0.00  0.00    +0.000 HD
BRANCH  16  19
ATOM     19  C   UNL     1       1.670   9.191  18.324  0.00  0.00    +0.000 C 
BRANCH  19  20
ATOM     20  N   UNL     1       1.455  10.216  19.356  0.00  0.00    +0.000 N 
ATOM     21  C   UNL     1       1.375  11.485  18.781  0.00  0.00    +0.000 A 
ATOM     22  O   UNL     1       2.098  11.978  17.940  0.00  0.00    +0.000 OA
ATOM     23  C   UNL     1       0.125  12.208  19.248  0.00  0.00    +0.000 A 
ATOM     24  C   UNL     1      -1.149  11.700  18.586  0.00  0.00    +0.000 C 
ATOM     25  N   UNL     1       0.155  12.534  20.513  0.00  0.00    +0.000 NA
ATOM     26  C   UNL     1       0.251  11.347  21.276  0.00  0.00    +0.000 A 
ATOM     27  C   UNL     1      -0.385  11.412  22.525  0.00  0.00    +0.000 A 
ATOM     28  C   UNL     1      -0.875  10.251  23.092  0.00  0.00    +0.000 A 
ATOM     29  C   UNL     1      -0.699   9.040  22.403  0.00  0.00    +0.000 A 
ATOM     30  C   UNL     1       0.080   8.953  21.205  0.00  0.00    +0.000 A 
ATOM     31  C   UNL     1       0.639  10.102  20.629  0.00  0.00    +0.000 A 
ENDBRANCH  19  20
ENDBRANCH  16  19
ENDBRANCH   1  15
BRANCH   1  32
ATOM     32  C   UNL     1       4.361   4.741  17.550  0.00  0.00    +0.000 C 
BRANCH  32  33
ATOM     33  C   UNL     1       3.328   3.901  18.300  0.00  0.00    +0.000 A 
ATOM     34  C   UNL     1       3.641   3.261  19.521  0.00  0.00    +0.000 A 
ATOM     35  C   UNL     1       2.694   2.464  20.184  0.00  0.00    +0.000 A 
ATOM     36  C   UNL     1       1.420   2.308  19.644  0.00  0.00    +0.000 A 
ATOM     37  C   UNL     1       1.089   2.968  18.461  0.00  0.00    +0.000 A 
ATOM     38  C   UNL     1       2.033   3.770  17.801  0.00  0.00    +0.000 A 
ENDBRANCH  32  33
ENDBRANCH   1  32
TORSDOF 13
ENDMDL
MODEL 6
REMARK VINA RESULT:      -7.8      3.287     11.061
REMARK  Name = 
REMARK  15 active torsions:
REMARK  status: ('A' for Active; 'I' for Inactive)
REMARK    1  A    between atoms: C_1  and  O_2
REMARK    2  A    between atoms: O_2  and  C_3
REMARK    3  A    between atoms: C_3  and  C_5
REMARK    4  A    between atoms: C_5  and  C_6
REMARK    5  A    between atoms: C_6  and  C_7
REMARK    6  A    between atoms: C_7  and  C_8
REMARK    7  A    between atoms: C_8  and  C_9
REMARK    8  A    between atoms: C_9  and  N_10
REMARK    9  A    between atoms: C_11  and  C_13
REMARK   10  A    between atoms: C_13  and  C_14
REMARK   11  A    between atoms: C_13  and  N_21
REMARK   12  A    between atoms: C_14  and  C_15
REMARK   13  A    between atoms: C_22  and  C_24
REMARK   14  A    between atoms: C_24  and  N_25
REMARK   15  A    between atoms: C_28  and  C_29
REMARK                            x       y       z     vdW  Elec       q    Type
REMARK                         _______ _______ _______ _____ _____    ______ ____
ROOT
ATOM      1  C   UNL     1      -0.002  10.523  18.781  0.00  0.00    +0.000 C 
ENDROOT
BRANCH   1   3
ATOM      2  N   UNL     1      -0.730  11.585  20.950  0.00  0.00    +0.000 N 
ATOM      3  C   UNL     1       0.074  11.676  19.822  0.00  0.00    +0.000 C 
ATOM      4  O   UNL     1       0.801  12.647  19.631  0.00  0.00    +0.000 OA
ATOM      5  H   UNL     1      -1.330  10.791  21.103  0.00  0.00    +0.000 HD
BRANCH   2   6
ATOM      6  C   UNL     1      -0.519  12.501  22.059  0.00  0.00    +0.000 C 
BRANCH   6   7
ATOM      7  C   UNL     1      -1.653  12.478  23.079  0.00  0.00    +0.000 C 
BRANCH   7   8
ATOM      8  C   UNL     1      -1.854  13.867  23.712  0.00  0.00    +0.000 C 
BRANCH   8   9
ATOM      9  C   UNL     1      -3.266  14.026  24.282  0.00  0.00    +0.000 C 
BRANCH   9  10
ATOM     10  C   UNL     1      -4.073  12.732  24.164  0.00  0.00    +0.000 C 
BRANCH  10  11
ATOM     11  C   UNL     1      -5.420  12.977  23.528  0.00  0.00    +0.000 C 
ATOM     12  O   UNL     1      -5.653  13.807  22.660  0.00  0.00    +0.000 OA
BRANCH  11  14
ATOM     13  C   UNL     1      -7.598  12.140  23.388  0.00  0.00    +0.000 C 
ATOM     14  O   UNL     1      -6.340  12.128  24.064  0.00  0.00    +0.000 OA
ENDBRANCH  11  14
ENDBRANCH  10  11
ENDBRANCH   9  10
ENDBRANCH   8   9
ENDBRANCH   7   8
ENDBRANCH   6   7
ENDBRANCH   2   6
ENDBRANCH   1   3
BRANCH   1  15
ATOM     15  N   UNL     1       1.221   9.635  19.043  0.00  0.00    +0.000 N 
ATOM     16  C   UNL     1       1.345   8.696  20.053  0.00  0.00    +0.000 C 
ATOM     17  O   UNL     1       0.554   8.741  21.007  0.00  0.00    +0.000 OA
ATOM     18  H   UNL     1       1.780   9.488  18.207  0.00  0.00    +0.000 HD
BRANCH  16  19
ATOM     19  C   UNL     1       2.356   7.382  19.928  0.00  0.00    +0.000 C 
BRANCH  19  20
ATOM     20  N   UNL     1       2.372   6.338  18.892  0.00  0.00    +0.000 N 
ATOM     21  C   UNL     1       3.464   6.507  18.039  0.00  0.00    +0.000 A 
ATOM     22  O   UNL     1       3.860   7.528  17.516  0.00  0.00    +0.000 OA
ATOM     23  C   UNL     1       4.250   5.216  17.912  0.00  0.00    +0.000 A 
ATOM     24  C   UNL     1       5.104   4.906  19.134  0.00  0.00    +0.000 C 
ATOM     25  N   UNL     1       3.605   4.275  17.272  0.00  0.00    +0.000 NA
ATOM     26  C   UNL     1       2.430   3.970  17.997  0.00  0.00    +0.000 A 
ATOM     27  C   UNL     1       2.025   2.630  17.900  0.00  0.00    +0.000 A 
ATOM     28  C   UNL     1       1.313   2.064  18.941  0.00  0.00    +0.000 A 
ATOM     29  C   UNL     1       1.002   2.863  20.053  0.00  0.00    +0.000 A 
ATOM     30  C   UNL     1       1.283   4.266  20.085  0.00  0.00    +0.000 A 
ATOM     31  C   UNL     1       1.955   4.886  19.023  0.00  0.00    +0.000 A 
ENDBRANCH  19  20
ENDBRANCH  16  19
ENDBRANCH   1  15
BRANCH   1  32
ATOM     32  C   UNL     1      -1.467   9.926  18.739  0.00  0.00    +0.000 C 
BRANCH  32  33
ATOM     33  C   UNL     1      -2.391  10.287  17.578  0.00  0.00    +0.000 A 
ATOM     34  C   UNL     1      -2.232   9.708  16.297  0.00  0.00    +0.000 A 
ATOM     35  C   UNL     1      -3.065  10.074  15.229  0.00  0.00    +0.000 A 
ATOM     36  C   UNL     1      -4.077  11.011  15.428  0.00  0.00    +0.000 A 
ATOM     37  C   UNL     1      -4.268  11.557  16.697  0.00  0.00    +0.000 A 
ATOM     38  C   UNL     1      -3.438  11.188  17.767  0.00  0.00    +0.000 A 
ENDBRANCH  32  33
ENDBRANCH   1  32
TORSDOF 13
ENDMDL
MODEL 7
REMARK VINA RESULT:      -7.8      3.305     11.279
REMARK  Name = 
REMARK  15 active torsions:
REMARK  status: ('A' for Active; 'I' for Inactive)
REMARK    1  A    between atoms: C_1  and  O_2
REMARK    2  A    between atoms: O_2  and  C_3
REMARK    3  A    between atoms: C_3  and  C_5
REMARK    4  A    between atoms: C_5  and  C_6
REMARK    5  A    between atoms: C_6  and  C_7
REMARK    6  A    between atoms: C_7  and  C_8
REMARK    7  A    between atoms: C_8  and  C_9
REMARK    8  A    between atoms: C_9  and  N_10
REMARK    9  A    between atoms: C_11  and  C_13
REMARK   10  A    between atoms: C_13  and  C_14
REMARK   11  A    between atoms: C_13  and  N_21
REMARK   12  A    between atoms: C_14  and  C_15
REMARK   13  A    between atoms: C_22  and  C_24
REMARK   14  A    between atoms: C_24  and  N_25
REMARK   15  A    between atoms: C_28  and  C_29
REMARK                            x       y       z     vdW  Elec       q    Type
REMARK                         _______ _______ _______ _____ _____    ______ ____
ROOT
ATOM      1  C   UNL     1       0.843  11.224  19.675  0.00  0.00    +0.000 C 
ENDROOT
BRANCH   1   3
ATOM      2  N   UNL     1      -0.738  10.914  21.616  0.00  0.00    +0.000 N 
ATOM      3  C   UNL     1       0.297  11.657  21.066  0.00  0.00    +0.000 C 
ATOM      4  O   UNL     1       0.752  12.643  21.640  0.00  0.00    +0.000 OA
ATOM      5  H   UNL     1      -1.113  10.108  21.142  0.00  0.00    +0.000 HD
BRANCH   2   6
ATOM      6  C   UNL     1      -1.114  11.123  23.004  0.00  0.00    +0.000 C 
BRANCH   6   7
ATOM      7  C   UNL     1      -2.390  11.945  23.162  0.00  0.00    +0.000 C 
BRANCH   7   8
ATOM      8  C   UNL     1      -2.068  13.386  23.596  0.00  0.00    +0.000 C 
BRANCH   8   9
ATOM      9  C   UNL     1      -3.331  14.144  24.010  0.00  0.00    +0.000 C 
BRANCH   9  10
ATOM     10  C   UNL     1      -4.333  14.247  22.859  0.00  0.00    +0.000 C 
BRANCH  10  11
ATOM     11  C   UNL     1      -5.717  14.586  23.360  0.00  0.00    +0.000 C 
ATOM     12  O   UNL     1      -6.007  15.567  24.030  0.00  0.00    +0.000 OA
BRANCH  11  14
ATOM     13  C   UNL     1      -7.050  12.773  23.993  0.00  0.00    +0.000 C 
ATOM     14  O   UNL     1      -6.598  13.633  22.946  0.00  0.00    +0.000 OA
ENDBRANCH  11  14
ENDBRANCH  10  11
ENDBRANCH   9  10
ENDBRANCH   8   9
ENDBRANCH   7   8
ENDBRANCH   6   7
ENDBRANCH   2   6
ENDBRANCH   1   3
BRANCH   1  15
ATOM     15  N   UNL     1       1.033   9.704  19.749  0.00  0.00    +0.000 N 
ATOM     16  C   UNL     1       1.679   8.916  18.811  0.00  0.00    +0.000 C 
ATOM     17  O   UNL     1       1.884   9.385  17.682  0.00  0.00    +0.000 OA
ATOM     18  H   UNL     1       1.009   9.356  20.704  0.00  0.00    +0.000 HD
BRANCH  16  19
ATOM     19  C   UNL     1       2.389   7.465  19.204  0.00  0.00    +0.000 C 
BRANCH  19  20
ATOM     20  N   UNL     1       2.542   6.268  18.364  0.00  0.00    +0.000 N 
ATOM     21  C   UNL     1       3.740   6.316  17.650  0.00  0.00    +0.000 A 
ATOM     22  O   UNL     1       4.208   7.246  17.027  0.00  0.00    +0.000 OA
ATOM     23  C   UNL     1       4.531   5.036  17.843  0.00  0.00    +0.000 A 
ATOM     24  C   UNL     1       5.210   4.946  19.204  0.00  0.00    +0.000 C 
ATOM     25  N   UNL     1       3.977   3.993  17.285  0.00  0.00    +0.000 NA
ATOM     26  C   UNL     1       2.712   3.787  17.884  0.00  0.00    +0.000 A 
ATOM     27  C   UNL     1       2.320   2.442  17.953  0.00  0.00    +0.000 A 
ATOM     28  C   UNL     1       1.471   2.039  18.967  0.00  0.00    +0.000 A 
ATOM     29  C   UNL     1       1.014   3.002  19.881  0.00  0.00    +0.000 A 
ATOM     30  C   UNL     1       1.293   4.397  19.721  0.00  0.00    +0.000 A 
ATOM     31  C   UNL     1       2.106   4.849  18.673  0.00  0.00    +0.000 A 
ENDBRANCH  19  20
ENDBRANCH  16  19
ENDBRANCH   1  15
BRANCH   1  32
ATOM     32  C   UNL     1      -0.009  11.899  18.525  0.00  0.00    +0.000 C 
BRANCH  32  33
ATOM     33  C   UNL     1      -1.423  11.394  18.245  0.00  0.00    +0.000 A 
ATOM     34  C   UNL     1      -2.562  12.065  18.749  0.00  0.00    +0.000 A 
ATOM     35  C   UNL     1      -3.854  11.572  18.514  0.00  0.00    +0.000 A 
ATOM     36  C   UNL     1      -4.029  10.412  17.762  0.00  0.00    +0.000 A 
ATOM     37  C   UNL     1      -2.915   9.766  17.227  0.00  0.00    +0.000 A 
ATOM     38  C   UNL     1      -1.622  10.262  17.457  0.00  0.00    +0.000 A 
ENDBRANCH  32  33
ENDBRANCH   1  32
TORSDOF 13
ENDMDL
MODEL 8
REMARK VINA RESULT:      -7.7      3.050     10.495
REMARK  Name = 
REMARK  15 active torsions:
REMARK  status: ('A' for Active; 'I' for Inactive)
REMARK    1  A    between atoms: C_1  and  O_2
REMARK    2  A    between atoms: O_2  and  C_3
REMARK    3  A    between atoms: C_3  and  C_5
REMARK    4  A    between atoms: C_5  and  C_6
REMARK    5  A    between atoms: C_6  and  C_7
REMARK    6  A    between atoms: C_7  and  C_8
REMARK    7  A    between atoms: C_8  and  C_9
REMARK    8  A    between atoms: C_9  and  N_10
REMARK    9  A    between atoms: C_11  and  C_13
REMARK   10  A    between atoms: C_13  and  C_14
REMARK   11  A    between atoms: C_13  and  N_21
REMARK   12  A    between atoms: C_14  and  C_15
REMARK   13  A    between atoms: C_22  and  C_24
REMARK   14  A    between atoms: C_24  and  N_25
REMARK   15  A    between atoms: C_28  and  C_29
REMARK                            x       y       z     vdW  Elec       q    Type
REMARK                         _______ _______ _______ _____ _____    ______ ____
ROOT
ATOM      1  C   UNL     1       0.894  10.653  19.332  0.00  0.00    +0.000 C 
ENDROOT
BRANCH   1   3
ATOM      2  N   UNL     1      -0.851  10.183  17.572  0.00  0.00    +0.000 N 
ATOM      3  C   UNL     1      -0.586  10.643  18.854  0.00  0.00    +0.000 C 
ATOM      4  O   UNL     1      -1.484  11.059  19.583  0.00  0.00    +0.000 OA
ATOM      5  H   UNL     1      -0.114   9.847  16.974  0.00  0.00    +0.000 HD
BRANCH   2   6
ATOM      6  C   UNL     1      -2.224   9.925  17.170  0.00  0.00    +0.000 C 
BRANCH   6   7
ATOM      7  C   UNL     1      -2.801  11.017  16.274  0.00  0.00    +0.000 C 
BRANCH   7   8
ATOM      8  C   UNL     1      -4.278  11.287  16.616  0.00  0.00    +0.000 C 
BRANCH   8   9
ATOM      9  C   UNL     1      -4.630  10.790  18.020  0.00  0.00    +0.000 C 
BRANCH   9  10
ATOM     10  C   UNL     1      -5.069  11.936  18.932  0.00  0.00    +0.000 C 
BRANCH  10  11
ATOM     11  C   UNL     1      -6.509  11.781  19.360  0.00  0.00    +0.000 C 
ATOM     12  O   UNL     1      -7.474  12.264  18.785  0.00  0.00    +0.000 OA
BRANCH  11  14
ATOM     13  C   UNL     1      -7.445   9.890  20.366  0.00  0.00    +0.000 C 
ATOM     14  O   UNL     1      -6.571  11.013  20.484  0.00  0.00    +0.000 OA
ENDBRANCH  11  14
ENDBRANCH  10  11
ENDBRANCH   9  10
ENDBRANCH   8   9
ENDBRANCH   7   8
ENDBRANCH   6   7
ENDBRANCH   2   6
ENDBRANCH   1   3
BRANCH   1  15
ATOM     15  N   UNL     1       1.357   9.191  19.306  0.00  0.00    +0.000 N 
ATOM     16  C   UNL     1       2.076   8.582  18.291  0.00  0.00    +0.000 C 
ATOM     17  O   UNL     1       2.126   9.136  17.183  0.00  0.00    +0.000 OA
ATOM     18  H   UNL     1       1.453   8.798  20.237  0.00  0.00    +0.000 HD
BRANCH  16  19
ATOM     19  C   UNL     1       3.056   7.266  18.561  0.00  0.00    +0.000 C 
BRANCH  19  20
ATOM     20  N   UNL     1       3.060   5.973  17.861  0.00  0.00    +0.000 N 
ATOM     21  C   UNL     1       4.262   5.786  17.177  0.00  0.00    +0.000 A 
ATOM     22  O   UNL     1       4.855   6.571  16.468  0.00  0.00    +0.000 OA
ATOM     23  C   UNL     1       4.875   4.444  17.529  0.00  0.00    +0.000 A 
ATOM     24  C   UNL     1       5.521   4.418  18.909  0.00  0.00    +0.000 C 
ATOM     25  N   UNL     1       4.194   3.425  17.074  0.00  0.00    +0.000 NA
ATOM     26  C   UNL     1       2.908   3.453  17.660  0.00  0.00    +0.000 A 
ATOM     27  C   UNL     1       2.341   2.186  17.865  0.00  0.00    +0.000 A 
ATOM     28  C   UNL     1       1.435   2.013  18.895  0.00  0.00    +0.000 A 
ATOM     29  C   UNL     1       1.098   3.123  19.686  0.00  0.00    +0.000 A 
ATOM     30  C   UNL     1       1.560   4.443  19.382  0.00  0.00    +0.000 A 
ATOM     31  C   UNL     1       2.437   4.666  18.312  0.00  0.00    +0.000 A 
ENDBRANCH  19  20
ENDBRANCH  16  19
ENDBRANCH   1  15
BRANCH   1  32
ATOM     32  C   UNL     1       1.697  11.792  18.582  0.00  0.00    +0.000 C 
BRANCH  32  33
ATOM     33  C   UNL     1       2.030  13.086  19.322  0.00  0.00    +0.000 A 
ATOM     34  C   UNL     1       1.725  13.254  20.693  0.00  0.00    +0.000 A 
ATOM     35  C   UNL     1       2.005  14.461  21.353  0.00  0.00    +0.000 A 
ATOM     36  C   UNL     1       2.604  15.509  20.659  0.00  0.00    +0.000 A 
ATOM     37  C   UNL     1       2.946  15.338  19.318  0.00  0.00    +0.000 A 
ATOM     38  C   UNL     1       2.672  14.130  18.658  0.00  0.00    +0.000 A 
ENDBRANCH  32  33
ENDBRANCH   1  32
TORSDOF 13
ENDMDL
MODEL 9
REMARK VINA RESULT:      -7.7      3.273     10.687
REMARK  Name = 
REMARK  15 active torsions:
REMARK  status: ('A' for Active; 'I' for Inactive)
REMARK    1  A    between atoms: C_1  and  O_2
REMARK    2  A    between atoms: O_2  and  C_3
REMARK    3  A    between atoms: C_3  and  C_5
REMARK    4  A    between atoms: C_5  and  C_6
REMARK    5  A    between atoms: C_6  and  C_7
REMARK    6  A    between atoms: C_7  and  C_8
REMARK    7  A    between atoms: C_8  and  C_9
REMARK    8  A    between atoms: C_9  and  N_10
REMARK    9  A    between atoms: C_11  and  C_13
REMARK   10  A    between atoms: C_13  and  C_14
REMARK   11  A    between atoms: C_13  and  N_21
REMARK   12  A    between atoms: C_14  and  C_15
REMARK   13  A    between atoms: C_22  and  C_24
REMARK   14  A    between atoms: C_24  and  N_25
REMARK   15  A    between atoms: C_28  and  C_29
REMARK                            x       y       z     vdW  Elec       q    Type
REMARK                         _______ _______ _______ _____ _____    ______ ____
ROOT
ATOM      1  C   UNL     1       0.270  10.456  18.608  0.00  0.00    +0.000 C 
ENDROOT
BRANCH   1   3
ATOM      2  N   UNL     1      -0.360  12.387  20.104  0.00  0.00    +0.000 N 
ATOM      3  C   UNL     1       0.640  11.756  19.378  0.00  0.00    +0.000 C 
ATOM      4  O   UNL     1       1.776  12.220  19.316  0.00  0.00    +0.000 OA
ATOM      5  H   UNL     1      -1.292  12.007  20.150  0.00  0.00    +0.000 HD
BRANCH   2   6
ATOM      6  C   UNL     1      -0.013  13.453  21.028  0.00  0.00    +0.000 C 
BRANCH   6   7
ATOM      7  C   UNL     1      -1.208  13.969  21.824  0.00  0.00    +0.000 C 
BRANCH   7   8
ATOM      8  C   UNL     1      -1.338  13.226  23.166  0.00  0.00    +0.000 C 
BRANCH   8   9
ATOM      9  C   UNL     1      -2.760  12.704  23.384  0.00  0.00    +0.000 C 
BRANCH   9  10
ATOM     10  C   UNL     1      -3.685  13.076  22.224  0.00  0.00    +0.000 C 
BRANCH  10  11
ATOM     11  C   UNL     1      -5.135  12.850  22.579  0.00  0.00    +0.000 C 
ATOM     12  O   UNL     1      -5.541  12.377  23.631  0.00  0.00    +0.000 OA
BRANCH  11  14
ATOM     13  C   UNL     1      -6.170  12.246  20.571  0.00  0.00    +0.000 C 
ATOM     14  O   UNL     1      -5.927  13.259  21.548  0.00  0.00    +0.000 OA
ENDBRANCH  11  14
ENDBRANCH  10  11
ENDBRANCH   9  10
ENDBRANCH   8   9
ENDBRANCH   7   8
ENDBRANCH   6   7
ENDBRANCH   2   6
ENDBRANCH   1   3
BRANCH   1  15
ATOM     15  N   UNL     1       1.380   9.446  18.925  0.00  0.00    +0.000 N 
ATOM     16  C   UNL     1       1.438   8.619  20.034  0.00  0.00    +0.000 C 
ATOM     17  O   UNL     1       0.714   8.879  21.007  0.00  0.00    +0.000 OA
ATOM     18  H   UNL     1       1.868   9.131  18.091  0.00  0.00    +0.000 HD
BRANCH  16  19
ATOM     19  C   UNL     1       2.262   7.174  20.026  0.00  0.00    +0.000 C 
BRANCH  19  20
ATOM     20  N   UNL     1       2.328   6.168  18.956  0.00  0.00    +0.000 N 
ATOM     21  C   UNL     1       3.369   6.457  18.072  0.00  0.00    +0.000 A 
ATOM     22  O   UNL     1       3.657   7.524  17.571  0.00  0.00    +0.000 OA
ATOM     23  C   UNL     1       4.257   5.243  17.875  0.00  0.00    +0.000 A 
ATOM     24  C   UNL     1       5.180   4.972  19.057  0.00  0.00    +0.000 C 
ATOM     25  N   UNL     1       3.672   4.270  17.227  0.00  0.00    +0.000 NA
ATOM     26  C   UNL     1       2.555   3.842  17.981  0.00  0.00    +0.000 A 
ATOM     27  C   UNL     1       2.264   2.476  17.853  0.00  0.00    +0.000 A 
ATOM     28  C   UNL     1       1.642   1.819  18.898  0.00  0.00    +0.000 A 
ATOM     29  C   UNL     1       1.304   2.553  20.047  0.00  0.00    +0.000 A 
ATOM     30  C   UNL     1       1.465   3.974  20.116  0.00  0.00    +0.000 A 
ATOM     31  C   UNL     1       2.043   4.682  19.053  0.00  0.00    +0.000 A 
ENDBRANCH  19  20
ENDBRANCH  16  19
ENDBRANCH   1  15
BRANCH   1  32
ATOM     32  C   UNL     1      -1.257  10.108  18.834  0.00  0.00    +0.000 C 
BRANCH  32  33
ATOM     33  C   UNL     1      -2.268  10.421  17.732  0.00  0.00    +0.000 A 
ATOM     34  C   UNL     1      -3.348  11.308  17.949  0.00  0.00    +0.000 A 
ATOM     35  C   UNL     1      -4.290  11.560  16.940  0.00  0.00    +0.000 A 
ATOM     36  C   UNL     1      -4.159  10.943  15.698  0.00  0.00    +0.000 A 
ATOM     37  C   UNL     1      -3.074  10.099  15.461  0.00  0.00    +0.000 A 
ATOM     38  C   UNL     1      -2.128   9.850  16.468  0.00  0.00    +0.000 A 
ENDBRANCH  32  33
ENDBRANCH   1  32
TORSDOF 13
ENDMDL
