MODEL 1
REMARK VINA RESULT:      -7.8      0.000      0.000
REMARK  Name = 
REMARK  11 active torsions:
REMARK  status: ('A' for Active; 'I' for Inactive)
REMARK    1  A    between atoms: C_1  and  C_2
REMARK    2  A    between atoms: C_5  and  S_6
REMARK    3  A    between atoms: S_6  and  N_9
REMARK    4  A    between atoms: C_12  and  C_13
REMARK    5  A    between atoms: N_15  and  C_16
REMARK    6  A    between atoms: C_16  and  C_17
REMARK    7  A    between atoms: C_16  and  C_26
REMARK    8  A    between atoms: N_19  and  C_20
REMARK    9  A    between atoms: C_20  and  C_21
REMARK   10  A    between atoms: C_26  and  C_27
REMARK   11  A    between atoms: C_26  and  C_28
REMARK                            x       y       z     vdW  Elec       q    Type
REMARK                         _______ _______ _______ _____ _____    ______ ____
ROOT
ATOM      1  C   UNL     1       1.906   8.234  19.049  0.00  0.00    +0.000 C 
ATOM      2  O   UNL     1       1.824   8.368  20.270  0.00  0.00    +0.000 OA
ATOM      3  N   UNL     1       2.591   7.186  18.481  0.00  0.00    +0.000 N 
ATOM      4  H   UNL     1       2.785   7.210  17.490  0.00  0.00    +0.000 HD
ENDROOT
BRANCH   1   8
ATOM      5  N   UNL     1       0.168  11.383  19.712  0.00  0.00    +0.000 NA
ATOM      6  C   UNL     1       1.619  11.321  19.434  0.00  0.00    +0.000 C 
ATOM      7  C   UNL     1       1.890  10.626  18.102  0.00  0.00    +0.000 C 
ATOM      8  C   UNL     1       1.263   9.227  18.049  0.00  0.00    +0.000 C 
ATOM      9  C   UNL     1      -0.249   9.394  18.247  0.00  0.00    +0.000 C 
ATOM     10  C   UNL     1      -0.603  10.131  19.537  0.00  0.00    +0.000 C 
BRANCH   5  11
ATOM     11  S   UNL     1      -0.281  12.365  21.051  0.00  0.00    +0.000 S 
ATOM     12  O   UNL     1       0.173  13.715  20.762  0.00  0.00    +0.000 OA
ATOM     13  O   UNL     1       0.113  11.696  22.269  0.00  0.00    +0.000 OA
BRANCH  11  18
ATOM     14  C   UNL     1      -6.351  12.843  20.915  0.00  0.00    +0.000 C 
ATOM     15  C   UNL     1      -4.860  12.681  20.964  0.00  0.00    +0.000 A 
ATOM     16  C   UNL     1      -4.166  12.671  22.181  0.00  0.00    +0.000 A 
ATOM     17  C   UNL     1      -2.774  12.543  22.202  0.00  0.00    +0.000 A 
ATOM     18  C   UNL     1      -2.070  12.412  21.005  0.00  0.00    +0.000 A 
ATOM     19  C   UNL     1      -2.751  12.437  19.781  0.00  0.00    +0.000 A 
ATOM     20  C   UNL     1      -4.143  12.562  19.767  0.00  0.00    +0.000 A 
ENDBRANCH  11  18
ENDBRANCH   5  11
ENDBRANCH   1   8
BRANCH   3  21
ATOM     21  C   UNL     1       3.214   6.087  19.256  0.00  0.00    +0.000 C 
BRANCH  21  22
ATOM     22  C   UNL     1       4.626   5.749  18.703  0.00  0.00    +0.000 C 
ATOM     23  O   UNL     1       5.368   4.928  19.249  0.00  0.00    +0.000 OA
ATOM     24  N   UNL     1       4.977   6.390  17.541  0.00  0.00    +0.000 N 
ATOM     25  H   UNL     1       4.359   7.088  17.134  0.00  0.00    +0.000 HD
BRANCH  24  26
ATOM     26  C   UNL     1       6.322   6.270  17.014  0.00  0.00    +0.000 C 
BRANCH  26  27
ATOM     27  C   UNL     1       6.316   5.451  15.781  0.00  0.00    +0.000 A 
ATOM     28  C   UNL     1       5.453   4.493  15.292  0.00  0.00    +0.000 A 
ATOM     29  C   UNL     1       6.015   4.031  14.078  0.00  0.00    +0.000 A 
ATOM     30  C   UNL     1       7.184   4.734  13.906  0.00  0.00    +0.000 A 
ATOM     31  O   UNL     1       7.373   5.602  14.932  0.00  0.00    +0.000 OA
ENDBRANCH  26  27
ENDBRANCH  24  26
ENDBRANCH  21  22
BRANCH  21  32
ATOM     32  C   UNL     1       2.305   4.823  19.200  0.00  0.00    +0.000 C 
ATOM     33  C   UNL     1       1.245   4.810  20.311  0.00  0.00    +0.000 C 
ATOM     34  C   UNL     1       1.578   4.700  17.855  0.00  0.00    +0.000 C 
ENDBRANCH  21  32
ENDBRANCH   3  21
TORSDOF 8
ENDMDL
MODEL 2
REMARK VINA RESULT:      -7.8      2.411      3.171
REMARK  Name = 
REMARK  11 active torsions:
REMARK  status: ('A' for Active; 'I' for Inactive)
REMARK    1  A    between atoms: C_1  and  C_2
REMARK    2  A    between atoms: C_5  and  S_6
REMARK    3  A    between atoms: S_6  and  N_9
REMARK    4  A    between atoms: C_12  and  C_13
REMARK    5  A    between atoms: N_15  and  C_16
REMARK    6  A    between atoms: C_16  and  C_17
REMARK    7  A    between atoms: C_16  and  C_26
REMARK    8  A    between atoms: N_19  and  C_20
REMARK    9  A    between atoms: C_20  and  C_21
REMARK   10  A    between atoms: C_26  and  C_27
REMARK   11  A    between atoms: C_26  and  C_28
REMARK                            x       y       z     vdW  Elec       q    Type
REMARK                         _______ _______ _______ _____ _____    ______ ____
ROOT
ATOM      1  C   UNL     1       1.712   8.357  19.143  0.00  0.00    +0.000 C 
ATOM      2  O   UNL     1       1.665   8.506  20.364  0.00  0.00    +0.000 OA
ATOM      3  N   UNL     1       2.414   7.325  18.567  0.00  0.00    +0.000 N 
ATOM      4  H   UNL     1       2.576   7.342  17.569  0.00  0.00    +0.000 HD
ENDROOT
BRANCH   1   8
ATOM      5  N   UNL     1       0.876  11.895  19.543  0.00  0.00    +0.000 NA
ATOM      6  C   UNL     1       2.142  11.444  18.926  0.00  0.00    +0.000 C 
ATOM      7  C   UNL     1       1.873  10.512  17.747  0.00  0.00    +0.000 C 
ATOM      8  C   UNL     1       1.004   9.314  18.152  0.00  0.00    +0.000 C 
ATOM      9  C   UNL     1      -0.322   9.868  18.685  0.00  0.00    +0.000 C 
ATOM     10  C   UNL     1      -0.135  10.855  19.837  0.00  0.00    +0.000 C 
BRANCH   5  11
ATOM     11  S   UNL     1       1.035  13.146  20.713  0.00  0.00    +0.000 S 
ATOM     12  O   UNL     1       2.402  13.098  21.207  0.00  0.00    +0.000 OA
ATOM     13  O   UNL     1      -0.084  13.074  21.623  0.00  0.00    +0.000 OA
BRANCH  11  18
ATOM     14  C   UNL     1       0.549  18.149  17.273  0.00  0.00    +0.000 C 
ATOM     15  C   UNL     1       0.685  16.942  18.156  0.00  0.00    +0.000 A 
ATOM     16  C   UNL     1       1.939  16.400  18.465  0.00  0.00    +0.000 A 
ATOM     17  C   UNL     1       2.040  15.262  19.270  0.00  0.00    +0.000 A 
ATOM     18  C   UNL     1       0.887  14.666  19.781  0.00  0.00    +0.000 A 
ATOM     19  C   UNL     1      -0.374  15.190  19.465  0.00  0.00    +0.000 A 
ATOM     20  C   UNL     1      -0.469  16.330  18.663  0.00  0.00    +0.000 A 
ENDBRANCH  11  18
ENDBRANCH   5  11
ENDBRANCH   1   8
BRANCH   3  21
ATOM     21  C   UNL     1       3.098   6.258  19.335  0.00  0.00    +0.000 C 
BRANCH  21  22
ATOM     22  C   UNL     1       4.521   5.994  18.772  0.00  0.00    +0.000 C 
ATOM     23  O   UNL     1       5.315   5.225  19.321  0.00  0.00    +0.000 OA
ATOM     24  N   UNL     1       4.824   6.638  17.598  0.00  0.00    +0.000 N 
ATOM     25  H   UNL     1       4.163   7.293  17.188  0.00  0.00    +0.000 HD
BRANCH  24  26
ATOM     26  C   UNL     1       6.168   6.589  17.059  0.00  0.00    +0.000 C 
BRANCH  26  27
ATOM     27  C   UNL     1       6.219   5.672  15.897  0.00  0.00    +0.000 A 
ATOM     28  C   UNL     1       5.303   4.801  15.345  0.00  0.00    +0.000 A 
ATOM     29  C   UNL     1       5.959   4.161  14.267  0.00  0.00    +0.000 A 
ATOM     30  C   UNL     1       7.232   4.680  14.231  0.00  0.00    +0.000 A 
ATOM     31  O   UNL     1       7.398   5.602  15.214  0.00  0.00    +0.000 OA
ENDBRANCH  26  27
ENDBRANCH  24  26
ENDBRANCH  21  22
BRANCH  21  32
ATOM     32  C   UNL     1       2.255   4.949  19.283  0.00  0.00    +0.000 C 
ATOM     33  C   UNL     1       1.125   4.934  20.323  0.00  0.00    +0.000 C 
ATOM     34  C   UNL     1       1.626   4.728  17.902  0.00  0.00    +0.000 C 
ENDBRANCH  21  32
ENDBRANCH   3  21
TORSDOF 8
ENDMDL
MODEL 3
REMARK VINA RESULT:      -7.7      3.352      5.662
REMARK  Name = 
REMARK  11 active torsions:
REMARK  status: ('A' for Active; 'I' for Inactive)
REMARK    1  A    between atoms: C_1  and  C_2
REMARK    2  A    between atoms: C_5  and  S_6
REMARK    3  A    between atoms: S_6  and  N_9
REMARK    4  A    between atoms: C_12  and  C_13
REMARK    5  A    between atoms: N_15  and  C_16
REMARK    6  A    between atoms: C_16  and  C_17
REMARK    7  A    between atoms: C_16  and  C_26
REMARK    8  A    between atoms: N_19  and  C_20
REMARK    9  A    between atoms: C_20  and  C_21
REMARK   10  A    between atoms: C_26  and  C_27
REMARK   11  A    between atoms: C_26  and  C_28
REMARK                            x       y       z     vdW  Elec       q    Type
REMARK                         _______ _______ _______ _____ _____    ______ ____
ROOT
ATOM      1  C   UNL     1       3.851   2.765  18.200  0.00  0.00    +0.000 C 
ATOM      2  O   UNL     1       4.218   1.616  17.960  0.00  0.00    +0.000 OA
ATOM      3  N   UNL     1       4.467   3.855  17.632  0.00  0.00    +0.000 N 
ATOM      4  H   UNL     1       4.256   4.776  17.989  0.00  0.00    +0.000 HD
ENDROOT
BRANCH   1   8
ATOM      5  N   UNL     1       2.255   5.982  18.895  0.00  0.00    +0.000 NA
ATOM      6  C   UNL     1       1.755   5.057  17.855  0.00  0.00    +0.000 C 
ATOM      7  C   UNL     1       1.459   3.680  18.445  0.00  0.00    +0.000 C 
ATOM      8  C   UNL     1       2.680   3.091  19.161  0.00  0.00    +0.000 C 
ATOM      9  C   UNL     1       3.069   4.061  20.283  0.00  0.00    +0.000 C 
ATOM     10  C   UNL     1       3.331   5.480  19.779  0.00  0.00    +0.000 C 
BRANCH   5  11
ATOM     11  S   UNL     1       2.380   7.628  18.413  0.00  0.00    +0.000 S 
ATOM     12  O   UNL     1       1.565   7.787  17.220  0.00  0.00    +0.000 OA
ATOM     13  O   UNL     1       3.774   8.006  18.413  0.00  0.00    +0.000 OA
BRANCH  11  18
ATOM     14  C   UNL     1      -0.681  10.649  22.725  0.00  0.00    +0.000 C 
ATOM     15  C   UNL     1       0.109   9.935  21.667  0.00  0.00    +0.000 A 
ATOM     16  C   UNL     1       0.262  10.473  20.383  0.00  0.00    +0.000 A 
ATOM     17  C   UNL     1       0.982   9.780  19.406  0.00  0.00    +0.000 A 
ATOM     18  C   UNL     1       1.563   8.549  19.712  0.00  0.00    +0.000 A 
ATOM     19  C   UNL     1       1.401   7.993  20.988  0.00  0.00    +0.000 A 
ATOM     20  C   UNL     1       0.684   8.692  21.962  0.00  0.00    +0.000 A 
ENDBRANCH  11  18
ENDBRANCH   5  11
ENDBRANCH   1   8
BRANCH   3  21
ATOM     21  C   UNL     1       5.556   3.762  16.630  0.00  0.00    +0.000 C 
BRANCH  21  22
ATOM     22  C   UNL     1       6.854   4.431  17.157  0.00  0.00    +0.000 C 
ATOM     23  O   UNL     1       7.961   4.206  16.657  0.00  0.00    +0.000 OA
ATOM     24  N   UNL     1       6.687   5.323  18.186  0.00  0.00    +0.000 N 
ATOM     25  H   UNL     1       5.768   5.461  18.600  0.00  0.00    +0.000 HD
BRANCH  24  26
ATOM     26  C   UNL     1       7.838   5.893  18.858  0.00  0.00    +0.000 C 
BRANCH  26  27
ATOM     27  C   UNL     1       7.992   7.318  18.485  0.00  0.00    +0.000 A 
ATOM     28  C   UNL     1       7.471   8.086  17.464  0.00  0.00    +0.000 A 
ATOM     29  C   UNL     1       8.034   9.376  17.607  0.00  0.00    +0.000 A 
ATOM     30  C   UNL     1       8.862   9.313  18.703  0.00  0.00    +0.000 A 
ATOM     31  O   UNL     1       8.840   8.069  19.246  0.00  0.00    +0.000 OA
ENDBRANCH  26  27
ENDBRANCH  24  26
ENDBRANCH  21  22
BRANCH  21  32
ATOM     32  C   UNL     1       5.107   4.444  15.302  0.00  0.00    +0.000 C 
ATOM     33  C   UNL     1       5.220   5.974  15.358  0.00  0.00    +0.000 C 
ATOM     34  C   UNL     1       5.929   3.955  14.103  0.00  0.00    +0.000 C 
ENDBRANCH  21  32
ENDBRANCH   3  21
TORSDOF 8
ENDMDL
MODEL 4
REMARK VINA RESULT:      -7.6      2.184      2.903
REMARK  Name = 
REMARK  11 active torsions:
REMARK  status: ('A' for Active; 'I' for Inactive)
REMARK    1  A    between atoms: C_1  and  C_2
REMARK    2  A    between atoms: C_5  and  S_6
REMARK    3  A    between atoms: S_6  and  N_9
REMARK    4  A    between atoms: C_12  and  C_13
REMARK    5  A    between atoms: N_15  and  C_16
REMARK    6  A    between atoms: C_16  and  C_17
REMARK    7  A    between atoms: C_16  and  C_26
REMARK    8  A    between atoms: N_19  and  C_20
REMARK    9  A    between atoms: C_20  and  C_21
REMARK   10  A    between atoms: C_26  and  C_27
REMARK   11  A    between atoms: C_26  and  C_28
REMARK                            x       y       z     vdW  Elec       q    Type
REMARK                         _______ _______ _______ _____ _____    ______ ____
ROOT
ATOM      1  C   UNL     1       1.798   8.350  18.965  0.00  0.00    +0.000 C 
ATOM      2  O   UNL     1       1.532   8.444  20.163  0.00  0.00    +0.000 OA
ATOM      3  N   UNL     1       2.510   7.286  18.463  0.00  0.00    +0.000 N 
ATOM      4  H   UNL     1       2.859   7.336  17.516  0.00  0.00    +0.000 HD
ENDROOT
BRANCH   1   8
ATOM      5  N   UNL     1       0.063  11.527  19.484  0.00  0.00    +0.000 NA
ATOM      6  C   UNL     1       1.538  11.423  19.463  0.00  0.00    +0.000 C 
ATOM      7  C   UNL     1       2.021  10.784  18.163  0.00  0.00    +0.000 C 
ATOM      8  C   UNL     1       1.372   9.416  17.923  0.00  0.00    +0.000 C 
ATOM      9  C   UNL     1      -0.144   9.630  17.861  0.00  0.00    +0.000 C 
ATOM     10  C   UNL     1      -0.701  10.317  19.107  0.00  0.00    +0.000 C 
BRANCH   5  11
ATOM     11  S   UNL     1      -0.588  12.459  20.775  0.00  0.00    +0.000 S 
ATOM     12  O   UNL     1       0.188  12.144  21.963  0.00  0.00    +0.000 OA
ATOM     13  O   UNL     1      -2.025  12.316  20.771  0.00  0.00    +0.000 OA
BRANCH  11  18
ATOM     14  C   UNL     1       0.411  18.302  19.378  0.00  0.00    +0.000 C 
ATOM     15  C   UNL     1       0.204  16.851  19.700  0.00  0.00    +0.000 A 
ATOM     16  C   UNL     1      -0.212  15.939  18.722  0.00  0.00    +0.000 A 
ATOM     17  C   UNL     1      -0.422  14.596  19.049  0.00  0.00    +0.000 A 
ATOM     18  C   UNL     1      -0.204  14.156  20.355  0.00  0.00    +0.000 A 
ATOM     19  C   UNL     1       0.197  15.063  21.345  0.00  0.00    +0.000 A 
ATOM     20  C   UNL     1       0.409  16.403  21.011  0.00  0.00    +0.000 A 
ENDBRANCH  11  18
ENDBRANCH   5  11
ENDBRANCH   1   8
BRANCH   3  21
ATOM     21  C   UNL     1       2.947   6.125  19.274  0.00  0.00    +0.000 C 
BRANCH  21  22
ATOM     22  C   UNL     1       4.358   5.644  18.840  0.00  0.00    +0.000 C 
ATOM     23  O   UNL     1       4.964   4.753  19.441  0.00  0.00    +0.000 OA
ATOM     24  N   UNL     1       4.869   6.243  17.716  0.00  0.00    +0.000 N 
ATOM     25  H   UNL     1       4.363   7.000  17.263  0.00  0.00    +0.000 HD
BRANCH  24  26
ATOM     26  C   UNL     1       6.235   5.986  17.304  0.00  0.00    +0.000 C 
BRANCH  26  27
ATOM     27  C   UNL     1       6.251   5.290  15.998  0.00  0.00    +0.000 A 
ATOM     28  C   UNL     1       5.433   4.335  15.429  0.00  0.00    +0.000 A 
ATOM     29  C   UNL     1       5.996   4.024  14.169  0.00  0.00    +0.000 A 
ATOM     30  C   UNL     1       7.121   4.806  14.050  0.00  0.00    +0.000 A 
ATOM     31  O   UNL     1       7.282   5.581  15.153  0.00  0.00    +0.000 OA
ENDBRANCH  26  27
ENDBRANCH  24  26
ENDBRANCH  21  22
BRANCH  21  32
ATOM     32  C   UNL     1       1.919   4.963  19.125  0.00  0.00    +0.000 C 
ATOM     33  C   UNL     1       2.189   4.093  17.889  0.00  0.00    +0.000 C 
ATOM     34  C   UNL     1       1.911   4.047  20.354  0.00  0.00    +0.000 C 
ENDBRANCH  21  32
ENDBRANCH   3  21
TORSDOF 8
ENDMDL
MODEL 5
REMARK VINA RESULT:      -7.5      2.272      3.052
REMARK  Name = 
REMARK  11 active torsions:
REMARK  status: ('A' for Active; 'I' for Inactive)
REMARK    1  A    between atoms: C_1  and  C_2
REMARK    2  A    between atoms: C_5  and  S_6
REMARK    3  A    between atoms: S_6  and  N_9
REMARK    4  A    between atoms: C_12  and  C_13
REMARK    5  A    between atoms: N_15  and  C_16
REMARK    6  A    between atoms: C_16  and  C_17
REMARK    7  A    between atoms: C_16  and  C_26
REMARK    8  A    between atoms: N_19  and  C_20
REMARK    9  A    between atoms: C_20  and  C_21
REMARK   10  A    between atoms: C_26  and  C_27
REMARK   11  A    between atoms: C_26  and  C_28
REMARK                            x       y       z     vdW  Elec       q    Type
REMARK                         _______ _______ _______ _____ _____    ______ ____
ROOT
ATOM      1  C   UNL     1       1.689   8.462  19.032  0.00  0.00    +0.000 C 
ATOM      2  O   UNL     1       1.507   8.606  20.241  0.00  0.00    +0.000 OA
ATOM      3  N   UNL     1       2.290   7.336  18.520  0.00  0.00    +0.000 N 
ATOM      4  H   UNL     1       2.580   7.336  17.552  0.00  0.00    +0.000 HD
ENDROOT
BRANCH   1   8
ATOM      5  N   UNL     1       0.073  11.702  19.550  0.00  0.00    +0.000 NA
ATOM      6  C   UNL     1       1.543  11.548  19.494  0.00  0.00    +0.000 C 
ATOM      7  C   UNL     1       1.973  10.877  18.192  0.00  0.00    +0.000 C 
ATOM      8  C   UNL     1       1.273   9.527  17.987  0.00  0.00    +0.000 C 
ATOM      9  C   UNL     1      -0.237   9.792  17.958  0.00  0.00    +0.000 C 
ATOM     10  C   UNL     1      -0.740  10.513  19.208  0.00  0.00    +0.000 C 
BRANCH   5  11
ATOM     11  S   UNL     1      -0.514  12.671  20.843  0.00  0.00    +0.000 S 
ATOM     12  O   UNL     1       0.583  12.841  21.783  0.00  0.00    +0.000 OA
ATOM     13  O   UNL     1      -1.785  12.142  21.279  0.00  0.00    +0.000 OA
BRANCH  11  18
ATOM     14  C   UNL     1      -1.320  18.266  18.575  0.00  0.00    +0.000 C 
ATOM     15  C   UNL     1      -1.163  16.874  19.116  0.00  0.00    +0.000 A 
ATOM     16  C   UNL     1      -1.905  16.431  20.217  0.00  0.00    +0.000 A 
ATOM     17  C   UNL     1      -1.725  15.139  20.719  0.00  0.00    +0.000 A 
ATOM     18  C   UNL     1      -0.810  14.279  20.114  0.00  0.00    +0.000 A 
ATOM     19  C   UNL     1      -0.049  14.717  19.021  0.00  0.00    +0.000 A 
ATOM     20  C   UNL     1      -0.236  16.008  18.522  0.00  0.00    +0.000 A 
ENDBRANCH  11  18
ENDBRANCH   5  11
ENDBRANCH   1   8
BRANCH   3  21
ATOM     21  C   UNL     1       2.695   6.168  19.338  0.00  0.00    +0.000 C 
BRANCH  21  22
ATOM     22  C   UNL     1       4.024   5.559  18.816  0.00  0.00    +0.000 C 
ATOM     23  O   UNL     1       4.680   4.746  19.473  0.00  0.00    +0.000 OA
ATOM     24  N   UNL     1       4.400   5.949  17.555  0.00  0.00    +0.000 N 
ATOM     25  H   UNL     1       3.859   6.647  17.051  0.00  0.00    +0.000 HD
BRANCH  24  26
ATOM     26  C   UNL     1       5.693   5.565  17.023  0.00  0.00    +0.000 C 
BRANCH  26  27
ATOM     27  C   UNL     1       6.744   6.479  17.526  0.00  0.00    +0.000 A 
ATOM     28  C   UNL     1       7.680   6.374  18.534  0.00  0.00    +0.000 A 
ATOM     29  C   UNL     1       8.374   7.607  18.566  0.00  0.00    +0.000 A 
ATOM     30  C   UNL     1       7.817   8.385  17.578  0.00  0.00    +0.000 A 
ATOM     31  O   UNL     1       6.829   7.708  16.938  0.00  0.00    +0.000 OA
ENDBRANCH  26  27
ENDBRANCH  24  26
ENDBRANCH  21  22
BRANCH  21  32
ATOM     32  C   UNL     1       1.569   5.092  19.311  0.00  0.00    +0.000 C 
ATOM     33  C   UNL     1       1.732   4.097  18.152  0.00  0.00    +0.000 C 
ATOM     34  C   UNL     1       1.515   4.289  20.616  0.00  0.00    +0.000 C 
ENDBRANCH  21  32
ENDBRANCH   3  21
TORSDOF 8
ENDMDL
MODEL 6
REMARK VINA RESULT:      -7.4      2.513      3.568
REMARK  Name = 
REMARK  11 active torsions:
REMARK  status: ('A' for Active; 'I' for Inactive)
REMARK    1  A    between atoms: C_1  and  C_2
REMARK    2  A    between atoms: C_5  and  S_6
REMARK    3  A    between atoms: S_6  and  N_9
REMARK    4  A    between atoms: C_12  and  C_13
REMARK    5  A    between atoms: N_15  and  C_16
REMARK    6  A    between atoms: C_16  and  C_17
REMARK    7  A    between atoms: C_16  and  C_26
REMARK    8  A    between atoms: N_19  and  C_20
REMARK    9  A    between atoms: C_20  and  C_21
REMARK   10  A    between atoms: C_26  and  C_27
REMARK   11  A    between atoms: C_26  and  C_28
REMARK                            x       y       z     vdW  Elec       q    Type
REMARK                         _______ _______ _______ _____ _____    ______ ____
ROOT
ATOM      1  C   UNL     1       1.784   8.327  18.892  0.00  0.00    +0.000 C 
ATOM      2  O   UNL     1       1.720   8.565  20.098  0.00  0.00    +0.000 OA
ATOM      3  N   UNL     1       2.294   7.142  18.415  0.00  0.00    +0.000 N 
ATOM      4  H   UNL     1       2.495   7.060  17.429  0.00  0.00    +0.000 HD
ENDROOT
BRANCH   1   8
ATOM      5  N   UNL     1       0.456  11.710  19.299  0.00  0.00    +0.000 NA
ATOM      6  C   UNL     1       1.896  11.443  19.088  0.00  0.00    +0.000 C 
ATOM      7  C   UNL     1       2.120  10.637  17.811  0.00  0.00    +0.000 C 
ATOM      8  C   UNL     1       1.314   9.331  17.810  0.00  0.00    +0.000 C 
ATOM      9  C   UNL     1      -0.167   9.705  17.932  0.00  0.00    +0.000 C 
ATOM     10  C   UNL     1      -0.467  10.561  19.162  0.00  0.00    +0.000 C 
BRANCH   5  11
ATOM     11  S   UNL     1       0.094  12.823  20.559  0.00  0.00    +0.000 S 
ATOM     12  O   UNL     1       1.153  12.709  21.548  0.00  0.00    +0.000 OA
ATOM     13  O   UNL     1      -1.290  12.663  20.935  0.00  0.00    +0.000 OA
BRANCH  11  18
ATOM     14  C   UNL     1       0.661  18.184  17.724  0.00  0.00    +0.000 C 
ATOM     15  C   UNL     1       0.546  16.880  18.459  0.00  0.00    +0.000 A 
ATOM     16  C   UNL     1       1.635  16.006  18.569  0.00  0.00    +0.000 A 
ATOM     17  C   UNL     1       1.499  14.786  19.237  0.00  0.00    +0.000 A 
ATOM     18  C   UNL     1       0.275  14.439  19.809  0.00  0.00    +0.000 A 
ATOM     19  C   UNL     1      -0.826  15.298  19.691  0.00  0.00    +0.000 A 
ATOM     20  C   UNL     1      -0.683  16.518  19.025  0.00  0.00    +0.000 A 
ENDBRANCH  11  18
ENDBRANCH   5  11
ENDBRANCH   1   8
BRANCH   3  21
ATOM     21  C   UNL     1       2.729   6.020  19.280  0.00  0.00    +0.000 C 
BRANCH  21  22
ATOM     22  C   UNL     1       4.082   5.435  18.793  0.00  0.00    +0.000 C 
ATOM     23  O   UNL     1       4.724   4.616  19.457  0.00  0.00    +0.000 OA
ATOM     24  N   UNL     1       4.498   5.854  17.554  0.00  0.00    +0.000 N 
ATOM     25  H   UNL     1       3.966   6.557  17.045  0.00  0.00    +0.000 HD
BRANCH  24  26
ATOM     26  C   UNL     1       5.813   5.496  17.060  0.00  0.00    +0.000 C 
BRANCH  26  27
ATOM     27  C   UNL     1       6.823   6.459  17.553  0.00  0.00    +0.000 A 
ATOM     28  C   UNL     1       7.745   6.415  18.578  0.00  0.00    +0.000 A 
ATOM     29  C   UNL     1       8.397   7.671  18.584  0.00  0.00    +0.000 A 
ATOM     30  C   UNL     1       7.831   8.400  17.565  0.00  0.00    +0.000 A 
ATOM     31  O   UNL     1       6.878   7.672  16.930  0.00  0.00    +0.000 OA
ENDBRANCH  26  27
ENDBRANCH  24  26
ENDBRANCH  21  22
BRANCH  21  32
ATOM     32  C   UNL     1       1.639   4.906  19.284  0.00  0.00    +0.000 C 
ATOM     33  C   UNL     1       1.800   3.920  18.119  0.00  0.00    +0.000 C 
ATOM     34  C   UNL     1       1.651   4.100  20.589  0.00  0.00    +0.000 C 
ENDBRANCH  21  32
ENDBRANCH   3  21
TORSDOF 8
ENDMDL
MODEL 7
REMARK VINA RESULT:      -7.4      1.437      2.144
REMARK  Name = 
REMARK  11 active torsions:
REMARK  status: ('A' for Active; 'I' for Inactive)
REMARK    1  A    between atoms: C_1  and  C_2
REMARK    2  A    between atoms: C_5  and  S_6
REMARK    3  A    between atoms: S_6  and  N_9
REMARK    4  A    between atoms: C_12  and  C_13
REMARK    5  A    between atoms: N_15  and  C_16
REMARK    6  A    between atoms: C_16  and  C_17
REMARK    7  A    between atoms: C_16  and  C_26
REMARK    8  A    between atoms: N_19  and  C_20
REMARK    9  A    between atoms: C_20  and  C_21
REMARK   10  A    between atoms: C_26  and  C_27
REMARK   11  A    between atoms: C_26  and  C_28
REMARK                            x       y       z     vdW  Elec       q    Type
REMARK                         _______ _______ _______ _____ _____    ______ ____
ROOT
ATOM      1  C   UNL     1       1.909   8.082  18.895  0.00  0.00    +0.000 C 
ATOM      2  O   UNL     1       1.821   8.319  20.099  0.00  0.00    +0.000 OA
ATOM      3  N   UNL     1       2.572   6.973  18.423  0.00  0.00    +0.000 N 
ATOM      4  H   UNL     1       2.775   6.910  17.436  0.00  0.00    +0.000 HD
ENDROOT
BRANCH   1   8
ATOM      5  N   UNL     1       0.812  11.560  19.164  0.00  0.00    +0.000 NA
ATOM      6  C   UNL     1       2.181  11.190  18.743  0.00  0.00    +0.000 C 
ATOM      7  C   UNL     1       2.146  10.254  17.537  0.00  0.00    +0.000 C 
ATOM      8  C   UNL     1       1.300   9.003  17.809  0.00  0.00    +0.000 C 
ATOM      9  C   UNL     1      -0.121   9.473  18.139  0.00  0.00    +0.000 C 
ATOM     10  C   UNL     1      -0.168  10.459  19.305  0.00  0.00    +0.000 C 
BRANCH   5  11
ATOM     11  S   UNL     1       0.720  12.808  20.344  0.00  0.00    +0.000 S 
ATOM     12  O   UNL     1       0.830  14.073  19.637  0.00  0.00    +0.000 OA
ATOM     13  O   UNL     1       1.616  12.486  21.429  0.00  0.00    +0.000 OA
BRANCH  11  18
ATOM     14  C   UNL     1      -4.922  12.788  22.639  0.00  0.00    +0.000 C 
ATOM     15  C   UNL     1      -3.535  12.746  22.066  0.00  0.00    +0.000 A 
ATOM     16  C   UNL     1      -2.462  12.212  22.790  0.00  0.00    +0.000 A 
ATOM     17  C   UNL     1      -1.174  12.205  22.247  0.00  0.00    +0.000 A 
ATOM     18  C   UNL     1      -0.954  12.723  20.971  0.00  0.00    +0.000 A 
ATOM     19  C   UNL     1      -2.017  13.276  20.244  0.00  0.00    +0.000 A 
ATOM     20  C   UNL     1      -3.303  13.276  20.790  0.00  0.00    +0.000 A 
ENDBRANCH  11  18
ENDBRANCH   5  11
ENDBRANCH   1   8
BRANCH   3  21
ATOM     21  C   UNL     1       3.161   5.927  19.293  0.00  0.00    +0.000 C 
BRANCH  21  22
ATOM     22  C   UNL     1       4.581   5.533  18.805  0.00  0.00    +0.000 C 
ATOM     23  O   UNL     1       5.338   4.829  19.479  0.00  0.00    +0.000 OA
ATOM     24  N   UNL     1       4.923   5.980  17.553  0.00  0.00    +0.000 N 
ATOM     25  H   UNL     1       4.292   6.588  17.036  0.00  0.00    +0.000 HD
BRANCH  24  26
ATOM     26  C   UNL     1       6.272   5.804  17.054  0.00  0.00    +0.000 C 
BRANCH  26  27
ATOM     27  C   UNL     1       7.153   6.875  17.573  0.00  0.00    +0.000 A 
ATOM     28  C   UNL     1       8.082   6.919  18.592  0.00  0.00    +0.000 A 
ATOM     29  C   UNL     1       8.564   8.249  18.636  0.00  0.00    +0.000 A 
ATOM     30  C   UNL     1       7.899   8.930  17.644  0.00  0.00    +0.000 A 
ATOM     31  O   UNL     1       7.043   8.103  16.990  0.00  0.00    +0.000 OA
ENDBRANCH  26  27
ENDBRANCH  24  26
ENDBRANCH  21  22
BRANCH  21  32
ATOM     32  C   UNL     1       2.236   4.673  19.308  0.00  0.00    +0.000 C 
ATOM     33  C   UNL     1       1.172   4.738  20.414  0.00  0.00    +0.000 C 
ATOM     34  C   UNL     1       1.512   4.482  17.970  0.00  0.00    +0.000 C 
ENDBRANCH  21  32
ENDBRANCH   3  21
TORSDOF 8
ENDMDL
MODEL 8
REMARK VINA RESULT:      -7.4      2.503      3.538
REMARK  Name = 
REMARK  11 active torsions:
REMARK  status: ('A' for Active; 'I' for Inactive)
REMARK    1  A    between atoms: C_1  and  C_2
REMARK    2  A    between atoms: C_5  and  S_6
REMARK    3  A    between atoms: S_6  and  N_9
REMARK    4  A    between atoms: C_12  and  C_13
REMARK    5  A    between atoms: N_15  and  C_16
REMARK    6  A    between atoms: C_16  and  C_17
REMARK    7  A    between atoms: C_16  and  C_26
REMARK    8  A    between atoms: N_19  and  C_20
REMARK    9  A    between atoms: C_20  and  C_21
REMARK   10  A    between atoms: C_26  and  C_27
REMARK   11  A    between atoms: C_26  and  C_28
REMARK                            x       y       z     vdW  Elec       q    Type
REMARK                         _______ _______ _______ _____ _____    ______ ____
ROOT
ATOM      1  C   UNL     1       1.962   8.030  18.824  0.00  0.00    +0.000 C 
ATOM      2  O   UNL     1       1.837   8.239  20.030  0.00  0.00    +0.000 OA
ATOM      3  N   UNL     1       2.607   6.914  18.346  0.00  0.00    +0.000 N 
ATOM      4  H   UNL     1       2.844   6.871  17.364  0.00  0.00    +0.000 HD
ENDROOT
BRANCH   1   8
ATOM      5  N   UNL     1       0.636  11.417  19.210  0.00  0.00    +0.000 NA
ATOM      6  C   UNL     1       2.062  11.151  18.922  0.00  0.00    +0.000 C 
ATOM      7  C   UNL     1       2.216  10.309  17.658  0.00  0.00    +0.000 C 
ATOM      8  C   UNL     1       1.421   9.000  17.743  0.00  0.00    +0.000 C 
ATOM      9  C   UNL     1      -0.053   9.369  17.942  0.00  0.00    +0.000 C 
ATOM     10  C   UNL     1      -0.286  10.259  19.162  0.00  0.00    +0.000 C 
BRANCH   5  11
ATOM     11  S   UNL     1       0.341  12.565  20.456  0.00  0.00    +0.000 S 
ATOM     12  O   UNL     1       1.472  12.506  21.368  0.00  0.00    +0.000 OA
ATOM     13  O   UNL     1      -1.008  12.388  20.939  0.00  0.00    +0.000 OA
BRANCH  11  18
ATOM     14  C   UNL     1       0.694  18.115  17.973  0.00  0.00    +0.000 C 
ATOM     15  C   UNL     1       0.582  16.733  18.548  0.00  0.00    +0.000 A 
ATOM     16  C   UNL     1      -0.615  16.271  19.111  0.00  0.00    +0.000 A 
ATOM     17  C   UNL     1      -0.690  14.989  19.662  0.00  0.00    +0.000 A 
ATOM     18  C   UNL     1       0.429  14.157  19.643  0.00  0.00    +0.000 A 
ATOM     19  C   UNL     1       1.636  14.614  19.098  0.00  0.00    +0.000 A 
ATOM     20  C   UNL     1       1.704  15.895  18.545  0.00  0.00    +0.000 A 
ENDBRANCH  11  18
ENDBRANCH   5  11
ENDBRANCH   1   8
BRANCH   3  21
ATOM     21  C   UNL     1       3.131   5.828  19.207  0.00  0.00    +0.000 C 
BRANCH  21  22
ATOM     22  C   UNL     1       4.567   5.422  18.777  0.00  0.00    +0.000 C 
ATOM     23  O   UNL     1       5.279   4.689  19.468  0.00  0.00    +0.000 OA
ATOM     24  N   UNL     1       4.977   5.897  17.556  0.00  0.00    +0.000 N 
ATOM     25  H   UNL     1       4.382   6.528  17.025  0.00  0.00    +0.000 HD
BRANCH  24  26
ATOM     26  C   UNL     1       6.346   5.710  17.118  0.00  0.00    +0.000 C 
BRANCH  26  27
ATOM     27  C   UNL     1       7.194   6.820  17.610  0.00  0.00    +0.000 A 
ATOM     28  C   UNL     1       8.132   6.914  18.618  0.00  0.00    +0.000 A 
ATOM     29  C   UNL     1       8.568   8.260  18.634  0.00  0.00    +0.000 A 
ATOM     30  C   UNL     1       7.870   8.900  17.638  0.00  0.00    +0.000 A 
ATOM     31  O   UNL     1       7.037   8.034  17.007  0.00  0.00    +0.000 OA
ENDBRANCH  26  27
ENDBRANCH  24  26
ENDBRANCH  21  22
BRANCH  21  32
ATOM     32  C   UNL     1       2.184   4.592  19.129  0.00  0.00    +0.000 C 
ATOM     33  C   UNL     1       1.113   4.601  20.229  0.00  0.00    +0.000 C 
ATOM     34  C   UNL     1       1.468   4.505  17.776  0.00  0.00    +0.000 C 
ENDBRANCH  21  32
ENDBRANCH   3  21
TORSDOF 8
ENDMDL
MODEL 9
REMARK VINA RESULT:      -7.4      1.122      1.488
REMARK  Name = 
REMARK  11 active torsions:
REMARK  status: ('A' for Active; 'I' for Inactive)
REMARK    1  A    between atoms: C_1  and  C_2
REMARK    2  A    between atoms: C_5  and  S_6
REMARK    3  A    between atoms: S_6  and  N_9
REMARK    4  A    between atoms: C_12  and  C_13
REMARK    5  A    between atoms: N_15  and  C_16
REMARK    6  A    between atoms: C_16  and  C_17
REMARK    7  A    between atoms: C_16  and  C_26
REMARK    8  A    between atoms: N_19  and  C_20
REMARK    9  A    between atoms: C_20  and  C_21
REMARK   10  A    between atoms: C_26  and  C_27
REMARK   11  A    between atoms: C_26  and  C_28
REMARK                            x       y       z     vdW  Elec       q    Type
REMARK                         _______ _______ _______ _____ _____    ______ ____
ROOT
ATOM      1  C   UNL     1       1.916   8.343  18.911  0.00  0.00    +0.000 C 
ATOM      2  O   UNL     1       1.788   8.587  20.110  0.00  0.00    +0.000 OA
ATOM      3  N   UNL     1       2.416   7.141  18.466  0.00  0.00    +0.000 N 
ATOM      4  H   UNL     1       2.671   7.049  17.493  0.00  0.00    +0.000 HD
ENDROOT
BRANCH   1   8
ATOM      5  N   UNL     1      -0.303  11.245  19.083  0.00  0.00    +0.000 NA
ATOM      6  C   UNL     1       1.152  11.343  19.329  0.00  0.00    +0.000 C 
ATOM      7  C   UNL     1       1.944  10.798  18.143  0.00  0.00    +0.000 C 
ATOM      8  C   UNL     1       1.542   9.357  17.801  0.00  0.00    +0.000 C 
ATOM      9  C   UNL     1       0.047   9.365  17.464  0.00  0.00    +0.000 C 
ATOM     10  C   UNL     1      -0.814   9.948  18.584  0.00  0.00    +0.000 C 
BRANCH   5  11
ATOM     11  S   UNL     1      -1.296  12.057  20.228  0.00  0.00    +0.000 S 
ATOM     12  O   UNL     1      -0.862  13.444  20.262  0.00  0.00    +0.000 OA
ATOM     13  O   UNL     1      -1.351  11.269  21.437  0.00  0.00    +0.000 OA
BRANCH  11  18
ATOM     14  C   UNL     1      -6.814  12.360  17.666  0.00  0.00    +0.000 C 
ATOM     15  C   UNL     1      -5.468  12.249  18.323  0.00  0.00    +0.000 A 
ATOM     16  C   UNL     1      -5.264  12.672  19.643  0.00  0.00    +0.000 A 
ATOM     17  C   UNL     1      -3.998  12.581  20.227  0.00  0.00    +0.000 A 
ATOM     18  C   UNL     1      -2.931  12.056  19.499  0.00  0.00    +0.000 A 
ATOM     19  C   UNL     1      -3.119  11.646  18.172  0.00  0.00    +0.000 A 
ATOM     20  C   UNL     1      -4.389  11.735  17.594  0.00  0.00    +0.000 A 
ENDBRANCH  11  18
ENDBRANCH   5  11
ENDBRANCH   1   8
BRANCH   3  21
ATOM     21  C   UNL     1       2.763   6.008  19.357  0.00  0.00    +0.000 C 
BRANCH  21  22
ATOM     22  C   UNL     1       4.187   5.474  19.046  0.00  0.00    +0.000 C 
ATOM     23  O   UNL     1       4.719   4.584  19.717  0.00  0.00    +0.000 OA
ATOM     24  N   UNL     1       4.801   6.024  17.949  0.00  0.00    +0.000 N 
ATOM     25  H   UNL     1       4.353   6.780  17.436  0.00  0.00    +0.000 HD
BRANCH  24  26
ATOM     26  C   UNL     1       6.185   5.715  17.649  0.00  0.00    +0.000 C 
BRANCH  26  27
ATOM     27  C   UNL     1       6.292   5.099  16.307  0.00  0.00    +0.000 A 
ATOM     28  C   UNL     1       5.667   4.021  15.714  0.00  0.00    +0.000 A 
ATOM     29  C   UNL     1       6.231   3.893  14.422  0.00  0.00    +0.000 A 
ATOM     30  C   UNL     1       7.162   4.899  14.311  0.00  0.00    +0.000 A 
ATOM     31  O   UNL     1       7.203   5.639  15.448  0.00  0.00    +0.000 OA
ENDBRANCH  26  27
ENDBRANCH  24  26
ENDBRANCH  21  22
BRANCH  21  32
ATOM     32  C   UNL     1       1.717   4.866  19.187  0.00  0.00    +0.000 C 
ATOM     33  C   UNL     1       2.049   3.933  18.014  0.00  0.00    +0.000 C 
ATOM     34  C   UNL     1       1.599   4.007  20.453  0.00  0.00    +0.000 C 
ENDBRANCH  21  32
ENDBRANCH   3  21
TORSDOF 8
ENDMDL
