MODEL 1
REMARK VINA RESULT:      -7.8      0.000      0.000
REMARK  Name = 
REMARK  6 active torsions:
REMARK  status: ('A' for Active; 'I' for Inactive)
REMARK    1  A    between atoms: C_1  and  C_2
REMARK    2  A    between atoms: C_5  and  C_6
REMARK    3  A    between atoms: N_8  and  C_9
REMARK    4  A    between atoms: C_9  and  C_10
REMARK    5  A    between atoms: N_12  and  C_13
REMARK    6  A    between atoms: C_17  and  C_18
REMARK                            x       y       z     vdW  Elec       q    Type
REMARK                         _______ _______ _______ _____ _____    ______ ____
ROOT
ATOM      1  C   UNL     1       6.297   5.466  18.800  0.00  0.00    +0.000 C 
ATOM      2  O   UNL     1       6.490   5.149  19.977  0.00  0.00    +0.000 OA
ATOM      3  N   UNL     1       5.057   5.612  18.194  0.00  0.00    +0.000 N 
ATOM      4  H   UNL     1       5.035   5.687  17.184  0.00  0.00    +0.000 HD
ENDROOT
BRANCH   3   5
ATOM      5  C   UNL     1       3.813   5.454  18.856  0.00  0.00    +0.000 A 
ATOM      6  C   UNL     1       3.149   6.518  19.473  0.00  0.00    +0.000 A 
ATOM      7  C   UNL     1       1.965   6.316  20.182  0.00  0.00    +0.000 A 
ATOM      8  C   UNL     1       1.423   5.041  20.281  0.00  0.00    +0.000 A 
ATOM      9  C   UNL     1       2.048   3.958  19.647  0.00  0.00    +0.000 A 
ATOM     10  C   UNL     1       3.233   4.179  18.911  0.00  0.00    +0.000 A 
BRANCH   9  11
ATOM     11  C   UNL     1       1.476   2.568  19.783  0.00  0.00    +0.000 C 
ATOM     12  F   UNL     1       0.310   2.388  19.102  0.00  0.00    +0.000 F 
ATOM     13  F   UNL     1       2.324   1.606  19.329  0.00  0.00    +0.000 F 
ATOM     14  F   UNL     1       1.203   2.245  21.078  0.00  0.00    +0.000 F 
ENDBRANCH   9  11
ENDBRANCH   3   5
BRANCH   1  15
ATOM     15  C   UNL     1       7.498   5.701  17.878  0.00  0.00    +0.000 C 
BRANCH  15  18
ATOM     16  C   UNL     1       7.656   8.174  17.669  0.00  0.00    +0.000 C 
ATOM     17  O   UNL     1       6.776   8.205  16.814  0.00  0.00    +0.000 OA
ATOM     18  N   UNL     1       8.062   6.997  18.234  0.00  0.00    +0.000 N 
ATOM     19  H   UNL     1       8.780   6.959  18.949  0.00  0.00    +0.000 HD
BRANCH  16  24
ATOM     20  C   UNL     1      10.344  12.958  19.639  0.00  0.00    +0.000 C 
ATOM     21  C   UNL     1       9.645  11.736  19.130  0.00  0.00    +0.000 A 
ATOM     22  C   UNL     1       9.745  10.511  19.797  0.00  0.00    +0.000 A 
ATOM     23  C   UNL     1       9.091   9.375  19.303  0.00  0.00    +0.000 A 
ATOM     24  C   UNL     1       8.324   9.437  18.132  0.00  0.00    +0.000 A 
ATOM     25  C   UNL     1       8.223  10.665  17.463  0.00  0.00    +0.000 A 
ATOM     26  C   UNL     1       8.877  11.801  17.960  0.00  0.00    +0.000 A 
ENDBRANCH  16  24
ENDBRANCH  15  18
ENDBRANCH   1  15
TORSDOF 5
ENDMDL
MODEL 2
REMARK VINA RESULT:      -7.8      3.350      5.607
REMARK  Name = 
REMARK  6 active torsions:
REMARK  status: ('A' for Active; 'I' for Inactive)
REMARK    1  A    between atoms: C_1  and  C_2
REMARK    2  A    between atoms: C_5  and  C_6
REMARK    3  A    between atoms: N_8  and  C_9
REMARK    4  A    between atoms: C_9  and  C_10
REMARK    5  A    between atoms: N_12  and  C_13
REMARK    6  A    between atoms: C_17  and  C_18
REMARK                            x       y       z     vdW  Elec       q    Type
REMARK                         _______ _______ _______ _____ _____    ______ ____
ROOT
ATOM      1  C   UNL     1       5.917   5.630  18.497  0.00  0.00    +0.000 C 
ATOM      2  O   UNL     1       6.253   4.808  19.353  0.00  0.00    +0.000 OA
ATOM      3  N   UNL     1       4.613   6.005  18.203  0.00  0.00    +0.000 N 
ATOM      4  H   UNL     1       4.459   6.540  17.357  0.00  0.00    +0.000 HD
ENDROOT
BRANCH   3   5
ATOM      5  C   UNL     1       3.464   5.521  18.877  0.00  0.00    +0.000 A 
ATOM      6  C   UNL     1       2.838   6.234  19.904  0.00  0.00    +0.000 A 
ATOM      7  C   UNL     1       1.756   5.697  20.601  0.00  0.00    +0.000 A 
ATOM      8  C   UNL     1       1.278   4.434  20.275  0.00  0.00    +0.000 A 
ATOM      9  C   UNL     1       1.863   3.706  19.230  0.00  0.00    +0.000 A 
ATOM     10  C   UNL     1       2.943   4.271  18.516  0.00  0.00    +0.000 A 
BRANCH   9  11
ATOM     11  C   UNL     1       1.364   2.320  18.900  0.00  0.00    +0.000 C 
ATOM     12  F   UNL     1       0.028   2.269  18.640  0.00  0.00    +0.000 F 
ATOM     13  F   UNL     1       1.977   1.790  17.807  0.00  0.00    +0.000 F 
ATOM     14  F   UNL     1       1.579   1.438  19.915  0.00  0.00    +0.000 F 
ENDBRANCH   9  11
ENDBRANCH   3   5
BRANCH   1  15
ATOM     15  C   UNL     1       6.992   6.302  17.636  0.00  0.00    +0.000 C 
BRANCH  15  18
ATOM     16  C   UNL     1       6.299   5.741  15.314  0.00  0.00    +0.000 C 
ATOM     17  O   UNL     1       5.435   6.613  15.311  0.00  0.00    +0.000 OA
ATOM     18  N   UNL     1       7.096   5.529  16.405  0.00  0.00    +0.000 N 
ATOM     19  H   UNL     1       7.821   4.820  16.416  0.00  0.00    +0.000 HD
BRANCH  16  24
ATOM     20  C   UNL     1       6.963   2.238  10.701  0.00  0.00    +0.000 C 
ATOM     21  C   UNL     1       6.803   3.138  11.887  0.00  0.00    +0.000 A 
ATOM     22  C   UNL     1       5.788   2.931  12.825  0.00  0.00    +0.000 A 
ATOM     23  C   UNL     1       5.647   3.787  13.925  0.00  0.00    +0.000 A 
ATOM     24  C   UNL     1       6.518   4.870  14.111  0.00  0.00    +0.000 A 
ATOM     25  C   UNL     1       7.537   5.077  13.170  0.00  0.00    +0.000 A 
ATOM     26  C   UNL     1       7.676   4.219  12.071  0.00  0.00    +0.000 A 
ENDBRANCH  16  24
ENDBRANCH  15  18
ENDBRANCH   1  15
TORSDOF 5
ENDMDL
MODEL 3
REMARK VINA RESULT:      -7.8      4.868      7.816
REMARK  Name = 
REMARK  6 active torsions:
REMARK  status: ('A' for Active; 'I' for Inactive)
REMARK    1  A    between atoms: C_1  and  C_2
REMARK    2  A    between atoms: C_5  and  C_6
REMARK    3  A    between atoms: N_8  and  C_9
REMARK    4  A    between atoms: C_9  and  C_10
REMARK    5  A    between atoms: N_12  and  C_13
REMARK    6  A    between atoms: C_17  and  C_18
REMARK                            x       y       z     vdW  Elec       q    Type
REMARK                         _______ _______ _______ _____ _____    ______ ____
ROOT
ATOM      1  C   UNL     1       2.350   8.049  18.487  0.00  0.00    +0.000 C 
ATOM      2  O   UNL     1       2.055   7.824  19.663  0.00  0.00    +0.000 OA
ATOM      3  N   UNL     1       2.854   7.119  17.588  0.00  0.00    +0.000 N 
ATOM      4  H   UNL     1       3.233   7.468  16.716  0.00  0.00    +0.000 HD
ENDROOT
BRANCH   3   5
ATOM      5  C   UNL     1       3.072   5.749  17.882  0.00  0.00    +0.000 A 
ATOM      6  C   UNL     1       4.225   5.068  17.481  0.00  0.00    +0.000 A 
ATOM      7  C   UNL     1       4.375   3.702  17.717  0.00  0.00    +0.000 A 
ATOM      8  C   UNL     1       3.371   2.994  18.365  0.00  0.00    +0.000 A 
ATOM      9  C   UNL     1       2.215   3.654  18.807  0.00  0.00    +0.000 A 
ATOM     10  C   UNL     1       2.086   5.042  18.584  0.00  0.00    +0.000 A 
BRANCH   9  11
ATOM     11  C   UNL     1       1.111   2.877  19.480  0.00  0.00    +0.000 C 
ATOM     12  F   UNL     1       1.559   1.850  20.255  0.00  0.00    +0.000 F 
ATOM     13  F   UNL     1       0.347   3.654  20.298  0.00  0.00    +0.000 F 
ATOM     14  F   UNL     1       0.250   2.317  18.585  0.00  0.00    +0.000 F 
ENDBRANCH   9  11
ENDBRANCH   3   5
BRANCH   1  15
ATOM     15  C   UNL     1       2.191   9.467  17.928  0.00  0.00    +0.000 C 
BRANCH  15  18
ATOM     16  C   UNL     1       0.045  10.525  18.607  0.00  0.00    +0.000 C 
ATOM     17  O   UNL     1       0.577  11.114  19.543  0.00  0.00    +0.000 OA
ATOM     18  N   UNL     1       0.762   9.708  17.777  0.00  0.00    +0.000 N 
ATOM     19  H   UNL     1       0.337   9.225  16.993  0.00  0.00    +0.000 HD
BRANCH  16  24
ATOM     20  C   UNL     1      -5.659  11.311  17.691  0.00  0.00    +0.000 C 
ATOM     21  C   UNL     1      -4.196  11.099  17.924  0.00  0.00    +0.000 A 
ATOM     22  C   UNL     1      -3.491  11.862  18.861  0.00  0.00    +0.000 A 
ATOM     23  C   UNL     1      -2.120  11.656  19.062  0.00  0.00    +0.000 A 
ATOM     24  C   UNL     1      -1.423  10.683  18.332  0.00  0.00    +0.000 A 
ATOM     25  C   UNL     1      -2.129   9.917  17.394  0.00  0.00    +0.000 A 
ATOM     26  C   UNL     1      -3.501  10.124  17.195  0.00  0.00    +0.000 A 
ENDBRANCH  16  24
ENDBRANCH  15  18
ENDBRANCH   1  15
TORSDOF 5
ENDMDL
MODEL 4
REMARK VINA RESULT:      -7.7      3.229      5.600
REMARK  Name = 
REMARK  6 active torsions:
REMARK  status: ('A' for Active; 'I' for Inactive)
REMARK    1  A    between atoms: C_1  and  C_2
REMARK    2  A    between atoms: C_5  and  C_6
REMARK    3  A    between atoms: N_8  and  C_9
REMARK    4  A    between atoms: C_9  and  C_10
REMARK    5  A    between atoms: N_12  and  C_13
REMARK    6  A    between atoms: C_17  and  C_18
REMARK                            x       y       z     vdW  Elec       q    Type
REMARK                         _______ _______ _______ _____ _____    ______ ____
ROOT
ATOM      1  C   UNL     1       6.061   5.742  18.711  0.00  0.00    +0.000 C 
ATOM      2  O   UNL     1       6.357   5.156  19.756  0.00  0.00    +0.000 OA
ATOM      3  N   UNL     1       4.772   5.973  18.251  0.00  0.00    +0.000 N 
ATOM      4  H   UNL     1       4.666   6.292  17.295  0.00  0.00    +0.000 HD
ENDROOT
BRANCH   3   5
ATOM      5  C   UNL     1       3.590   5.599  18.939  0.00  0.00    +0.000 A 
ATOM      6  C   UNL     1       2.890   6.482  19.766  0.00  0.00    +0.000 A 
ATOM      7  C   UNL     1       1.775   6.063  20.491  0.00  0.00    +0.000 A 
ATOM      8  C   UNL     1       1.339   4.747  20.395  0.00  0.00    +0.000 A 
ATOM      9  C   UNL     1       2.001   3.844  19.551  0.00  0.00    +0.000 A 
ATOM     10  C   UNL     1       3.113   4.289  18.803  0.00  0.00    +0.000 A 
BRANCH   9  11
ATOM     11  C   UNL     1       1.546   2.408  19.474  0.00  0.00    +0.000 C 
ATOM     12  F   UNL     1       1.388   1.819  20.692  0.00  0.00    +0.000 F 
ATOM     13  F   UNL     1       0.350   2.271  18.837  0.00  0.00    +0.000 F 
ATOM     14  F   UNL     1       2.425   1.621  18.793  0.00  0.00    +0.000 F 
ENDBRANCH   9  11
ENDBRANCH   3   5
BRANCH   1  15
ATOM     15  C   UNL     1       7.176   6.252  17.793  0.00  0.00    +0.000 C 
BRANCH  15  18
ATOM     16  C   UNL     1       6.329   5.771  15.504  0.00  0.00    +0.000 C 
ATOM     17  O   UNL     1       5.607   6.764  15.512  0.00  0.00    +0.000 OA
ATOM     18  N   UNL     1       7.121   5.456  16.573  0.00  0.00    +0.000 N 
ATOM     19  H   UNL     1       7.731   4.645  16.575  0.00  0.00    +0.000 HD
BRANCH  16  24
ATOM     20  C   UNL     1       6.704   2.327  10.815  0.00  0.00    +0.000 C 
ATOM     21  C   UNL     1       6.597   3.212  12.017  0.00  0.00    +0.000 A 
ATOM     22  C   UNL     1       7.574   4.171  12.303  0.00  0.00    +0.000 A 
ATOM     23  C   UNL     1       7.463   4.986  13.437  0.00  0.00    +0.000 A 
ATOM     24  C   UNL     1       6.374   4.861  14.311  0.00  0.00    +0.000 A 
ATOM     25  C   UNL     1       5.394   3.900  14.024  0.00  0.00    +0.000 A 
ATOM     26  C   UNL     1       5.506   3.086  12.888  0.00  0.00    +0.000 A 
ENDBRANCH  16  24
ENDBRANCH  15  18
ENDBRANCH   1  15
TORSDOF 5
ENDMDL
MODEL 5
REMARK VINA RESULT:      -7.7      3.823      5.765
REMARK  Name = 
REMARK  6 active torsions:
REMARK  status: ('A' for Active; 'I' for Inactive)
REMARK    1  A    between atoms: C_1  and  C_2
REMARK    2  A    between atoms: C_5  and  C_6
REMARK    3  A    between atoms: N_8  and  C_9
REMARK    4  A    between atoms: C_9  and  C_10
REMARK    5  A    between atoms: N_12  and  C_13
REMARK    6  A    between atoms: C_17  and  C_18
REMARK                            x       y       z     vdW  Elec       q    Type
REMARK                         _______ _______ _______ _____ _____    ______ ____
ROOT
ATOM      1  C   UNL     1       6.575   4.978  18.951  0.00  0.00    +0.000 C 
ATOM      2  O   UNL     1       6.783   5.389  20.094  0.00  0.00    +0.000 OA
ATOM      3  N   UNL     1       5.326   4.750  18.388  0.00  0.00    +0.000 N 
ATOM      4  H   UNL     1       5.292   4.235  17.516  0.00  0.00    +0.000 HD
ENDROOT
BRANCH   3   5
ATOM      5  C   UNL     1       4.091   4.995  19.039  0.00  0.00    +0.000 A 
ATOM      6  C   UNL     1       3.641   6.284  19.337  0.00  0.00    +0.000 A 
ATOM      7  C   UNL     1       2.459   6.490  20.048  0.00  0.00    +0.000 A 
ATOM      8  C   UNL     1       1.703   5.403  20.469  0.00  0.00    +0.000 A 
ATOM      9  C   UNL     1       2.111   4.098  20.159  0.00  0.00    +0.000 A 
ATOM     10  C   UNL     1       3.297   3.904  19.418  0.00  0.00    +0.000 A 
BRANCH   9  11
ATOM     11  C   UNL     1       1.307   2.918  20.647  0.00  0.00    +0.000 C 
ATOM     12  F   UNL     1       1.196   2.855  22.003  0.00  0.00    +0.000 F 
ATOM     13  F   UNL     1       0.031   2.921  20.169  0.00  0.00    +0.000 F 
ATOM     14  F   UNL     1       1.847   1.728  20.263  0.00  0.00    +0.000 F 
ENDBRANCH   9  11
ENDBRANCH   3   5
BRANCH   1  15
ATOM     15  C   UNL     1       7.763   4.647  18.041  0.00  0.00    +0.000 C 
BRANCH  15  18
ATOM     16  C   UNL     1       7.132   5.016  15.664  0.00  0.00    +0.000 C 
ATOM     17  O   UNL     1       7.527   6.178  15.691  0.00  0.00    +0.000 OA
ATOM     18  N   UNL     1       7.213   4.209  16.765  0.00  0.00    +0.000 N 
ATOM     19  H   UNL     1       6.901   3.244  16.752  0.00  0.00    +0.000 HD
BRANCH  16  24
ATOM     20  C   UNL     1       5.049   2.770  10.703  0.00  0.00    +0.000 C 
ATOM     21  C   UNL     1       5.574   3.352  11.979  0.00  0.00    +0.000 A 
ATOM     22  C   UNL     1       6.892   3.807  12.081  0.00  0.00    +0.000 A 
ATOM     23  C   UNL     1       7.370   4.342  13.285  0.00  0.00    +0.000 A 
ATOM     24  C   UNL     1       6.543   4.433  14.413  0.00  0.00    +0.000 A 
ATOM     25  C   UNL     1       5.221   3.977  14.309  0.00  0.00    +0.000 A 
ATOM     26  C   UNL     1       4.744   3.443  13.104  0.00  0.00    +0.000 A 
ENDBRANCH  16  24
ENDBRANCH  15  18
ENDBRANCH   1  15
TORSDOF 5
ENDMDL
MODEL 6
REMARK VINA RESULT:      -7.7      5.117      7.145
REMARK  Name = 
REMARK  6 active torsions:
REMARK  status: ('A' for Active; 'I' for Inactive)
REMARK    1  A    between atoms: C_1  and  C_2
REMARK    2  A    between atoms: C_5  and  C_6
REMARK    3  A    between atoms: N_8  and  C_9
REMARK    4  A    between atoms: C_9  and  C_10
REMARK    5  A    between atoms: N_12  and  C_13
REMARK    6  A    between atoms: C_17  and  C_18
REMARK                            x       y       z     vdW  Elec       q    Type
REMARK                         _______ _______ _______ _____ _____    ______ ____
ROOT
ATOM      1  C   UNL     1       6.835   4.420  17.230  0.00  0.00    +0.000 C 
ATOM      2  O   UNL     1       8.046   4.214  17.115  0.00  0.00    +0.000 OA
ATOM      3  N   UNL     1       5.939   4.586  16.183  0.00  0.00    +0.000 N 
ATOM      4  H   UNL     1       5.016   4.937  16.407  0.00  0.00    +0.000 HD
ENDROOT
BRANCH   3   5
ATOM      5  C   UNL     1       6.280   4.504  14.809  0.00  0.00    +0.000 A 
ATOM      6  C   UNL     1       7.433   5.094  14.284  0.00  0.00    +0.000 A 
ATOM      7  C   UNL     1       7.701   5.063  12.916  0.00  0.00    +0.000 A 
ATOM      8  C   UNL     1       6.817   4.433  12.049  0.00  0.00    +0.000 A 
ATOM      9  C   UNL     1       5.667   3.804  12.548  0.00  0.00    +0.000 A 
ATOM     10  C   UNL     1       5.420   3.822  13.938  0.00  0.00    +0.000 A 
BRANCH   9  11
ATOM     11  C   UNL     1       4.691   3.150  11.601  0.00  0.00    +0.000 C 
ATOM     12  F   UNL     1       5.110   1.941  11.133  0.00  0.00    +0.000 F 
ATOM     13  F   UNL     1       3.476   2.925  12.174  0.00  0.00    +0.000 F 
ATOM     14  F   UNL     1       4.450   3.911  10.498  0.00  0.00    +0.000 F 
ENDBRANCH   9  11
ENDBRANCH   3   5
BRANCH   1  15
ATOM     15  C   UNL     1       6.223   4.541  18.630  0.00  0.00    +0.000 C 
BRANCH  15  18
ATOM     16  C   UNL     1       4.021   5.562  19.177  0.00  0.00    +0.000 C 
ATOM     17  O   UNL     1       3.667   4.572  19.811  0.00  0.00    +0.000 OA
ATOM     18  N   UNL     1       5.247   5.623  18.575  0.00  0.00    +0.000 N 
ATOM     19  H   UNL     1       5.556   6.439  18.058  0.00  0.00    +0.000 HD
BRANCH  16  24
ATOM     20  C   UNL     1       0.581  10.210  18.430  0.00  0.00    +0.000 C 
ATOM     21  C   UNL     1       1.466   9.019  18.633  0.00  0.00    +0.000 A 
ATOM     22  C   UNL     1       2.336   8.581  17.629  0.00  0.00    +0.000 A 
ATOM     23  C   UNL     1       3.152   7.461  17.831  0.00  0.00    +0.000 A 
ATOM     24  C   UNL     1       3.116   6.752  19.040  0.00  0.00    +0.000 A 
ATOM     25  C   UNL     1       2.245   7.191  20.047  0.00  0.00    +0.000 A 
ATOM     26  C   UNL     1       1.430   8.314  19.843  0.00  0.00    +0.000 A 
ENDBRANCH  16  24
ENDBRANCH  15  18
ENDBRANCH   1  15
TORSDOF 5
ENDMDL
MODEL 7
REMARK VINA RESULT:      -7.7      1.219      1.748
REMARK  Name = 
REMARK  6 active torsions:
REMARK  status: ('A' for Active; 'I' for Inactive)
REMARK    1  A    between atoms: C_1  and  C_2
REMARK    2  A    between atoms: C_5  and  C_6
REMARK    3  A    between atoms: N_8  and  C_9
REMARK    4  A    between atoms: C_9  and  C_10
REMARK    5  A    between atoms: N_12  and  C_13
REMARK    6  A    between atoms: C_17  and  C_18
REMARK                            x       y       z     vdW  Elec       q    Type
REMARK                         _______ _______ _______ _____ _____    ______ ____
ROOT
ATOM      1  C   UNL     1       5.618   6.342  17.116  0.00  0.00    +0.000 C 
ATOM      2  O   UNL     1       4.775   7.015  16.518  0.00  0.00    +0.000 OA
ATOM      3  N   UNL     1       5.360   5.473  18.168  0.00  0.00    +0.000 N 
ATOM      4  H   UNL     1       6.153   5.127  18.695  0.00  0.00    +0.000 HD
ENDROOT
BRANCH   3   5
ATOM      5  C   UNL     1       4.072   5.199  18.691  0.00  0.00    +0.000 A 
ATOM      6  C   UNL     1       3.409   6.074  19.556  0.00  0.00    +0.000 A 
ATOM      7  C   UNL     1       2.175   5.741  20.115  0.00  0.00    +0.000 A 
ATOM      8  C   UNL     1       1.581   4.522  19.811  0.00  0.00    +0.000 A 
ATOM      9  C   UNL     1       2.206   3.635  18.923  0.00  0.00    +0.000 A 
ATOM     10  C   UNL     1       3.443   3.995  18.344  0.00  0.00    +0.000 A 
BRANCH   9  11
ATOM     11  C   UNL     1       1.575   2.298  18.621  0.00  0.00    +0.000 C 
ATOM     12  F   UNL     1       0.219   2.347  18.504  0.00  0.00    +0.000 F 
ATOM     13  F   UNL     1       2.029   1.756  17.457  0.00  0.00    +0.000 F 
ATOM     14  F   UNL     1       1.831   1.374  19.589  0.00  0.00    +0.000 F 
ENDBRANCH   9  11
ENDBRANCH   3   5
BRANCH   1  15
ATOM     15  C   UNL     1       7.094   6.460  16.723  0.00  0.00    +0.000 C 
BRANCH  15  18
ATOM     16  C   UNL     1       8.222   8.108  18.206  0.00  0.00    +0.000 C 
ATOM     17  O   UNL     1       8.539   7.237  19.011  0.00  0.00    +0.000 OA
ATOM     18  N   UNL     1       7.521   7.810  17.071  0.00  0.00    +0.000 N 
ATOM     19  H   UNL     1       7.262   8.518  16.393  0.00  0.00    +0.000 HD
BRANCH  16  24
ATOM     20  C   UNL     1       9.556  13.739  18.920  0.00  0.00    +0.000 C 
ATOM     21  C   UNL     1       9.223  12.290  18.741  0.00  0.00    +0.000 A 
ATOM     22  C   UNL     1       8.448  11.851  17.663  0.00  0.00    +0.000 A 
ATOM     23  C   UNL     1       8.139  10.493  17.513  0.00  0.00    +0.000 A 
ATOM     24  C   UNL     1       8.598   9.543  18.437  0.00  0.00    +0.000 A 
ATOM     25  C   UNL     1       9.376   9.984  19.517  0.00  0.00    +0.000 A 
ATOM     26  C   UNL     1       9.685  11.343  19.665  0.00  0.00    +0.000 A 
ENDBRANCH  16  24
ENDBRANCH  15  18
ENDBRANCH   1  15
TORSDOF 5
ENDMDL
MODEL 8
REMARK VINA RESULT:      -7.6      4.940      6.395
REMARK  Name = 
REMARK  6 active torsions:
REMARK  status: ('A' for Active; 'I' for Inactive)
REMARK    1  A    between atoms: C_1  and  C_2
REMARK    2  A    between atoms: C_5  and  C_6
REMARK    3  A    between atoms: N_8  and  C_9
REMARK    4  A    between atoms: C_9  and  C_10
REMARK    5  A    between atoms: N_12  and  C_13
REMARK    6  A    between atoms: C_17  and  C_18
REMARK                            x       y       z     vdW  Elec       q    Type
REMARK                         _______ _______ _______ _____ _____    ______ ____
ROOT
ATOM      1  C   UNL     1       2.535   4.965  20.293  0.00  0.00    +0.000 C 
ATOM      2  O   UNL     1       1.429   4.721  20.780  0.00  0.00    +0.000 OA
ATOM      3  N   UNL     1       2.944   6.191  19.787  0.00  0.00    +0.000 N 
ATOM      4  H   UNL     1       3.801   6.213  19.246  0.00  0.00    +0.000 HD
ENDROOT
BRANCH   3   5
ATOM      5  C   UNL     1       2.155   7.368  19.789  0.00  0.00    +0.000 A 
ATOM      6  C   UNL     1       2.067   8.218  18.682  0.00  0.00    +0.000 A 
ATOM      7  C   UNL     1       1.344   9.409  18.741  0.00  0.00    +0.000 A 
ATOM      8  C   UNL     1       0.690   9.768  19.914  0.00  0.00    +0.000 A 
ATOM      9  C   UNL     1       0.733   8.923  21.032  0.00  0.00    +0.000 A 
ATOM     10  C   UNL     1       1.448   7.707  20.951  0.00  0.00    +0.000 A 
BRANCH   9  11
ATOM     11  C   UNL     1       0.051   9.330  22.315  0.00  0.00    +0.000 C 
ATOM     12  F   UNL     1       0.884   9.356  23.392  0.00  0.00    +0.000 F 
ATOM     13  F   UNL     1      -0.501  10.573  22.241  0.00  0.00    +0.000 F 
ATOM     14  F   UNL     1      -0.965   8.488  22.651  0.00  0.00    +0.000 F 
ENDBRANCH   9  11
ENDBRANCH   3   5
BRANCH   1  15
ATOM     15  C   UNL     1       3.575   3.844  20.188  0.00  0.00    +0.000 C 
BRANCH  15  18
ATOM     16  C   UNL     1       5.362   4.456  18.569  0.00  0.00    +0.000 C 
ATOM     17  O   UNL     1       6.067   4.930  19.455  0.00  0.00    +0.000 OA
ATOM     18  N   UNL     1       4.139   3.910  18.846  0.00  0.00    +0.000 N 
ATOM     19  H   UNL     1       3.551   3.506  18.125  0.00  0.00    +0.000 HD
BRANCH  16  24
ATOM     20  C   UNL     1       6.926   4.388  12.953  0.00  0.00    +0.000 C 
ATOM     21  C   UNL     1       6.534   4.402  14.398  0.00  0.00    +0.000 A 
ATOM     22  C   UNL     1       5.258   4.005  14.809  0.00  0.00    +0.000 A 
ATOM     23  C   UNL     1       4.904   4.032  16.164  0.00  0.00    +0.000 A 
ATOM     24  C   UNL     1       5.818   4.456  17.139  0.00  0.00    +0.000 A 
ATOM     25  C   UNL     1       7.098   4.853  16.727  0.00  0.00    +0.000 A 
ATOM     26  C   UNL     1       7.450   4.825  15.371  0.00  0.00    +0.000 A 
ENDBRANCH  16  24
ENDBRANCH  15  18
ENDBRANCH   1  15
TORSDOF 5
ENDMDL
MODEL 9
REMARK VINA RESULT:      -7.6      4.892      7.847
REMARK  Name = 
REMARK  6 active torsions:
REMARK  status: ('A' for Active; 'I' for Inactive)
REMARK    1  A    between atoms: C_1  and  C_2
REMARK    2  A    between atoms: C_5  and  C_6
REMARK    3  A    between atoms: N_8  and  C_9
REMARK    4  A    between atoms: C_9  and  C_10
REMARK    5  A    between atoms: N_12  and  C_13
REMARK    6  A    between atoms: C_17  and  C_18
REMARK                            x       y       z     vdW  Elec       q    Type
REMARK                         _______ _______ _______ _____ _____    ______ ____
ROOT
ATOM      1  C   UNL     1       2.269   8.168  18.585  0.00  0.00    +0.000 C 
ATOM      2  O   UNL     1       1.845   8.050  19.737  0.00  0.00    +0.000 OA
ATOM      3  N   UNL     1       2.952   7.194  17.871  0.00  0.00    +0.000 N 
ATOM      4  H   UNL     1       3.411   7.477  17.013  0.00  0.00    +0.000 HD
ENDROOT
BRANCH   3   5
ATOM      5  C   UNL     1       3.233   5.890  18.351  0.00  0.00    +0.000 A 
ATOM      6  C   UNL     1       4.523   5.352  18.357  0.00  0.00    +0.000 A 
ATOM      7  C   UNL     1       4.756   4.038  18.763  0.00  0.00    +0.000 A 
ATOM      8  C   UNL     1       3.696   3.240  19.175  0.00  0.00    +0.000 A 
ATOM      9  C   UNL     1       2.393   3.759  19.210  0.00  0.00    +0.000 A 
ATOM     10  C   UNL     1       2.175   5.099  18.820  0.00  0.00    +0.000 A 
BRANCH   9  11
ATOM     11  C   UNL     1       1.239   2.881  19.626  0.00  0.00    +0.000 C 
ATOM     12  F   UNL     1       1.618   1.782  20.338  0.00  0.00    +0.000 F 
ATOM     13  F   UNL     1       0.337   3.537  20.406  0.00  0.00    +0.000 F 
ATOM     14  F   UNL     1       0.538   2.408  18.559  0.00  0.00    +0.000 F 
ENDBRANCH   9  11
ENDBRANCH   3   5
BRANCH   1  15
ATOM     15  C   UNL     1       2.077   9.496  17.845  0.00  0.00    +0.000 C 
BRANCH  15  18
ATOM     16  C   UNL     1       0.023  10.700  18.566  0.00  0.00    +0.000 C 
ATOM     17  O   UNL     1       0.653  11.400  19.354  0.00  0.00    +0.000 OA
ATOM     18  N   UNL     1       0.643   9.754  17.797  0.00  0.00    +0.000 N 
ATOM     19  H   UNL     1       0.136   9.178  17.135  0.00  0.00    +0.000 HD
BRANCH  16  24
ATOM     20  C   UNL     1      -5.743  11.141  17.825  0.00  0.00    +0.000 C 
ATOM     21  C   UNL     1      -4.262  11.039  18.016  0.00  0.00    +0.000 A 
ATOM     22  C   UNL     1      -3.502  10.098  17.314  0.00  0.00    +0.000 A 
ATOM     23  C   UNL     1      -2.118  10.010  17.510  0.00  0.00    +0.000 A 
ATOM     24  C   UNL     1      -1.462  10.859  18.412  0.00  0.00    +0.000 A 
ATOM     25  C   UNL     1      -2.224  11.803  19.116  0.00  0.00    +0.000 A 
ATOM     26  C   UNL     1      -3.609  11.890  18.917  0.00  0.00    +0.000 A 
ENDBRANCH  16  24
ENDBRANCH  15  18
ENDBRANCH   1  15
TORSDOF 5
ENDMDL
