MODEL 1
REMARK VINA RESULT:      -8.3      0.000      0.000
REMARK  Name = 
REMARK  12 active torsions:
REMARK  status: ('A' for Active; 'I' for Inactive)
REMARK    1  A    between atoms: C_1  and  C_2
REMARK    2  A    between atoms: C_2  and  O_3
REMARK    3  A    between atoms: O_3  and  C_4
REMARK    4  A    between atoms: C_7  and  C_8
REMARK    5  A    between atoms: C_8  and  C_10
REMARK    6  A    between atoms: C_11  and  N_12
REMARK    7  A    between atoms: N_12  and  C_13
REMARK    8  A    between atoms: C_16  and  S_17
REMARK    9  A    between atoms: S_17  and  N_20
REMARK   10  A    between atoms: N_20  and  C_21
REMARK   11  A    between atoms: C_24  and  C_25
REMARK   12  A    between atoms: C_26  and  C_27
REMARK                            x       y       z     vdW  Elec       q    Type
REMARK                         _______ _______ _______ _____ _____    ______ ____
ROOT
ATOM      1  C   UNL     1       1.958   6.712  20.306  0.00  0.00    +0.000 A 
ATOM      2  C   UNL     1       2.288   6.751  18.943  0.00  0.00    +0.000 A 
ATOM      3  C   UNL     1       2.511   5.577  18.218  0.00  0.00    +0.000 A 
ATOM      4  C   UNL     1       2.384   4.340  18.851  0.00  0.00    +0.000 A 
ATOM      5  C   UNL     1       2.006   4.269  20.192  0.00  0.00    +0.000 A 
ATOM      6  C   UNL     1       1.801   5.453  20.911  0.00  0.00    +0.000 A 
ENDROOT
BRANCH   4   7
ATOM      7  S   UNL     1       2.623   2.861  17.908  0.00  0.00    +0.000 S 
ATOM      8  O   UNL     1       1.868   1.797  18.545  0.00  0.00    +0.000 OA
ATOM      9  O   UNL     1       2.431   3.167  16.509  0.00  0.00    +0.000 OA
BRANCH   7  10
ATOM     10  N   UNL     1       4.248   2.491  18.241  0.00  0.00    +0.000 N 
ATOM     11  H   UNL     1       4.553   1.918  17.455  0.00  0.00    +0.000 HD
BRANCH  10  12
ATOM     12  C   UNL     1       5.045   3.655  18.419  0.00  0.00    +0.000 A 
ATOM     13  O   UNL     1       5.363   4.181  19.631  0.00  0.00    +0.000 OA
ATOM     14  N   UNL     1       6.224   5.251  19.459  0.00  0.00    +0.000 NA
ATOM     15  C   UNL     1       6.383   5.378  18.136  0.00  0.00    +0.000 A 
ATOM     16  C   UNL     1       7.233   6.463  17.590  0.00  0.00    +0.000 C 
ATOM     17  C   UNL     1       5.651   4.389  17.423  0.00  0.00    +0.000 A 
ATOM     18  C   UNL     1       5.521   4.227  15.959  0.00  0.00    +0.000 C 
ENDBRANCH  10  12
ENDBRANCH   7  10
ENDBRANCH   4   7
BRANCH   1  19
ATOM     19  N   UNL     1       1.696   7.867  21.065  0.00  0.00    +0.000 N 
ATOM     20  H   UNL     1       1.904   7.790  22.054  0.00  0.00    +0.000 HD
BRANCH  19  22
ATOM     21  C   UNL     1       0.076   9.650  20.770  0.00  0.00    +0.000 C 
ATOM     22  C   UNL     1       1.287   9.097  20.613  0.00  0.00    +0.000 C 
BRANCH  21  23
ATOM     23  C   UNL     1      -0.212  10.972  20.145  0.00  0.00    +0.000 C 
ATOM     24  O   UNL     1       0.607  11.885  20.156  0.00  0.00    +0.000 OA
BRANCH  23  28
ATOM     25  C   UNL     1      -3.944  11.367  18.042  0.00  0.00    +0.000 A 
ATOM     26  C   UNL     1      -3.008  10.400  17.676  0.00  0.00    +0.000 A 
ATOM     27  C   UNL     1      -1.799  10.290  18.368  0.00  0.00    +0.000 A 
ATOM     28  C   UNL     1      -1.510  11.150  19.437  0.00  0.00    +0.000 A 
ATOM     29  C   UNL     1      -2.432  12.152  19.772  0.00  0.00    +0.000 A 
ATOM     30  C   UNL     1      -3.644  12.258  19.072  0.00  0.00    +0.000 A 
BRANCH  25  31
ATOM     31  O   UNL     1      -5.103  11.362  17.318  0.00  0.00    +0.000 OA
BRANCH  31  33
ATOM     32  C   UNL     1      -7.186  12.386  17.840  0.00  0.00    +0.000 C 
ATOM     33  C   UNL     1      -6.306  11.167  18.062  0.00  0.00    +0.000 C 
ENDBRANCH  31  33
ENDBRANCH  25  31
ENDBRANCH  23  28
ENDBRANCH  21  23
ENDBRANCH  19  22
ENDBRANCH   1  19
TORSDOF 9
ENDMDL
MODEL 2
REMARK VINA RESULT:      -8.3      1.032      1.102
REMARK  Name = 
REMARK  12 active torsions:
REMARK  status: ('A' for Active; 'I' for Inactive)
REMARK    1  A    between atoms: C_1  and  C_2
REMARK    2  A    between atoms: C_2  and  O_3
REMARK    3  A    between atoms: O_3  and  C_4
REMARK    4  A    between atoms: C_7  and  C_8
REMARK    5  A    between atoms: C_8  and  C_10
REMARK    6  A    between atoms: C_11  and  N_12
REMARK    7  A    between atoms: N_12  and  C_13
REMARK    8  A    between atoms: C_16  and  S_17
REMARK    9  A    between atoms: S_17  and  N_20
REMARK   10  A    between atoms: N_20  and  C_21
REMARK   11  A    between atoms: C_24  and  C_25
REMARK   12  A    between atoms: C_26  and  C_27
REMARK                            x       y       z     vdW  Elec       q    Type
REMARK                         _______ _______ _______ _____ _____    ______ ____
ROOT
ATOM      1  C   UNL     1       2.096   6.912  19.846  0.00  0.00    +0.000 A 
ATOM      2  C   UNL     1       2.190   6.700  18.463  0.00  0.00    +0.000 A 
ATOM      3  C   UNL     1       2.587   5.464  17.945  0.00  0.00    +0.000 A 
ATOM      4  C   UNL     1       2.878   4.413  18.815  0.00  0.00    +0.000 A 
ATOM      5  C   UNL     1       2.744   4.580  20.194  0.00  0.00    +0.000 A 
ATOM      6  C   UNL     1       2.360   5.828  20.700  0.00  0.00    +0.000 A 
ENDROOT
BRANCH   4   7
ATOM      7  S   UNL     1       3.335   2.841  18.143  0.00  0.00    +0.000 S 
ATOM      8  O   UNL     1       3.911   2.047  19.214  0.00  0.00    +0.000 OA
ATOM      9  O   UNL     1       2.232   2.333  17.359  0.00  0.00    +0.000 OA
BRANCH   7  10
ATOM     10  N   UNL     1       4.657   3.251  17.156  0.00  0.00    +0.000 N 
ATOM     11  H   UNL     1       4.241   3.609  16.297  0.00  0.00    +0.000 HD
BRANCH  10  12
ATOM     12  C   UNL     1       5.530   4.183  17.778  0.00  0.00    +0.000 A 
ATOM     13  O   UNL     1       6.024   4.041  19.036  0.00  0.00    +0.000 OA
ATOM     14  N   UNL     1       6.913   5.067  19.303  0.00  0.00    +0.000 NA
ATOM     15  C   UNL     1       6.914   5.839  18.210  0.00  0.00    +0.000 A 
ATOM     16  C   UNL     1       7.747   7.065  18.165  0.00  0.00    +0.000 C 
ATOM     17  C   UNL     1       6.047   5.325  17.206  0.00  0.00    +0.000 A 
ATOM     18  C   UNL     1       5.728   5.912  15.887  0.00  0.00    +0.000 C 
ENDBRANCH  10  12
ENDBRANCH   7  10
ENDBRANCH   4   7
BRANCH   1  19
ATOM     19  N   UNL     1       1.671   8.130  20.408  0.00  0.00    +0.000 N 
ATOM     20  H   UNL     1       1.819   8.219  21.407  0.00  0.00    +0.000 HD
BRANCH  19  22
ATOM     21  C   UNL     1       0.007   9.847  19.993  0.00  0.00    +0.000 C 
ATOM     22  C   UNL     1       1.174   9.231  19.756  0.00  0.00    +0.000 C 
BRANCH  21  23
ATOM     23  C   UNL     1      -0.404  10.992  19.132  0.00  0.00    +0.000 C 
ATOM     24  O   UNL     1       0.417  11.680  18.534  0.00  0.00    +0.000 OA
BRANCH  23  28
ATOM     25  C   UNL     1      -4.617  11.637  18.546  0.00  0.00    +0.000 A 
ATOM     26  C   UNL     1      -3.912  10.719  17.769  0.00  0.00    +0.000 A 
ATOM     27  C   UNL     1      -2.543  10.526  17.970  0.00  0.00    +0.000 A 
ATOM     28  C   UNL     1      -1.859  11.255  18.954  0.00  0.00    +0.000 A 
ATOM     29  C   UNL     1      -2.560  12.213  19.701  0.00  0.00    +0.000 A 
ATOM     30  C   UNL     1      -3.935  12.402  19.493  0.00  0.00    +0.000 A 
BRANCH  25  31
ATOM     31  O   UNL     1      -5.956  11.720  18.284  0.00  0.00    +0.000 OA
BRANCH  31  33
ATOM     32  C   UNL     1      -7.144  10.702  20.076  0.00  0.00    +0.000 C 
ATOM     33  C   UNL     1      -6.731  10.569  18.619  0.00  0.00    +0.000 C 
ENDBRANCH  31  33
ENDBRANCH  25  31
ENDBRANCH  23  28
ENDBRANCH  21  23
ENDBRANCH  19  22
ENDBRANCH   1  19
TORSDOF 9
ENDMDL
MODEL 3
REMARK VINA RESULT:      -8.3      0.542      1.035
REMARK  Name = 
REMARK  12 active torsions:
REMARK  status: ('A' for Active; 'I' for Inactive)
REMARK    1  A    between atoms: C_1  and  C_2
REMARK    2  A    between atoms: C_2  and  O_3
REMARK    3  A    between atoms: O_3  and  C_4
REMARK    4  A    between atoms: C_7  and  C_8
REMARK    5  A    between atoms: C_8  and  C_10
REMARK    6  A    between atoms: C_11  and  N_12
REMARK    7  A    between atoms: N_12  and  C_13
REMARK    8  A    between atoms: C_16  and  S_17
REMARK    9  A    between atoms: S_17  and  N_20
REMARK   10  A    between atoms: N_20  and  C_21
REMARK   11  A    between atoms: C_24  and  C_25
REMARK   12  A    between atoms: C_26  and  C_27
REMARK                            x       y       z     vdW  Elec       q    Type
REMARK                         _______ _______ _______ _____ _____    ______ ____
ROOT
ATOM      1  C   UNL     1       1.886   6.823  20.257  0.00  0.00    +0.000 A 
ATOM      2  C   UNL     1       1.652   5.567  20.836  0.00  0.00    +0.000 A 
ATOM      3  C   UNL     1       1.831   4.389  20.105  0.00  0.00    +0.000 A 
ATOM      4  C   UNL     1       2.269   4.456  18.783  0.00  0.00    +0.000 A 
ATOM      5  C   UNL     1       2.560   5.689  18.198  0.00  0.00    +0.000 A 
ATOM      6  C   UNL     1       2.362   6.863  18.935  0.00  0.00    +0.000 A 
ENDROOT
BRANCH   4   7
ATOM      7  S   UNL     1       2.536   2.954  17.886  0.00  0.00    +0.000 S 
ATOM      8  O   UNL     1       1.686   1.930  18.465  0.00  0.00    +0.000 OA
ATOM      9  O   UNL     1       2.485   3.243  16.471  0.00  0.00    +0.000 OA
BRANCH   7  10
ATOM     10  N   UNL     1       4.109   2.529  18.371  0.00  0.00    +0.000 N 
ATOM     11  H   UNL     1       4.438   1.882  17.656  0.00  0.00    +0.000 HD
BRANCH  10  12
ATOM     12  C   UNL     1       4.955   3.662  18.523  0.00  0.00    +0.000 A 
ATOM     13  O   UNL     1       5.249   4.237  19.719  0.00  0.00    +0.000 OA
ATOM     14  N   UNL     1       6.168   5.254  19.529  0.00  0.00    +0.000 NA
ATOM     15  C   UNL     1       6.388   5.301  18.210  0.00  0.00    +0.000 A 
ATOM     16  C   UNL     1       7.313   6.314  17.646  0.00  0.00    +0.000 C 
ATOM     17  C   UNL     1       5.637   4.311  17.518  0.00  0.00    +0.000 A 
ATOM     18  C   UNL     1       5.559   4.078  16.060  0.00  0.00    +0.000 C 
ENDBRANCH  10  12
ENDBRANCH   7  10
ENDBRANCH   4   7
BRANCH   1  19
ATOM     19  N   UNL     1       1.749   8.031  20.965  0.00  0.00    +0.000 N 
ATOM     20  H   UNL     1       2.228   8.065  21.857  0.00  0.00    +0.000 HD
BRANCH  19  22
ATOM     21  C   UNL     1       0.975   9.603  19.286  0.00  0.00    +0.000 C 
ATOM     22  C   UNL     1       1.132   9.185  20.550  0.00  0.00    +0.000 C 
BRANCH  21  23
ATOM     23  C   UNL     1       0.340  10.926  19.026  0.00  0.00    +0.000 C 
ATOM     24  O   UNL     1       0.981  11.972  19.066  0.00  0.00    +0.000 OA
BRANCH  23  28
ATOM     25  C   UNL     1      -3.803  10.893  17.867  0.00  0.00    +0.000 A 
ATOM     26  C   UNL     1      -2.875  10.053  17.252  0.00  0.00    +0.000 A 
ATOM     27  C   UNL     1      -1.533  10.081  17.639  0.00  0.00    +0.000 A 
ATOM     28  C   UNL     1      -1.101  10.955  18.647  0.00  0.00    +0.000 A 
ATOM     29  C   UNL     1      -2.027  11.832  19.229  0.00  0.00    +0.000 A 
ATOM     30  C   UNL     1      -3.374  11.799  18.836  0.00  0.00    +0.000 A 
BRANCH  25  31
ATOM     31  O   UNL     1      -5.092  10.757  17.432  0.00  0.00    +0.000 OA
BRANCH  31  33
ATOM     32  C   UNL     1      -6.918  12.266  17.647  0.00  0.00    +0.000 C 
ATOM     33  C   UNL     1      -6.107  11.184  18.340  0.00  0.00    +0.000 C 
ENDBRANCH  31  33
ENDBRANCH  25  31
ENDBRANCH  23  28
ENDBRANCH  21  23
ENDBRANCH  19  22
ENDBRANCH   1  19
TORSDOF 9
ENDMDL
MODEL 4
REMARK VINA RESULT:      -8.1      5.503      9.658
REMARK  Name = 
REMARK  12 active torsions:
REMARK  status: ('A' for Active; 'I' for Inactive)
REMARK    1  A    between atoms: C_1  and  C_2
REMARK    2  A    between atoms: C_2  and  O_3
REMARK    3  A    between atoms: O_3  and  C_4
REMARK    4  A    between atoms: C_7  and  C_8
REMARK    5  A    between atoms: C_8  and  C_10
REMARK    6  A    between atoms: C_11  and  N_12
REMARK    7  A    between atoms: N_12  and  C_13
REMARK    8  A    between atoms: C_16  and  S_17
REMARK    9  A    between atoms: S_17  and  N_20
REMARK   10  A    between atoms: N_20  and  C_21
REMARK   11  A    between atoms: C_24  and  C_25
REMARK   12  A    between atoms: C_26  and  C_27
REMARK                            x       y       z     vdW  Elec       q    Type
REMARK                         _______ _______ _______ _____ _____    ______ ____
ROOT
ATOM      1  C   UNL     1       6.994   6.779  17.428  0.00  0.00    +0.000 A 
ATOM      2  C   UNL     1       6.161   6.265  16.424  0.00  0.00    +0.000 A 
ATOM      3  C   UNL     1       5.294   5.198  16.677  0.00  0.00    +0.000 A 
ATOM      4  C   UNL     1       5.238   4.644  17.956  0.00  0.00    +0.000 A 
ATOM      5  C   UNL     1       6.017   5.169  18.988  0.00  0.00    +0.000 A 
ATOM      6  C   UNL     1       6.892   6.227  18.717  0.00  0.00    +0.000 A 
ENDROOT
BRANCH   4   7
ATOM      7  S   UNL     1       4.102   3.324  18.274  0.00  0.00    +0.000 S 
ATOM      8  O   UNL     1       4.263   2.332  17.226  0.00  0.00    +0.000 OA
ATOM      9  O   UNL     1       4.202   2.951  19.666  0.00  0.00    +0.000 OA
BRANCH   7  10
ATOM     10  N   UNL     1       2.606   4.060  17.939  0.00  0.00    +0.000 N 
ATOM     11  H   UNL     1       1.970   3.286  17.750  0.00  0.00    +0.000 HD
BRANCH  10  12
ATOM     12  C   UNL     1       2.162   4.894  19.000  0.00  0.00    +0.000 A 
ATOM     13  O   UNL     1       1.618   4.431  20.157  0.00  0.00    +0.000 OA
ATOM     14  N   UNL     1       1.382   5.491  21.014  0.00  0.00    +0.000 NA
ATOM     15  C   UNL     1       1.754   6.588  20.345  0.00  0.00    +0.000 A 
ATOM     16  C   UNL     1       1.603   7.926  20.966  0.00  0.00    +0.000 C 
ATOM     17  C   UNL     1       2.255   6.268  19.052  0.00  0.00    +0.000 A 
ATOM     18  C   UNL     1       2.708   7.195  17.993  0.00  0.00    +0.000 C 
ENDBRANCH  10  12
ENDBRANCH   7  10
ENDBRANCH   4   7
BRANCH   1  19
ATOM     19  N   UNL     1       7.857   7.871  17.225  0.00  0.00    +0.000 N 
ATOM     20  H   UNL     1       8.040   8.102  16.255  0.00  0.00    +0.000 HD
BRANCH  19  22
ATOM     21  C   UNL     1       8.720   9.998  18.011  0.00  0.00    +0.000 C 
ATOM     22  C   UNL     1       8.395   8.708  18.171  0.00  0.00    +0.000 C 
BRANCH  21  23
ATOM     23  C   UNL     1       9.365  10.735  19.134  0.00  0.00    +0.000 C 
ATOM     24  O   UNL     1       9.308  10.331  20.291  0.00  0.00    +0.000 OA
BRANCH  23  28
ATOM     25  C   UNL     1      11.625  14.243  18.087  0.00  0.00    +0.000 A 
ATOM     26  C   UNL     1      11.444  13.203  17.177  0.00  0.00    +0.000 A 
ATOM     27  C   UNL     1      10.711  12.069  17.537  0.00  0.00    +0.000 A 
ATOM     28  C   UNL     1      10.150  11.961  18.817  0.00  0.00    +0.000 A 
ATOM     29  C   UNL     1      10.373  12.987  19.746  0.00  0.00    +0.000 A 
ATOM     30  C   UNL     1      11.111  14.123  19.379  0.00  0.00    +0.000 A 
BRANCH  25  31
ATOM     31  O   UNL     1      12.330  15.316  17.617  0.00  0.00    +0.000 OA
BRANCH  31  33
ATOM     32  C   UNL     1      11.425  17.510  17.459  0.00  0.00    +0.000 C 
ATOM     33  C   UNL     1      12.178  16.533  18.347  0.00  0.00    +0.000 C 
ENDBRANCH  31  33
ENDBRANCH  25  31
ENDBRANCH  23  28
ENDBRANCH  21  23
ENDBRANCH  19  22
ENDBRANCH   1  19
TORSDOF 9
ENDMDL
MODEL 5
REMARK VINA RESULT:      -8.1      1.441      1.861
REMARK  Name = 
REMARK  12 active torsions:
REMARK  status: ('A' for Active; 'I' for Inactive)
REMARK    1  A    between atoms: C_1  and  C_2
REMARK    2  A    between atoms: C_2  and  O_3
REMARK    3  A    between atoms: O_3  and  C_4
REMARK    4  A    between atoms: C_7  and  C_8
REMARK    5  A    between atoms: C_8  and  C_10
REMARK    6  A    between atoms: C_11  and  N_12
REMARK    7  A    between atoms: N_12  and  C_13
REMARK    8  A    between atoms: C_16  and  S_17
REMARK    9  A    between atoms: S_17  and  N_20
REMARK   10  A    between atoms: N_20  and  C_21
REMARK   11  A    between atoms: C_24  and  C_25
REMARK   12  A    between atoms: C_26  and  C_27
REMARK                            x       y       z     vdW  Elec       q    Type
REMARK                         _______ _______ _______ _____ _____    ______ ____
ROOT
ATOM      1  C   UNL     1       1.857   6.326  20.580  0.00  0.00    +0.000 A 
ATOM      2  C   UNL     1       2.166   5.080  21.146  0.00  0.00    +0.000 A 
ATOM      3  C   UNL     1       2.580   4.007  20.352  0.00  0.00    +0.000 A 
ATOM      4  C   UNL     1       2.710   4.178  18.974  0.00  0.00    +0.000 A 
ATOM      5  C   UNL     1       2.461   5.421  18.390  0.00  0.00    +0.000 A 
ATOM      6  C   UNL     1       2.031   6.484  19.195  0.00  0.00    +0.000 A 
ENDROOT
BRANCH   4   7
ATOM      7  S   UNL     1       3.281   2.824  17.987  0.00  0.00    +0.000 S 
ATOM      8  O   UNL     1       4.186   2.030  18.798  0.00  0.00    +0.000 OA
ATOM      9  O   UNL     1       2.145   2.214  17.335  0.00  0.00    +0.000 OA
BRANCH   7  10
ATOM     10  N   UNL     1       4.289   3.608  16.864  0.00  0.00    +0.000 N 
ATOM     11  H   UNL     1       3.657   4.165  16.289  0.00  0.00    +0.000 HD
BRANCH  10  12
ATOM     12  C   UNL     1       5.297   4.388  17.492  0.00  0.00    +0.000 A 
ATOM     13  O   UNL     1       5.999   3.988  18.585  0.00  0.00    +0.000 OA
ATOM     14  N   UNL     1       6.964   4.933  18.887  0.00  0.00    +0.000 NA
ATOM     15  C   UNL     1       6.804   5.912  17.990  0.00  0.00    +0.000 A 
ATOM     16  C   UNL     1       7.667   7.117  18.043  0.00  0.00    +0.000 C 
ATOM     17  C   UNL     1       5.752   5.621  17.077  0.00  0.00    +0.000 A 
ATOM     18  C   UNL     1       5.230   6.469  15.984  0.00  0.00    +0.000 C 
ENDBRANCH  10  12
ENDBRANCH   7  10
ENDBRANCH   4   7
BRANCH   1  19
ATOM     19  N   UNL     1       1.467   7.440  21.346  0.00  0.00    +0.000 N 
ATOM     20  H   UNL     1       1.380   7.271  22.341  0.00  0.00    +0.000 HD
BRANCH  19  22
ATOM     21  C   UNL     1       0.768   9.747  21.627  0.00  0.00    +0.000 C 
ATOM     22  C   UNL     1       1.288   8.733  20.921  0.00  0.00    +0.000 C 
BRANCH  21  23
ATOM     23  C   UNL     1       0.582  11.074  20.975  0.00  0.00    +0.000 C 
ATOM     24  O   UNL     1       1.311  12.028  21.229  0.00  0.00    +0.000 OA
BRANCH  23  28
ATOM     25  C   UNL     1      -2.440  11.368  17.927  0.00  0.00    +0.000 A 
ATOM     26  C   UNL     1      -1.261  10.657  17.709  0.00  0.00    +0.000 A 
ATOM     27  C   UNL     1      -0.289  10.576  18.709  0.00  0.00    +0.000 A 
ATOM     28  C   UNL     1      -0.484  11.211  19.944  0.00  0.00    +0.000 A 
ATOM     29  C   UNL     1      -1.649  11.966  20.144  0.00  0.00    +0.000 A 
ATOM     30  C   UNL     1      -2.621  12.043  19.135  0.00  0.00    +0.000 A 
BRANCH  25  31
ATOM     31  O   UNL     1      -3.334  11.352  16.893  0.00  0.00    +0.000 OA
BRANCH  31  33
ATOM     32  C   UNL     1      -3.288  10.380  14.722  0.00  0.00    +0.000 C 
ATOM     33  C   UNL     1      -3.474  10.109  16.206  0.00  0.00    +0.000 C 
ENDBRANCH  31  33
ENDBRANCH  25  31
ENDBRANCH  23  28
ENDBRANCH  21  23
ENDBRANCH  19  22
ENDBRANCH   1  19
TORSDOF 9
ENDMDL
MODEL 6
REMARK VINA RESULT:      -8.0      5.116      9.517
REMARK  Name = 
REMARK  12 active torsions:
REMARK  status: ('A' for Active; 'I' for Inactive)
REMARK    1  A    between atoms: C_1  and  C_2
REMARK    2  A    between atoms: C_2  and  O_3
REMARK    3  A    between atoms: O_3  and  C_4
REMARK    4  A    between atoms: C_7  and  C_8
REMARK    5  A    between atoms: C_8  and  C_10
REMARK    6  A    between atoms: C_11  and  N_12
REMARK    7  A    between atoms: N_12  and  C_13
REMARK    8  A    between atoms: C_16  and  S_17
REMARK    9  A    between atoms: S_17  and  N_20
REMARK   10  A    between atoms: N_20  and  C_21
REMARK   11  A    between atoms: C_24  and  C_25
REMARK   12  A    between atoms: C_26  and  C_27
REMARK                            x       y       z     vdW  Elec       q    Type
REMARK                         _______ _______ _______ _____ _____    ______ ____
ROOT
ATOM      1  C   UNL     1       6.617   6.290  17.406  0.00  0.00    +0.000 A 
ATOM      2  C   UNL     1       6.387   5.877  18.726  0.00  0.00    +0.000 A 
ATOM      3  C   UNL     1       5.503   4.834  19.014  0.00  0.00    +0.000 A 
ATOM      4  C   UNL     1       4.849   4.175  17.973  0.00  0.00    +0.000 A 
ATOM      5  C   UNL     1       5.099   4.530  16.646  0.00  0.00    +0.000 A 
ATOM      6  C   UNL     1       5.975   5.587  16.372  0.00  0.00    +0.000 A 
ENDROOT
BRANCH   4   7
ATOM      7  S   UNL     1       3.768   2.825  18.350  0.00  0.00    +0.000 S 
ATOM      8  O   UNL     1       3.869   1.856  17.274  0.00  0.00    +0.000 OA
ATOM      9  O   UNL     1       3.983   2.429  19.723  0.00  0.00    +0.000 OA
BRANCH   7  10
ATOM     10  N   UNL     1       2.236   3.534  18.145  0.00  0.00    +0.000 N 
ATOM     11  H   UNL     1       1.589   2.899  18.612  0.00  0.00    +0.000 HD
BRANCH  10  12
ATOM     12  C   UNL     1       2.178   4.858  18.657  0.00  0.00    +0.000 A 
ATOM     13  O   UNL     1       2.281   5.976  17.891  0.00  0.00    +0.000 OA
ATOM     14  N   UNL     1       2.090   7.097  18.680  0.00  0.00    +0.000 NA
ATOM     15  C   UNL     1       1.911   6.637  19.924  0.00  0.00    +0.000 A 
ATOM     16  C   UNL     1       1.708   7.586  21.045  0.00  0.00    +0.000 C 
ATOM     17  C   UNL     1       1.962   5.217  19.970  0.00  0.00    +0.000 A 
ATOM     18  C   UNL     1       1.868   4.337  21.155  0.00  0.00    +0.000 C 
ENDBRANCH  10  12
ENDBRANCH   7  10
ENDBRANCH   4   7
BRANCH   1  19
ATOM     19  N   UNL     1       7.522   7.314  17.069  0.00  0.00    +0.000 N 
ATOM     20  H   UNL     1       7.611   7.502  16.077  0.00  0.00    +0.000 HD
BRANCH  19  22
ATOM     21  C   UNL     1       8.196   9.479  17.933  0.00  0.00    +0.000 C 
ATOM     22  C   UNL     1       8.215   8.138  17.920  0.00  0.00    +0.000 C 
BRANCH  21  23
ATOM     23  C   UNL     1       9.074  10.214  18.887  0.00  0.00    +0.000 C 
ATOM     24  O   UNL     1       9.192   9.866  20.058  0.00  0.00    +0.000 OA
BRANCH  23  28
ATOM     25  C   UNL     1      11.259  13.599  17.377  0.00  0.00    +0.000 A 
ATOM     26  C   UNL     1       9.890  13.462  17.148  0.00  0.00    +0.000 A 
ATOM     27  C   UNL     1       9.198  12.354  17.642  0.00  0.00    +0.000 A 
ATOM     28  C   UNL     1       9.870  11.363  18.372  0.00  0.00    +0.000 A 
ATOM     29  C   UNL     1      11.255  11.478  18.560  0.00  0.00    +0.000 A 
ATOM     30  C   UNL     1      11.944  12.594  18.061  0.00  0.00    +0.000 A 
BRANCH  25  31
ATOM     31  O   UNL     1      11.825  14.737  16.876  0.00  0.00    +0.000 OA
BRANCH  31  33
ATOM     32  C   UNL     1      11.408  16.865  17.854  0.00  0.00    +0.000 C 
ATOM     33  C   UNL     1      12.333  15.660  17.840  0.00  0.00    +0.000 C 
ENDBRANCH  31  33
ENDBRANCH  25  31
ENDBRANCH  23  28
ENDBRANCH  21  23
ENDBRANCH  19  22
ENDBRANCH   1  19
TORSDOF 9
ENDMDL
MODEL 7
REMARK VINA RESULT:      -7.9      2.434      2.817
REMARK  Name = 
REMARK  12 active torsions:
REMARK  status: ('A' for Active; 'I' for Inactive)
REMARK    1  A    between atoms: C_1  and  C_2
REMARK    2  A    between atoms: C_2  and  O_3
REMARK    3  A    between atoms: O_3  and  C_4
REMARK    4  A    between atoms: C_7  and  C_8
REMARK    5  A    between atoms: C_8  and  C_10
REMARK    6  A    between atoms: C_11  and  N_12
REMARK    7  A    between atoms: N_12  and  C_13
REMARK    8  A    between atoms: C_16  and  S_17
REMARK    9  A    between atoms: S_17  and  N_20
REMARK   10  A    between atoms: N_20  and  C_21
REMARK   11  A    between atoms: C_24  and  C_25
REMARK   12  A    between atoms: C_26  and  C_27
REMARK                            x       y       z     vdW  Elec       q    Type
REMARK                         _______ _______ _______ _____ _____    ______ ____
ROOT
ATOM      1  C   UNL     1       1.936   6.788  20.271  0.00  0.00    +0.000 A 
ATOM      2  C   UNL     1       2.285   6.814  18.913  0.00  0.00    +0.000 A 
ATOM      3  C   UNL     1       2.505   5.632  18.199  0.00  0.00    +0.000 A 
ATOM      4  C   UNL     1       2.355   4.402  18.838  0.00  0.00    +0.000 A 
ATOM      5  C   UNL     1       1.957   4.344  20.174  0.00  0.00    +0.000 A 
ATOM      6  C   UNL     1       1.756   5.535  20.883  0.00  0.00    +0.000 A 
ENDROOT
BRANCH   4   7
ATOM      7  S   UNL     1       2.591   2.914  17.909  0.00  0.00    +0.000 S 
ATOM      8  O   UNL     1       1.797   1.868  18.530  0.00  0.00    +0.000 OA
ATOM      9  O   UNL     1       2.444   3.216  16.504  0.00  0.00    +0.000 OA
BRANCH   7  10
ATOM     10  N   UNL     1       4.199   2.513  18.289  0.00  0.00    +0.000 N 
ATOM     11  H   UNL     1       4.510   1.922  17.519  0.00  0.00    +0.000 HD
BRANCH  10  12
ATOM     12  C   UNL     1       5.016   3.661  18.471  0.00  0.00    +0.000 A 
ATOM     13  O   UNL     1       5.333   4.186  19.684  0.00  0.00    +0.000 OA
ATOM     14  N   UNL     1       6.216   5.238  19.517  0.00  0.00    +0.000 NA
ATOM     15  C   UNL     1       6.391   5.357  18.195  0.00  0.00    +0.000 A 
ATOM     16  C   UNL     1       7.267   6.424  17.654  0.00  0.00    +0.000 C 
ATOM     17  C   UNL     1       5.646   4.380  17.478  0.00  0.00    +0.000 A 
ATOM     18  C   UNL     1       5.527   4.216  16.014  0.00  0.00    +0.000 C 
ENDBRANCH  10  12
ENDBRANCH   7  10
ENDBRANCH   4   7
BRANCH   1  19
ATOM     19  N   UNL     1       1.675   7.951  21.018  0.00  0.00    +0.000 N 
ATOM     20  H   UNL     1       2.036   7.945  21.965  0.00  0.00    +0.000 HD
BRANCH  19  22
ATOM     21  C   UNL     1       0.983  10.263  21.270  0.00  0.00    +0.000 C 
ATOM     22  C   UNL     1       1.082   9.112  20.590  0.00  0.00    +0.000 C 
BRANCH  21  23
ATOM     23  C   UNL     1       0.237  11.405  20.672  0.00  0.00    +0.000 C 
ATOM     24  O   UNL     1       0.474  11.811  19.538  0.00  0.00    +0.000 OA
BRANCH  23  28
ATOM     25  C   UNL     1      -2.925  13.091  23.053  0.00  0.00    +0.000 A 
ATOM     26  C   UNL     1      -2.356  11.861  23.376  0.00  0.00    +0.000 A 
ATOM     27  C   UNL     1      -1.333  11.327  22.588  0.00  0.00    +0.000 A 
ATOM     28  C   UNL     1      -0.867  12.019  21.461  0.00  0.00    +0.000 A 
ATOM     29  C   UNL     1      -1.475  13.233  21.110  0.00  0.00    +0.000 A 
ATOM     30  C   UNL     1      -2.503  13.764  21.905  0.00  0.00    +0.000 A 
BRANCH  25  31
ATOM     31  O   UNL     1      -3.894  13.531  23.911  0.00  0.00    +0.000 OA
BRANCH  31  33
ATOM     32  C   UNL     1      -6.065  12.610  24.217  0.00  0.00    +0.000 C 
ATOM     33  C   UNL     1      -4.605  12.520  24.625  0.00  0.00    +0.000 C 
ENDBRANCH  31  33
ENDBRANCH  25  31
ENDBRANCH  23  28
ENDBRANCH  21  23
ENDBRANCH  19  22
ENDBRANCH   1  19
TORSDOF 9
ENDMDL
MODEL 8
REMARK VINA RESULT:      -7.9      5.832      8.084
REMARK  Name = 
REMARK  12 active torsions:
REMARK  status: ('A' for Active; 'I' for Inactive)
REMARK    1  A    between atoms: C_1  and  C_2
REMARK    2  A    between atoms: C_2  and  O_3
REMARK    3  A    between atoms: O_3  and  C_4
REMARK    4  A    between atoms: C_7  and  C_8
REMARK    5  A    between atoms: C_8  and  C_10
REMARK    6  A    between atoms: C_11  and  N_12
REMARK    7  A    between atoms: N_12  and  C_13
REMARK    8  A    between atoms: C_16  and  S_17
REMARK    9  A    between atoms: S_17  and  N_20
REMARK   10  A    between atoms: N_20  and  C_21
REMARK   11  A    between atoms: C_24  and  C_25
REMARK   12  A    between atoms: C_26  and  C_27
REMARK                            x       y       z     vdW  Elec       q    Type
REMARK                         _______ _______ _______ _____ _____    ______ ____
ROOT
ATOM      1  C   UNL     1       8.258   8.063  18.539  0.00  0.00    +0.000 A 
ATOM      2  C   UNL     1       8.369   6.784  19.103  0.00  0.00    +0.000 A 
ATOM      3  C   UNL     1       7.601   5.716  18.631  0.00  0.00    +0.000 A 
ATOM      4  C   UNL     1       6.722   5.914  17.567  0.00  0.00    +0.000 A 
ATOM      5  C   UNL     1       6.630   7.163  16.952  0.00  0.00    +0.000 A 
ATOM      6  C   UNL     1       7.393   8.229  17.444  0.00  0.00    +0.000 A 
ENDROOT
BRANCH   4   7
ATOM      7  S   UNL     1       5.791   4.541  16.950  0.00  0.00    +0.000 S 
ATOM      8  O   UNL     1       4.449   5.007  16.653  0.00  0.00    +0.000 OA
ATOM      9  O   UNL     1       6.577   3.863  15.944  0.00  0.00    +0.000 OA
BRANCH   7  10
ATOM     10  N   UNL     1       5.613   3.583  18.343  0.00  0.00    +0.000 N 
ATOM     11  H   UNL     1       6.445   3.775  18.901  0.00  0.00    +0.000 HD
BRANCH  10  12
ATOM     12  C   UNL     1       4.405   3.857  19.039  0.00  0.00    +0.000 A 
ATOM     13  O   UNL     1       4.179   4.990  19.754  0.00  0.00    +0.000 OA
ATOM     14  N   UNL     1       2.877   4.987  20.225  0.00  0.00    +0.000 NA
ATOM     15  C   UNL     1       2.347   3.829  19.817  0.00  0.00    +0.000 A 
ATOM     16  C   UNL     1       0.952   3.481  20.179  0.00  0.00    +0.000 C 
ATOM     17  C   UNL     1       3.277   3.065  19.059  0.00  0.00    +0.000 A 
ATOM     18  C   UNL     1       3.097   1.715  18.484  0.00  0.00    +0.000 C 
ENDBRANCH  10  12
ENDBRANCH   7  10
ENDBRANCH   4   7
BRANCH   1  19
ATOM     19  N   UNL     1       9.034   9.158  18.962  0.00  0.00    +0.000 N 
ATOM     20  H   UNL     1       9.685   8.961  19.713  0.00  0.00    +0.000 HD
BRANCH  19  22
ATOM     21  C   UNL     1      10.155  11.213  18.322  0.00  0.00    +0.000 C 
ATOM     22  C   UNL     1       9.080  10.418  18.419  0.00  0.00    +0.000 C 
BRANCH  21  23
ATOM     23  C   UNL     1      10.002  12.586  17.765  0.00  0.00    +0.000 C 
ATOM     24  O   UNL     1      10.803  13.052  16.960  0.00  0.00    +0.000 OA
BRANCH  23  28
ATOM     25  C   UNL     1       6.613  14.932  19.000  0.00  0.00    +0.000 A 
ATOM     26  C   UNL     1       7.724  14.776  19.829  0.00  0.00    +0.000 A 
ATOM     27  C   UNL     1       8.813  14.006  19.412  0.00  0.00    +0.000 A 
ATOM     28  C   UNL     1       8.804  13.379  18.158  0.00  0.00    +0.000 A 
ATOM     29  C   UNL     1       7.666  13.498  17.347  0.00  0.00    +0.000 A 
ATOM     30  C   UNL     1       6.575  14.272  17.771  0.00  0.00    +0.000 A 
BRANCH  25  31
ATOM     31  O   UNL     1       5.622  15.732  19.495  0.00  0.00    +0.000 OA
BRANCH  31  33
ATOM     32  C   UNL     1       4.465  15.770  21.573  0.00  0.00    +0.000 C 
ATOM     33  C   UNL     1       4.593  15.070  20.231  0.00  0.00    +0.000 C 
ENDBRANCH  31  33
ENDBRANCH  25  31
ENDBRANCH  23  28
ENDBRANCH  21  23
ENDBRANCH  19  22
ENDBRANCH   1  19
TORSDOF 9
ENDMDL
MODEL 9
REMARK VINA RESULT:      -7.9      3.541     10.039
REMARK  Name = 
REMARK  12 active torsions:
REMARK  status: ('A' for Active; 'I' for Inactive)
REMARK    1  A    between atoms: C_1  and  C_2
REMARK    2  A    between atoms: C_2  and  O_3
REMARK    3  A    between atoms: O_3  and  C_4
REMARK    4  A    between atoms: C_7  and  C_8
REMARK    5  A    between atoms: C_8  and  C_10
REMARK    6  A    between atoms: C_11  and  N_12
REMARK    7  A    between atoms: N_12  and  C_13
REMARK    8  A    between atoms: C_16  and  S_17
REMARK    9  A    between atoms: S_17  and  N_20
REMARK   10  A    between atoms: N_20  and  C_21
REMARK   11  A    between atoms: C_24  and  C_25
REMARK   12  A    between atoms: C_26  and  C_27
REMARK                            x       y       z     vdW  Elec       q    Type
REMARK                         _______ _______ _______ _____ _____    ______ ____
ROOT
ATOM      1  C   UNL     1       1.717   8.014  19.993  0.00  0.00    +0.000 A 
ATOM      2  C   UNL     1       1.814   8.613  18.729  0.00  0.00    +0.000 A 
ATOM      3  C   UNL     1       1.092   9.769  18.418  0.00  0.00    +0.000 A 
ATOM      4  C   UNL     1       0.274  10.352  19.386  0.00  0.00    +0.000 A 
ATOM      5  C   UNL     1       0.198   9.807  20.668  0.00  0.00    +0.000 A 
ATOM      6  C   UNL     1       0.915   8.640  20.961  0.00  0.00    +0.000 A 
ENDROOT
BRANCH   4   7
ATOM      7  S   UNL     1      -0.599  11.841  18.993  0.00  0.00    +0.000 S 
ATOM      8  O   UNL     1      -1.662  11.506  18.064  0.00  0.00    +0.000 OA
ATOM      9  O   UNL     1      -0.886  12.548  20.220  0.00  0.00    +0.000 OA
BRANCH   7  10
ATOM     10  N   UNL     1       0.543  12.679  18.052  0.00  0.00    +0.000 N 
ATOM     11  H   UNL     1      -0.008  13.171  17.349  0.00  0.00    +0.000 HD
BRANCH  10  12
ATOM     12  C   UNL     1       1.353  13.551  18.829  0.00  0.00    +0.000 A 
ATOM     13  O   UNL     1       2.533  13.188  19.397  0.00  0.00    +0.000 OA
ATOM     14  N   UNL     1       3.113  14.290  20.002  0.00  0.00    +0.000 NA
ATOM     15  C   UNL     1       2.250  15.297  19.823  0.00  0.00    +0.000 A 
ATOM     16  C   UNL     1       2.546  16.638  20.382  0.00  0.00    +0.000 C 
ATOM     17  C   UNL     1       1.107  14.882  19.085  0.00  0.00    +0.000 A 
ATOM     18  C   UNL     1      -0.089  15.676  18.731  0.00  0.00    +0.000 C 
ENDBRANCH  10  12
ENDBRANCH   7  10
ENDBRANCH   4   7
BRANCH   1  19
ATOM     19  N   UNL     1       2.450   6.869  20.357  0.00  0.00    +0.000 N 
ATOM     20  H   UNL     1       2.637   6.774  21.348  0.00  0.00    +0.000 HD
BRANCH  19  22
ATOM     21  C   UNL     1       3.527   4.738  19.924  0.00  0.00    +0.000 C 
ATOM     22  C   UNL     1       2.852   5.834  19.550  0.00  0.00    +0.000 C 
BRANCH  21  23
ATOM     23  C   UNL     1       3.945   3.748  18.892  0.00  0.00    +0.000 C 
ATOM     24  O   UNL     1       3.431   2.636  18.816  0.00  0.00    +0.000 OA
BRANCH  23  28
ATOM     25  C   UNL     1       6.812   4.937  15.913  0.00  0.00    +0.000 A 
ATOM     26  C   UNL     1       5.548   4.471  15.553  0.00  0.00    +0.000 A 
ATOM     27  C   UNL     1       4.632   4.085  16.535  0.00  0.00    +0.000 A 
ATOM     28  C   UNL     1       4.971   4.158  17.893  0.00  0.00    +0.000 A 
ATOM     29  C   UNL     1       6.259   4.580  18.250  0.00  0.00    +0.000 A 
ATOM     30  C   UNL     1       7.176   4.966  17.260  0.00  0.00    +0.000 A 
BRANCH  25  31
ATOM     31  O   UNL     1       7.613   5.317  14.873  0.00  0.00    +0.000 OA
BRANCH  31  33
ATOM     32  C   UNL     1       8.081   5.549  12.552  0.00  0.00    +0.000 C 
ATOM     33  C   UNL     1       7.260   4.801  13.589  0.00  0.00    +0.000 C 
ENDBRANCH  31  33
ENDBRANCH  25  31
ENDBRANCH  23  28
ENDBRANCH  21  23
ENDBRANCH  19  22
ENDBRANCH   1  19
TORSDOF 9
ENDMDL
