MODEL 1
REMARK VINA RESULT:      -8.2      0.000      0.000
REMARK  Name = 
REMARK  11 active torsions:
REMARK  status: ('A' for Active; 'I' for Inactive)
REMARK    1  A    between atoms: C_1  and  C_2
REMARK    2  A    between atoms: C_2  and  C_3
REMARK    3  A    between atoms: C_2  and  C_4
REMARK    4  A    between atoms: C_2  and  N_5
REMARK    5  A    between atoms: C_9  and  C_10
REMARK    6  A    between atoms: C_10  and  N_11
REMARK    7  A    between atoms: C_12  and  C_14
REMARK    8  A    between atoms: N_16  and  C_17
REMARK    9  A    between atoms: C_21  and  O_22
REMARK   10  A    between atoms: O_22  and  C_23
REMARK   11  A    between atoms: C_26  and  C_27
REMARK                            x       y       z     vdW  Elec       q    Type
REMARK                         _______ _______ _______ _____ _____    ______ ____
ROOT
ATOM      1  C   UNL     1       1.963   5.540  20.349  0.00  0.00    +0.000 C 
ATOM      2  O   UNL     1       0.828   5.222  20.688  0.00  0.00    +0.000 OA
ATOM      3  N   UNL     1       2.480   6.813  20.181  0.00  0.00    +0.000 N 
ATOM      4  H   UNL     1       3.401   6.865  19.752  0.00  0.00    +0.000 HD
ENDROOT
BRANCH   3   5
ATOM      5  C   UNL     1       1.753   8.003  20.402  0.00  0.00    +0.000 A 
ATOM      6  C   UNL     1       1.370   8.421  21.682  0.00  0.00    +0.000 A 
ATOM      7  C   UNL     1       0.576   9.551  21.866  0.00  0.00    +0.000 A 
ATOM      8  C   UNL     1       0.133  10.272  20.764  0.00  0.00    +0.000 A 
ATOM      9  C   UNL     1       0.509   9.871  19.482  0.00  0.00    +0.000 A 
ATOM     10  C   UNL     1       1.372   8.778  19.303  0.00  0.00    +0.000 A 
BRANCH   9  11
ATOM     11  O   UNL     1       0.006  10.630  18.448  0.00  0.00    +0.000 OA
BRANCH  11  12
ATOM     12  C   UNL     1      -1.353  10.835  18.366  0.00  0.00    +0.000 A 
ATOM     13  C   UNL     1      -2.024  11.926  18.926  0.00  0.00    +0.000 A 
ATOM     14  C   UNL     1      -3.415  12.003  18.854  0.00  0.00    +0.000 A 
ATOM     15  C   UNL     1      -4.134  11.025  18.163  0.00  0.00    +0.000 A 
ATOM     16  C   UNL     1      -3.457   9.975  17.534  0.00  0.00    +0.000 A 
ATOM     17  C   UNL     1      -2.068   9.882  17.636  0.00  0.00    +0.000 A 
BRANCH  15  18
ATOM     18  C   UNL     1      -5.560  11.100  18.100  0.00  0.00    +0.000 C 
ATOM     19  N   UNL     1      -6.721  11.156  18.046  0.00  0.00    +0.000 NA
ENDBRANCH  15  18
ENDBRANCH  11  12
ENDBRANCH   9  11
ENDBRANCH   3   5
BRANCH   1  21
ATOM     20  N   UNL     1       3.644   4.656  18.867  0.00  0.00    +0.000 N 
ATOM     21  C   UNL     1       2.931   4.394  20.009  0.00  0.00    +0.000 C 
ATOM     22  O   UNL     1       3.029   3.413  20.726  0.00  0.00    +0.000 OA
ATOM     23  H   UNL     1       3.460   5.539  18.388  0.00  0.00    +0.000 HD
BRANCH  20  24
ATOM     24  C   UNL     1       4.686   3.812  18.354  0.00  0.00    +0.000 C 
BRANCH  24  29
ATOM     25  N   UNL     1       6.598   5.046  17.172  0.00  0.00    +0.000 N 
ATOM     26  N   UNL     1       7.696   5.767  17.532  0.00  0.00    +0.000 NA
ATOM     27  C   UNL     1       7.671   5.694  18.859  0.00  0.00    +0.000 A 
ATOM     28  N   UNL     1       6.638   4.979  19.370  0.00  0.00    +0.000 NA
ATOM     29  C   UNL     1       5.954   4.593  18.300  0.00  0.00    +0.000 A 
BRANCH  25  31
ATOM     30  C   UNL     1       5.188   5.980  15.382  0.00  0.00    +0.000 C 
ATOM     31  C   UNL     1       6.301   4.961  15.731  0.00  0.00    +0.000 C 
ATOM     32  C   UNL     1       5.835   3.525  15.411  0.00  0.00    +0.000 C 
ATOM     33  C   UNL     1       7.472   5.270  14.780  0.00  0.00    +0.000 C 
ENDBRANCH  25  31
ENDBRANCH  24  29
ENDBRANCH  20  24
ENDBRANCH   1  21
TORSDOF 8
ENDMDL
MODEL 2
REMARK VINA RESULT:      -8.0      1.380      1.984
REMARK  Name = 
REMARK  11 active torsions:
REMARK  status: ('A' for Active; 'I' for Inactive)
REMARK    1  A    between atoms: C_1  and  C_2
REMARK    2  A    between atoms: C_2  and  C_3
REMARK    3  A    between atoms: C_2  and  C_4
REMARK    4  A    between atoms: C_2  and  N_5
REMARK    5  A    between atoms: C_9  and  C_10
REMARK    6  A    between atoms: C_10  and  N_11
REMARK    7  A    between atoms: C_12  and  C_14
REMARK    8  A    between atoms: N_16  and  C_17
REMARK    9  A    between atoms: C_21  and  O_22
REMARK   10  A    between atoms: O_22  and  C_23
REMARK   11  A    between atoms: C_26  and  C_27
REMARK                            x       y       z     vdW  Elec       q    Type
REMARK                         _______ _______ _______ _____ _____    ______ ____
ROOT
ATOM      1  C   UNL     1       2.030   7.482  19.146  0.00  0.00    +0.000 C 
ATOM      2  O   UNL     1       1.890   8.308  18.250  0.00  0.00    +0.000 OA
ATOM      3  N   UNL     1       1.681   7.599  20.480  0.00  0.00    +0.000 N 
ATOM      4  H   UNL     1       2.013   6.860  21.093  0.00  0.00    +0.000 HD
ENDROOT
BRANCH   3   5
ATOM      5  C   UNL     1       1.062   8.737  21.044  0.00  0.00    +0.000 A 
ATOM      6  C   UNL     1       0.780   8.836  22.411  0.00  0.00    +0.000 A 
ATOM      7  C   UNL     1       0.088   9.929  22.929  0.00  0.00    +0.000 A 
ATOM      8  C   UNL     1      -0.354  10.934  22.078  0.00  0.00    +0.000 A 
ATOM      9  C   UNL     1      -0.078  10.851  20.714  0.00  0.00    +0.000 A 
ATOM     10  C   UNL     1       0.686   9.789  20.204  0.00  0.00    +0.000 A 
BRANCH   9  11
ATOM     11  O   UNL     1      -0.574  11.880  19.942  0.00  0.00    +0.000 OA
BRANCH  11  12
ATOM     12  C   UNL     1      -1.865  11.802  19.471  0.00  0.00    +0.000 A 
ATOM     13  C   UNL     1      -2.257  11.056  18.355  0.00  0.00    +0.000 A 
ATOM     14  C   UNL     1      -3.578  11.104  17.911  0.00  0.00    +0.000 A 
ATOM     15  C   UNL     1      -4.528  11.842  18.621  0.00  0.00    +0.000 A 
ATOM     16  C   UNL     1      -4.154  12.525  19.783  0.00  0.00    +0.000 A 
ATOM     17  C   UNL     1      -2.823  12.503  20.207  0.00  0.00    +0.000 A 
BRANCH  15  18
ATOM     18  C   UNL     1      -5.879  11.899  18.158  0.00  0.00    +0.000 C 
ATOM     19  N   UNL     1      -6.977  11.940  17.778  0.00  0.00    +0.000 NA
ENDBRANCH  15  18
ENDBRANCH  11  12
ENDBRANCH   9  11
ENDBRANCH   3   5
BRANCH   1  21
ATOM     20  N   UNL     1       3.847   5.949  19.538  0.00  0.00    +0.000 N 
ATOM     21  C   UNL     1       2.731   6.165  18.771  0.00  0.00    +0.000 C 
ATOM     22  O   UNL     1       2.281   5.430  17.908  0.00  0.00    +0.000 OA
ATOM     23  H   UNL     1       4.081   6.654  20.238  0.00  0.00    +0.000 HD
BRANCH  20  24
ATOM     24  C   UNL     1       4.651   4.761  19.478  0.00  0.00    +0.000 C 
BRANCH  24  29
ATOM     25  N   UNL     1       6.492   5.251  17.761  0.00  0.00    +0.000 N 
ATOM     26  N   UNL     1       7.789   5.665  17.778  0.00  0.00    +0.000 NA
ATOM     27  C   UNL     1       8.051   5.757  19.078  0.00  0.00    +0.000 A 
ATOM     28  N   UNL     1       7.014   5.432  19.891  0.00  0.00    +0.000 NA
ATOM     29  C   UNL     1       6.029   5.135  19.052  0.00  0.00    +0.000 A 
BRANCH  25  31
ATOM     30  C   UNL     1       6.962   4.800  15.386  0.00  0.00    +0.000 C 
ATOM     31  C   UNL     1       5.863   5.088  16.439  0.00  0.00    +0.000 C 
ATOM     32  C   UNL     1       5.111   6.390  16.090  0.00  0.00    +0.000 C 
ATOM     33  C   UNL     1       4.844   3.940  16.313  0.00  0.00    +0.000 C 
ENDBRANCH  25  31
ENDBRANCH  24  29
ENDBRANCH  20  24
ENDBRANCH   1  21
TORSDOF 8
ENDMDL
MODEL 3
REMARK VINA RESULT:      -8.0      2.388      9.870
REMARK  Name = 
REMARK  11 active torsions:
REMARK  status: ('A' for Active; 'I' for Inactive)
REMARK    1  A    between atoms: C_1  and  C_2
REMARK    2  A    between atoms: C_2  and  C_3
REMARK    3  A    between atoms: C_2  and  C_4
REMARK    4  A    between atoms: C_2  and  N_5
REMARK    5  A    between atoms: C_9  and  C_10
REMARK    6  A    between atoms: C_10  and  N_11
REMARK    7  A    between atoms: C_12  and  C_14
REMARK    8  A    between atoms: N_16  and  C_17
REMARK    9  A    between atoms: C_21  and  O_22
REMARK   10  A    between atoms: O_22  and  C_23
REMARK   11  A    between atoms: C_26  and  C_27
REMARK                            x       y       z     vdW  Elec       q    Type
REMARK                         _______ _______ _______ _____ _____    ______ ____
ROOT
ATOM      1  C   UNL     1       1.825   7.863  19.820  0.00  0.00    +0.000 C 
ATOM      2  O   UNL     1       2.403   7.880  18.738  0.00  0.00    +0.000 OA
ATOM      3  N   UNL     1       1.576   6.776  20.639  0.00  0.00    +0.000 N 
ATOM      4  H   UNL     1       0.953   6.945  21.425  0.00  0.00    +0.000 HD
ENDROOT
BRANCH   3   5
ATOM      5  C   UNL     1       1.983   5.453  20.354  0.00  0.00    +0.000 A 
ATOM      6  C   UNL     1       1.142   4.352  20.547  0.00  0.00    +0.000 A 
ATOM      7  C   UNL     1       1.596   3.050  20.344  0.00  0.00    +0.000 A 
ATOM      8  C   UNL     1       2.914   2.830  19.964  0.00  0.00    +0.000 A 
ATOM      9  C   UNL     1       3.764   3.917  19.763  0.00  0.00    +0.000 A 
ATOM     10  C   UNL     1       3.284   5.230  19.894  0.00  0.00    +0.000 A 
BRANCH   9  11
ATOM     11  O   UNL     1       5.059   3.604  19.410  0.00  0.00    +0.000 OA
BRANCH  11  12
ATOM     12  C   UNL     1       5.526   3.982  18.172  0.00  0.00    +0.000 A 
ATOM     13  C   UNL     1       4.895   3.679  16.962  0.00  0.00    +0.000 A 
ATOM     14  C   UNL     1       5.490   4.041  15.753  0.00  0.00    +0.000 A 
ATOM     15  C   UNL     1       6.682   4.769  15.752  0.00  0.00    +0.000 A 
ATOM     16  C   UNL     1       7.273   5.142  16.963  0.00  0.00    +0.000 A 
ATOM     17  C   UNL     1       6.694   4.749  18.171  0.00  0.00    +0.000 A 
BRANCH  15  18
ATOM     18  C   UNL     1       7.295   5.129  14.512  0.00  0.00    +0.000 C 
ATOM     19  N   UNL     1       7.799   5.417  13.504  0.00  0.00    +0.000 NA
ENDBRANCH  15  18
ENDBRANCH  11  12
ENDBRANCH   9  11
ENDBRANCH   3   5
BRANCH   1  21
ATOM     20  N   UNL     1       1.079  10.092  19.293  0.00  0.00    +0.000 N 
ATOM     21  C   UNL     1       1.248   9.198  20.319  0.00  0.00    +0.000 C 
ATOM     22  O   UNL     1       0.966   9.368  21.494  0.00  0.00    +0.000 OA
ATOM     23  H   UNL     1       1.345   9.789  18.355  0.00  0.00    +0.000 HD
BRANCH  20  24
ATOM     24  C   UNL     1       0.476  11.386  19.440  0.00  0.00    +0.000 C 
BRANCH  24  29
ATOM     25  N   UNL     1      -2.029  11.932  19.526  0.00  0.00    +0.000 N 
ATOM     26  N   UNL     1      -3.133  11.677  18.771  0.00  0.00    +0.000 NA
ATOM     27  C   UNL     1      -2.653  10.903  17.802  0.00  0.00    +0.000 A 
ATOM     28  N   UNL     1      -1.323  10.647  17.885  0.00  0.00    +0.000 NA
ATOM     29  C   UNL     1      -0.934  11.317  18.962  0.00  0.00    +0.000 A 
BRANCH  25  31
ATOM     30  C   UNL     1      -1.720  12.090  21.964  0.00  0.00    +0.000 C 
ATOM     31  C   UNL     1      -2.207  12.820  20.688  0.00  0.00    +0.000 C 
ATOM     32  C   UNL     1      -3.705  13.173  20.809  0.00  0.00    +0.000 C 
ATOM     33  C   UNL     1      -1.439  14.154  20.642  0.00  0.00    +0.000 C 
ENDBRANCH  25  31
ENDBRANCH  24  29
ENDBRANCH  20  24
ENDBRANCH   1  21
TORSDOF 8
ENDMDL
MODEL 4
REMARK VINA RESULT:      -8.0      2.796      3.694
REMARK  Name = 
REMARK  11 active torsions:
REMARK  status: ('A' for Active; 'I' for Inactive)
REMARK    1  A    between atoms: C_1  and  C_2
REMARK    2  A    between atoms: C_2  and  C_3
REMARK    3  A    between atoms: C_2  and  C_4
REMARK    4  A    between atoms: C_2  and  N_5
REMARK    5  A    between atoms: C_9  and  C_10
REMARK    6  A    between atoms: C_10  and  N_11
REMARK    7  A    between atoms: C_12  and  C_14
REMARK    8  A    between atoms: N_16  and  C_17
REMARK    9  A    between atoms: C_21  and  O_22
REMARK   10  A    between atoms: O_22  and  C_23
REMARK   11  A    between atoms: C_26  and  C_27
REMARK                            x       y       z     vdW  Elec       q    Type
REMARK                         _______ _______ _______ _____ _____    ______ ____
ROOT
ATOM      1  C   UNL     1       1.827   5.732  20.192  0.00  0.00    +0.000 C 
ATOM      2  O   UNL     1       0.753   5.383  20.673  0.00  0.00    +0.000 OA
ATOM      3  N   UNL     1       2.308   7.018  20.021  0.00  0.00    +0.000 N 
ATOM      4  H   UNL     1       3.158   7.104  19.469  0.00  0.00    +0.000 HD
ENDROOT
BRANCH   3   5
ATOM      5  C   UNL     1       1.615   8.186  20.407  0.00  0.00    +0.000 A 
ATOM      6  C   UNL     1       1.209   8.415  21.727  0.00  0.00    +0.000 A 
ATOM      7  C   UNL     1       0.447   9.532  22.065  0.00  0.00    +0.000 A 
ATOM      8  C   UNL     1       0.060  10.430  21.078  0.00  0.00    +0.000 A 
ATOM      9  C   UNL     1       0.460  10.218  19.759  0.00  0.00    +0.000 A 
ATOM     10  C   UNL     1       1.291   9.134  19.432  0.00  0.00    +0.000 A 
BRANCH   9  11
ATOM     11  O   UNL     1       0.011  11.145  18.844  0.00  0.00    +0.000 OA
BRANCH  11  12
ATOM     12  C   UNL     1       0.651  12.361  18.752  0.00  0.00    +0.000 A 
ATOM     13  C   UNL     1       2.010  12.521  18.467  0.00  0.00    +0.000 A 
ATOM     14  C   UNL     1       2.580  13.794  18.473  0.00  0.00    +0.000 A 
ATOM     15  C   UNL     1       1.780  14.917  18.694  0.00  0.00    +0.000 A 
ATOM     16  C   UNL     1       0.405  14.764  18.901  0.00  0.00    +0.000 A 
ATOM     17  C   UNL     1      -0.157  13.486  18.929  0.00  0.00    +0.000 A 
BRANCH  15  18
ATOM     18  C   UNL     1       2.369  16.219  18.711  0.00  0.00    +0.000 C 
ATOM     19  N   UNL     1       2.844  17.280  18.729  0.00  0.00    +0.000 NA
ENDBRANCH  15  18
ENDBRANCH  11  12
ENDBRANCH   9  11
ENDBRANCH   3   5
BRANCH   1  21
ATOM     20  N   UNL     1       4.060   4.996  19.668  0.00  0.00    +0.000 N 
ATOM     21  C   UNL     1       2.742   4.618  19.657  0.00  0.00    +0.000 C 
ATOM     22  O   UNL     1       2.292   3.539  19.309  0.00  0.00    +0.000 OA
ATOM     23  H   UNL     1       4.279   5.933  20.011  0.00  0.00    +0.000 HD
BRANCH  20  24
ATOM     24  C   UNL     1       5.151   4.134  19.311  0.00  0.00    +0.000 C 
BRANCH  24  29
ATOM     25  N   UNL     1       6.573   5.392  17.587  0.00  0.00    +0.000 N 
ATOM     26  N   UNL     1       7.679   6.185  17.592  0.00  0.00    +0.000 NA
ATOM     27  C   UNL     1       8.033   6.186  18.873  0.00  0.00    +0.000 A 
ATOM     28  N   UNL     1       7.232   5.451  19.685  0.00  0.00    +0.000 NA
ATOM     29  C   UNL     1       6.301   4.971  18.869  0.00  0.00    +0.000 A 
BRANCH  25  31
ATOM     30  C   UNL     1       6.947   4.951  15.192  0.00  0.00    +0.000 C 
ATOM     31  C   UNL     1       5.888   5.211  16.294  0.00  0.00    +0.000 C 
ATOM     32  C   UNL     1       5.089   6.494  15.980  0.00  0.00    +0.000 C 
ATOM     33  C   UNL     1       4.895   4.038  16.214  0.00  0.00    +0.000 C 
ENDBRANCH  25  31
ENDBRANCH  24  29
ENDBRANCH  20  24
ENDBRANCH   1  21
TORSDOF 8
ENDMDL
MODEL 5
REMARK VINA RESULT:      -7.8      2.638      9.810
REMARK  Name = 
REMARK  11 active torsions:
REMARK  status: ('A' for Active; 'I' for Inactive)
REMARK    1  A    between atoms: C_1  and  C_2
REMARK    2  A    between atoms: C_2  and  C_3
REMARK    3  A    between atoms: C_2  and  C_4
REMARK    4  A    between atoms: C_2  and  N_5
REMARK    5  A    between atoms: C_9  and  C_10
REMARK    6  A    between atoms: C_10  and  N_11
REMARK    7  A    between atoms: C_12  and  C_14
REMARK    8  A    between atoms: N_16  and  C_17
REMARK    9  A    between atoms: C_21  and  O_22
REMARK   10  A    between atoms: O_22  and  C_23
REMARK   11  A    between atoms: C_26  and  C_27
REMARK                            x       y       z     vdW  Elec       q    Type
REMARK                         _______ _______ _______ _____ _____    ______ ____
ROOT
ATOM      1  C   UNL     1       2.096   8.303  18.550  0.00  0.00    +0.000 C 
ATOM      2  O   UNL     1       2.293   7.848  17.428  0.00  0.00    +0.000 OA
ATOM      3  N   UNL     1       2.073   7.623  19.756  0.00  0.00    +0.000 N 
ATOM      4  H   UNL     1       1.747   8.155  20.559  0.00  0.00    +0.000 HD
ENDROOT
BRANCH   3   5
ATOM      5  C   UNL     1       2.301   6.236  19.893  0.00  0.00    +0.000 A 
ATOM      6  C   UNL     1       1.367   5.378  20.485  0.00  0.00    +0.000 A 
ATOM      7  C   UNL     1       1.652   4.030  20.691  0.00  0.00    +0.000 A 
ATOM      8  C   UNL     1       2.892   3.522  20.323  0.00  0.00    +0.000 A 
ATOM      9  C   UNL     1       3.831   4.363  19.728  0.00  0.00    +0.000 A 
ATOM     10  C   UNL     1       3.515   5.703  19.452  0.00  0.00    +0.000 A 
BRANCH   9  11
ATOM     11  O   UNL     1       5.041   3.780  19.417  0.00  0.00    +0.000 OA
BRANCH  11  12
ATOM     12  C   UNL     1       5.634   4.069  18.209  0.00  0.00    +0.000 A 
ATOM     13  C   UNL     1       6.894   4.658  18.066  0.00  0.00    +0.000 A 
ATOM     14  C   UNL     1       7.375   4.982  16.797  0.00  0.00    +0.000 A 
ATOM     15  C   UNL     1       6.629   4.654  15.663  0.00  0.00    +0.000 A 
ATOM     16  C   UNL     1       5.404   3.993  15.800  0.00  0.00    +0.000 A 
ATOM     17  C   UNL     1       4.909   3.701  17.073  0.00  0.00    +0.000 A 
BRANCH  15  18
ATOM     18  C   UNL     1       7.118   4.997  14.365  0.00  0.00    +0.000 C 
ATOM     19  N   UNL     1       7.516   5.282  13.310  0.00  0.00    +0.000 NA
ENDBRANCH  15  18
ENDBRANCH  11  12
ENDBRANCH   9  11
ENDBRANCH   3   5
BRANCH   1  21
ATOM     20  N   UNL     1       1.016  10.093  19.747  0.00  0.00    +0.000 N 
ATOM     21  C   UNL     1       1.778   9.805  18.644  0.00  0.00    +0.000 C 
ATOM     22  O   UNL     1       2.209  10.597  17.823  0.00  0.00    +0.000 OA
ATOM     23  H   UNL     1       0.752   9.315  20.354  0.00  0.00    +0.000 HD
BRANCH  20  24
ATOM     24  C   UNL     1       0.640  11.420  20.145  0.00  0.00    +0.000 C 
BRANCH  24  29
ATOM     25  N   UNL     1      -1.467  11.945  21.510  0.00  0.00    +0.000 N 
ATOM     26  N   UNL     1      -1.998  11.578  22.708  0.00  0.00    +0.000 NA
ATOM     27  C   UNL     1      -1.062  10.779  23.211  0.00  0.00    +0.000 A 
ATOM     28  N   UNL     1       0.026  10.609  22.419  0.00  0.00    +0.000 NA
ATOM     29  C   UNL     1      -0.247  11.331  21.339  0.00  0.00    +0.000 A 
BRANCH  25  31
ATOM     30  C   UNL     1      -2.597  12.089  19.326  0.00  0.00    +0.000 C 
ATOM     31  C   UNL     1      -2.290  12.821  20.657  0.00  0.00    +0.000 C 
ATOM     32  C   UNL     1      -1.503  14.121  20.387  0.00  0.00    +0.000 C 
ATOM     33  C   UNL     1      -3.654  13.239  21.236  0.00  0.00    +0.000 C 
ENDBRANCH  25  31
ENDBRANCH  24  29
ENDBRANCH  20  24
ENDBRANCH   1  21
TORSDOF 8
ENDMDL
MODEL 6
REMARK VINA RESULT:      -7.7      2.881      3.837
REMARK  Name = 
REMARK  11 active torsions:
REMARK  status: ('A' for Active; 'I' for Inactive)
REMARK    1  A    between atoms: C_1  and  C_2
REMARK    2  A    between atoms: C_2  and  C_3
REMARK    3  A    between atoms: C_2  and  C_4
REMARK    4  A    between atoms: C_2  and  N_5
REMARK    5  A    between atoms: C_9  and  C_10
REMARK    6  A    between atoms: C_10  and  N_11
REMARK    7  A    between atoms: C_12  and  C_14
REMARK    8  A    between atoms: N_16  and  C_17
REMARK    9  A    between atoms: C_21  and  O_22
REMARK   10  A    between atoms: O_22  and  C_23
REMARK   11  A    between atoms: C_26  and  C_27
REMARK                            x       y       z     vdW  Elec       q    Type
REMARK                         _______ _______ _______ _____ _____    ______ ____
ROOT
ATOM      1  C   UNL     1       2.039   7.041  20.045  0.00  0.00    +0.000 C 
ATOM      2  O   UNL     1       2.196   7.684  19.012  0.00  0.00    +0.000 OA
ATOM      3  N   UNL     1       1.394   7.430  21.205  0.00  0.00    +0.000 N 
ATOM      4  H   UNL     1       1.499   6.808  22.003  0.00  0.00    +0.000 HD
ENDROOT
BRANCH   3   5
ATOM      5  C   UNL     1       0.768   8.683  21.386  0.00  0.00    +0.000 A 
ATOM      6  C   UNL     1       0.308   9.118  22.635  0.00  0.00    +0.000 A 
ATOM      7  C   UNL     1      -0.387  10.318  22.772  0.00  0.00    +0.000 A 
ATOM      8  C   UNL     1      -0.653  11.095  21.651  0.00  0.00    +0.000 A 
ATOM      9  C   UNL     1      -0.198  10.677  20.401  0.00  0.00    +0.000 A 
ATOM     10  C   UNL     1       0.568   9.507  20.275  0.00  0.00    +0.000 A 
BRANCH   9  11
ATOM     11  O   UNL     1      -0.526  11.497  19.343  0.00  0.00    +0.000 OA
BRANCH  11  12
ATOM     12  C   UNL     1       0.282  12.572  19.051  0.00  0.00    +0.000 A 
ATOM     13  C   UNL     1       1.560  12.474  18.492  0.00  0.00    +0.000 A 
ATOM     14  C   UNL     1       2.332  13.620  18.305  0.00  0.00    +0.000 A 
ATOM     15  C   UNL     1       1.803  14.876  18.613  0.00  0.00    +0.000 A 
ATOM     16  C   UNL     1       0.496  14.983  19.098  0.00  0.00    +0.000 A 
ATOM     17  C   UNL     1      -0.263  13.831  19.316  0.00  0.00    +0.000 A 
BRANCH  15  18
ATOM     18  C   UNL     1       2.601  16.048  18.431  0.00  0.00    +0.000 C 
ATOM     19  N   UNL     1       3.248  17.002  18.278  0.00  0.00    +0.000 NA
ENDBRANCH  15  18
ENDBRANCH  11  12
ENDBRANCH   9  11
ENDBRANCH   3   5
BRANCH   1  21
ATOM     20  N   UNL     1       3.645   5.495  19.131  0.00  0.00    +0.000 N 
ATOM     21  C   UNL     1       2.683   5.645  20.096  0.00  0.00    +0.000 C 
ATOM     22  O   UNL     1       2.355   4.825  20.938  0.00  0.00    +0.000 OA
ATOM     23  H   UNL     1       3.819   6.288  18.511  0.00  0.00    +0.000 HD
BRANCH  20  24
ATOM     24  C   UNL     1       4.478   4.334  18.993  0.00  0.00    +0.000 C 
BRANCH  24  29
ATOM     25  N   UNL     1       6.437   5.083  17.517  0.00  0.00    +0.000 N 
ATOM     26  N   UNL     1       7.722   5.496  17.697  0.00  0.00    +0.000 NA
ATOM     27  C   UNL     1       7.881   5.394  19.013  0.00  0.00    +0.000 A 
ATOM     28  N   UNL     1       6.791   4.947  19.685  0.00  0.00    +0.000 NA
ATOM     29  C   UNL     1       5.878   4.774  18.736  0.00  0.00    +0.000 A 
BRANCH  25  31
ATOM     30  C   UNL     1       7.088   4.935  15.147  0.00  0.00    +0.000 C 
ATOM     31  C   UNL     1       5.914   5.116  16.140  0.00  0.00    +0.000 C 
ATOM     32  C   UNL     1       5.220   6.476  15.912  0.00  0.00    +0.000 C 
ATOM     33  C   UNL     1       4.884   4.028  15.783  0.00  0.00    +0.000 C 
ENDBRANCH  25  31
ENDBRANCH  24  29
ENDBRANCH  20  24
ENDBRANCH   1  21
TORSDOF 8
ENDMDL
MODEL 7
REMARK VINA RESULT:      -7.7      2.621      9.955
REMARK  Name = 
REMARK  11 active torsions:
REMARK  status: ('A' for Active; 'I' for Inactive)
REMARK    1  A    between atoms: C_1  and  C_2
REMARK    2  A    between atoms: C_2  and  C_3
REMARK    3  A    between atoms: C_2  and  C_4
REMARK    4  A    between atoms: C_2  and  N_5
REMARK    5  A    between atoms: C_9  and  C_10
REMARK    6  A    between atoms: C_10  and  N_11
REMARK    7  A    between atoms: C_12  and  C_14
REMARK    8  A    between atoms: N_16  and  C_17
REMARK    9  A    between atoms: C_21  and  O_22
REMARK   10  A    between atoms: O_22  and  C_23
REMARK   11  A    between atoms: C_26  and  C_27
REMARK                            x       y       z     vdW  Elec       q    Type
REMARK                         _______ _______ _______ _____ _____    ______ ____
ROOT
ATOM      1  C   UNL     1       1.543   7.953  20.028  0.00  0.00    +0.000 C 
ATOM      2  O   UNL     1       1.859   8.092  18.851  0.00  0.00    +0.000 OA
ATOM      3  N   UNL     1       1.574   6.798  20.790  0.00  0.00    +0.000 N 
ATOM      4  H   UNL     1       1.132   6.858  21.705  0.00  0.00    +0.000 HD
ENDROOT
BRANCH   3   5
ATOM      5  C   UNL     1       2.012   5.542  20.316  0.00  0.00    +0.000 A 
ATOM      6  C   UNL     1       1.149   4.447  20.189  0.00  0.00    +0.000 A 
ATOM      7  C   UNL     1       1.623   3.194  19.805  0.00  0.00    +0.000 A 
ATOM      8  C   UNL     1       2.979   3.012  19.562  0.00  0.00    +0.000 A 
ATOM      9  C   UNL     1       3.850   4.094  19.681  0.00  0.00    +0.000 A 
ATOM     10  C   UNL     1       3.360   5.373  19.993  0.00  0.00    +0.000 A 
BRANCH   9  11
ATOM     11  O   UNL     1       5.179   3.818  19.445  0.00  0.00    +0.000 OA
BRANCH  11  12
ATOM     12  C   UNL     1       5.708   4.081  18.201  0.00  0.00    +0.000 A 
ATOM     13  C   UNL     1       7.034   4.459  17.969  0.00  0.00    +0.000 A 
ATOM     14  C   UNL     1       7.454   4.779  16.678  0.00  0.00    +0.000 A 
ATOM     15  C   UNL     1       6.569   4.655  15.605  0.00  0.00    +0.000 A 
ATOM     16  C   UNL     1       5.265   4.200  15.825  0.00  0.00    +0.000 A 
ATOM     17  C   UNL     1       4.837   3.913  17.123  0.00  0.00    +0.000 A 
BRANCH  15  18
ATOM     18  C   UNL     1       6.998   4.995  14.284  0.00  0.00    +0.000 C 
ATOM     19  N   UNL     1       7.348   5.265  13.208  0.00  0.00    +0.000 NA
ENDBRANCH  15  18
ENDBRANCH  11  12
ENDBRANCH   9  11
ENDBRANCH   3   5
BRANCH   1  21
ATOM     20  N   UNL     1       1.147  10.329  19.997  0.00  0.00    +0.000 N 
ATOM     21  C   UNL     1       0.988   9.193  20.748  0.00  0.00    +0.000 C 
ATOM     22  O   UNL     1       0.453   9.106  21.841  0.00  0.00    +0.000 OA
ATOM     23  H   UNL     1       1.599  10.232  19.086  0.00  0.00    +0.000 HD
BRANCH  20  24
ATOM     24  C   UNL     1       0.646  11.622  20.369  0.00  0.00    +0.000 C 
BRANCH  24  29
ATOM     25  N   UNL     1      -1.859  12.142  20.556  0.00  0.00    +0.000 N 
ATOM     26  N   UNL     1      -2.928  12.218  19.718  0.00  0.00    +0.000 NA
ATOM     27  C   UNL     1      -2.408  11.865  18.546  0.00  0.00    +0.000 A 
ATOM     28  N   UNL     1      -1.084  11.571  18.578  0.00  0.00    +0.000 NA
ATOM     29  C   UNL     1      -0.741  11.769  19.845  0.00  0.00    +0.000 A 
BRANCH  25  31
ATOM     30  C   UNL     1      -3.606  12.711  22.196  0.00  0.00    +0.000 C 
ATOM     31  C   UNL     1      -2.086  12.520  21.962  0.00  0.00    +0.000 C 
ATOM     32  C   UNL     1      -1.329  13.836  22.244  0.00  0.00    +0.000 C 
ATOM     33  C   UNL     1      -1.618  11.504  23.020  0.00  0.00    +0.000 C 
ENDBRANCH  25  31
ENDBRANCH  24  29
ENDBRANCH  20  24
ENDBRANCH   1  21
TORSDOF 8
ENDMDL
MODEL 8
REMARK VINA RESULT:      -7.7      3.262      9.891
REMARK  Name = 
REMARK  11 active torsions:
REMARK  status: ('A' for Active; 'I' for Inactive)
REMARK    1  A    between atoms: C_1  and  C_2
REMARK    2  A    between atoms: C_2  and  C_3
REMARK    3  A    between atoms: C_2  and  C_4
REMARK    4  A    between atoms: C_2  and  N_5
REMARK    5  A    between atoms: C_9  and  C_10
REMARK    6  A    between atoms: C_10  and  N_11
REMARK    7  A    between atoms: C_12  and  C_14
REMARK    8  A    between atoms: N_16  and  C_17
REMARK    9  A    between atoms: C_21  and  O_22
REMARK   10  A    between atoms: O_22  and  C_23
REMARK   11  A    between atoms: C_26  and  C_27
REMARK                            x       y       z     vdW  Elec       q    Type
REMARK                         _______ _______ _______ _____ _____    ______ ____
ROOT
ATOM      1  C   UNL     1       1.865   8.472  18.598  0.00  0.00    +0.000 C 
ATOM      2  O   UNL     1       1.735   7.985  17.479  0.00  0.00    +0.000 OA
ATOM      3  N   UNL     1       2.096   7.815  19.794  0.00  0.00    +0.000 N 
ATOM      4  H   UNL     1       2.026   8.385  20.634  0.00  0.00    +0.000 HD
ENDROOT
BRANCH   3   5
ATOM      5  C   UNL     1       2.242   6.416  19.919  0.00  0.00    +0.000 A 
ATOM      6  C   UNL     1       1.331   5.628  20.633  0.00  0.00    +0.000 A 
ATOM      7  C   UNL     1       1.545   4.264  20.819  0.00  0.00    +0.000 A 
ATOM      8  C   UNL     1       2.692   3.669  20.308  0.00  0.00    +0.000 A 
ATOM      9  C   UNL     1       3.607   4.439  19.592  0.00  0.00    +0.000 A 
ATOM     10  C   UNL     1       3.352   5.797  19.340  0.00  0.00    +0.000 A 
BRANCH   9  11
ATOM     11  O   UNL     1       4.726   3.772  19.143  0.00  0.00    +0.000 OA
BRANCH  11  12
ATOM     12  C   UNL     1       5.287   4.136  17.940  0.00  0.00    +0.000 A 
ATOM     13  C   UNL     1       4.647   4.024  16.702  0.00  0.00    +0.000 A 
ATOM     14  C   UNL     1       5.330   4.349  15.530  0.00  0.00    +0.000 A 
ATOM     15  C   UNL     1       6.631   4.853  15.597  0.00  0.00    +0.000 A 
ATOM     16  C   UNL     1       7.244   5.042  16.840  0.00  0.00    +0.000 A 
ATOM     17  C   UNL     1       6.570   4.683  18.009  0.00  0.00    +0.000 A 
BRANCH  15  18
ATOM     18  C   UNL     1       7.333   5.175  14.394  0.00  0.00    +0.000 C 
ATOM     19  N   UNL     1       7.908   5.432  13.416  0.00  0.00    +0.000 NA
ENDBRANCH  15  18
ENDBRANCH  11  12
ENDBRANCH   9  11
ENDBRANCH   3   5
BRANCH   1  21
ATOM     20  N   UNL     1       0.864  10.337  19.746  0.00  0.00    +0.000 N 
ATOM     21  C   UNL     1       1.700   9.996  18.714  0.00  0.00    +0.000 C 
ATOM     22  O   UNL     1       2.292  10.758  17.967  0.00  0.00    +0.000 OA
ATOM     23  H   UNL     1       0.460   9.578  20.296  0.00  0.00    +0.000 HD
BRANCH  20  24
ATOM     24  C   UNL     1       0.592  11.687  20.153  0.00  0.00    +0.000 C 
BRANCH  24  29
ATOM     25  N   UNL     1      -0.530  12.743  22.204  0.00  0.00    +0.000 N 
ATOM     26  N   UNL     1      -1.243  12.317  23.282  0.00  0.00    +0.000 NA
ATOM     27  C   UNL     1      -1.243  10.997  23.130  0.00  0.00    +0.000 A 
ATOM     28  N   UNL     1      -0.582  10.550  22.032  0.00  0.00    +0.000 NA
ATOM     29  C   UNL     1      -0.154  11.660  21.443  0.00  0.00    +0.000 A 
BRANCH  25  31
ATOM     30  C   UNL     1      -0.890  14.910  23.318  0.00  0.00    +0.000 C 
ATOM     31  C   UNL     1      -0.373  14.200  22.042  0.00  0.00    +0.000 C 
ATOM     32  C   UNL     1      -1.189  14.645  20.809  0.00  0.00    +0.000 C 
ATOM     33  C   UNL     1       1.065  14.705  21.828  0.00  0.00    +0.000 C 
ENDBRANCH  25  31
ENDBRANCH  24  29
ENDBRANCH  20  24
ENDBRANCH   1  21
TORSDOF 8
ENDMDL
MODEL 9
REMARK VINA RESULT:      -7.7      1.345      2.236
REMARK  Name = 
REMARK  11 active torsions:
REMARK  status: ('A' for Active; 'I' for Inactive)
REMARK    1  A    between atoms: C_1  and  C_2
REMARK    2  A    between atoms: C_2  and  C_3
REMARK    3  A    between atoms: C_2  and  C_4
REMARK    4  A    between atoms: C_2  and  N_5
REMARK    5  A    between atoms: C_9  and  C_10
REMARK    6  A    between atoms: C_10  and  N_11
REMARK    7  A    between atoms: C_12  and  C_14
REMARK    8  A    between atoms: N_16  and  C_17
REMARK    9  A    between atoms: C_21  and  O_22
REMARK   10  A    between atoms: O_22  and  C_23
REMARK   11  A    between atoms: C_26  and  C_27
REMARK                            x       y       z     vdW  Elec       q    Type
REMARK                         _______ _______ _______ _____ _____    ______ ____
ROOT
ATOM      1  C   UNL     1       2.403   5.090  19.110  0.00  0.00    +0.000 C 
ATOM      2  O   UNL     1       1.281   4.847  18.677  0.00  0.00    +0.000 OA
ATOM      3  N   UNL     1       2.840   6.232  19.758  0.00  0.00    +0.000 N 
ATOM      4  H   UNL     1       3.844   6.301  19.908  0.00  0.00    +0.000 HD
ENDROOT
BRANCH   3   5
ATOM      5  C   UNL     1       2.020   7.344  20.053  0.00  0.00    +0.000 A 
ATOM      6  C   UNL     1       1.354   7.479  21.277  0.00  0.00    +0.000 A 
ATOM      7  C   UNL     1       0.479   8.539  21.510  0.00  0.00    +0.000 A 
ATOM      8  C   UNL     1       0.242   9.473  20.509  0.00  0.00    +0.000 A 
ATOM      9  C   UNL     1       0.902   9.354  19.286  0.00  0.00    +0.000 A 
ATOM     10  C   UNL     1       1.840   8.330  19.079  0.00  0.00    +0.000 A 
BRANCH   9  11
ATOM     11  O   UNL     1       0.588  10.310  18.344  0.00  0.00    +0.000 OA
BRANCH  11  12
ATOM     12  C   UNL     1      -0.735  10.581  18.079  0.00  0.00    +0.000 A 
ATOM     13  C   UNL     1      -1.555   9.800  17.260  0.00  0.00    +0.000 A 
ATOM     14  C   UNL     1      -2.863  10.203  16.991  0.00  0.00    +0.000 A 
ATOM     15  C   UNL     1      -3.378  11.351  17.596  0.00  0.00    +0.000 A 
ATOM     16  C   UNL     1      -2.584  12.091  18.479  0.00  0.00    +0.000 A 
ATOM     17  C   UNL     1      -1.264  11.705  18.719  0.00  0.00    +0.000 A 
BRANCH  15  18
ATOM     18  C   UNL     1      -4.715  11.768  17.310  0.00  0.00    +0.000 C 
ATOM     19  N   UNL     1      -5.801  12.114  17.077  0.00  0.00    +0.000 NA
ENDBRANCH  15  18
ENDBRANCH  11  12
ENDBRANCH   9  11
ENDBRANCH   3   5
BRANCH   1  21
ATOM     20  N   UNL     1       4.001   4.116  17.593  0.00  0.00    +0.000 N 
ATOM     21  C   UNL     1       3.487   4.028  18.861  0.00  0.00    +0.000 C 
ATOM     22  O   UNL     1       3.827   3.251  19.738  0.00  0.00    +0.000 OA
ATOM     23  H   UNL     1       3.622   4.840  16.980  0.00  0.00    +0.000 HD
BRANCH  20  24
ATOM     24  C   UNL     1       5.088   3.316  17.105  0.00  0.00    +0.000 C 
BRANCH  24  29
ATOM     25  N   UNL     1       6.452   5.350  16.343  0.00  0.00    +0.000 N 
ATOM     26  N   UNL     1       7.134   5.735  15.229  0.00  0.00    +0.000 NA
ATOM     27  C   UNL     1       6.915   4.729  14.389  0.00  0.00    +0.000 A 
ATOM     28  N   UNL     1       6.144   3.730  14.887  0.00  0.00    +0.000 NA
ATOM     29  C   UNL     1       5.875   4.119  16.127  0.00  0.00    +0.000 A 
BRANCH  25  31
ATOM     30  C   UNL     1       5.196   7.030  17.633  0.00  0.00    +0.000 C 
ATOM     31  C   UNL     1       6.526   6.245  17.512  0.00  0.00    +0.000 C 
ATOM     32  C   UNL     1       7.708   7.217  17.310  0.00  0.00    +0.000 C 
ATOM     33  C   UNL     1       6.740   5.561  18.874  0.00  0.00    +0.000 C 
ENDBRANCH  25  31
ENDBRANCH  24  29
ENDBRANCH  20  24
ENDBRANCH   1  21
TORSDOF 8
ENDMDL
