MODEL 1
REMARK VINA RESULT:      -6.1      0.000      0.000
REMARK  Name = 
REMARK  6 active torsions:
REMARK  status: ('A' for Active; 'I' for Inactive)
REMARK    1  A    between atoms: C_1  and  C_2
REMARK    2  A    between atoms: C_2  and  S_4
REMARK    3  A    between atoms: S_4  and  C_5
REMARK    4  A    between atoms: C_5  and  C_6
REMARK    5  A    between atoms: N_10  and  C_11
REMARK    6  A    between atoms: C_11  and  C_12
REMARK                            x       y       z     vdW  Elec       q    Type
REMARK                         _______ _______ _______ _____ _____    ______ ____
ROOT
ATOM      1  C   UNL     1       3.621   4.622  18.620  0.00  0.00    +0.000 C 
ATOM      2  C   UNL     1       2.746   5.624  17.866  0.00  0.00    +0.000 C 
ATOM      3  C   UNL     1       3.396   6.990  17.842  0.00  0.00    +0.000 C 
ATOM      4  C   UNL     1       4.719   6.901  17.099  0.00  0.00    +0.000 C 
ATOM      5  N   UNL     1       5.561   5.774  17.500  0.00  0.00    +0.000 N 
ATOM      6  C   UNL     1       5.118   4.790  18.363  0.00  0.00    +0.000 C 
ATOM      7  O   UNL     1       5.912   4.004  18.887  0.00  0.00    +0.000 OA
ENDROOT
BRANCH   1   8
ATOM      8  C   UNL     1       3.454   4.638  20.149  0.00  0.00    +0.000 C 
BRANCH   8   9
ATOM      9  S   UNL     1       1.745   4.898  20.731  0.00  0.00    +0.000 S 
BRANCH   9  11
ATOM     10  C   UNL     1       0.772   2.564  19.640  0.00  0.00    +0.000 C 
ATOM     11  C   UNL     1       1.292   3.199  20.895  0.00  0.00    +0.000 C 
ATOM     12  O   UNL     1       1.396   2.604  21.960  0.00  0.00    +0.000 OA
ENDBRANCH   9  11
ENDBRANCH   8   9
ENDBRANCH   1   8
BRANCH   5  13
ATOM     13  C   UNL     1       7.013   5.978  17.332  0.00  0.00    +0.000 C 
BRANCH  13  14
ATOM     14  C   UNL     1       7.865   6.706  18.392  0.00  0.00    +0.000 C 
ATOM     15  N   UNL     1       8.218   6.038  19.525  0.00  0.00    +0.000 N 
ATOM     16  O   UNL     1       8.192   7.886  18.258  0.00  0.00    +0.000 OA
ATOM     17  H   UNL     1       7.533   5.367  19.867  0.00  0.00    +0.000 HD
ATOM     18  H   UNL     1       8.612   6.630  20.244  0.00  0.00    +0.000 HD
ENDBRANCH  13  14
ENDBRANCH   5  13
TORSDOF 5
ENDMDL
MODEL 2
REMARK VINA RESULT:      -6.0      1.797      2.285
REMARK  Name = 
REMARK  6 active torsions:
REMARK  status: ('A' for Active; 'I' for Inactive)
REMARK    1  A    between atoms: C_1  and  C_2
REMARK    2  A    between atoms: C_2  and  S_4
REMARK    3  A    between atoms: S_4  and  C_5
REMARK    4  A    between atoms: C_5  and  C_6
REMARK    5  A    between atoms: N_10  and  C_11
REMARK    6  A    between atoms: C_11  and  C_12
REMARK                            x       y       z     vdW  Elec       q    Type
REMARK                         _______ _______ _______ _____ _____    ______ ____
ROOT
ATOM      1  C   UNL     1       3.256   2.153  18.350  0.00  0.00    +0.000 C 
ATOM      2  C   UNL     1       2.587   2.863  17.172  0.00  0.00    +0.000 C 
ATOM      3  C   UNL     1       2.480   4.349  17.433  0.00  0.00    +0.000 C 
ATOM      4  C   UNL     1       3.877   4.932  17.574  0.00  0.00    +0.000 C 
ATOM      5  N   UNL     1       4.765   4.168  18.450  0.00  0.00    +0.000 N 
ATOM      6  C   UNL     1       4.409   2.939  18.972  0.00  0.00    +0.000 C 
ATOM      7  O   UNL     1       5.048   2.437  19.902  0.00  0.00    +0.000 OA
ENDROOT
BRANCH   1   8
ATOM      8  C   UNL     1       2.314   1.799  19.513  0.00  0.00    +0.000 C 
BRANCH   8   9
ATOM      9  S   UNL     1       0.992   3.017  19.827  0.00  0.00    +0.000 S 
BRANCH   9  11
ATOM     10  C   UNL     1       1.938   5.366  20.908  0.00  0.00    +0.000 C 
ATOM     11  C   UNL     1       1.786   3.893  21.138  0.00  0.00    +0.000 C 
ATOM     12  O   UNL     1       2.179   3.323  22.149  0.00  0.00    +0.000 OA
ENDBRANCH   9  11
ENDBRANCH   8   9
ENDBRANCH   1   8
BRANCH   5  13
ATOM     13  C   UNL     1       5.822   4.951  19.119  0.00  0.00    +0.000 C 
BRANCH  13  14
ATOM     14  C   UNL     1       7.137   5.327  18.406  0.00  0.00    +0.000 C 
ATOM     15  N   UNL     1       7.898   4.337  17.864  0.00  0.00    +0.000 N 
ATOM     16  O   UNL     1       7.534   6.493  18.356  0.00  0.00    +0.000 OA
ATOM     17  H   UNL     1       7.885   3.452  18.367  0.00  0.00    +0.000 HD
ATOM     18  H   UNL     1       8.822   4.638  17.582  0.00  0.00    +0.000 HD
ENDBRANCH  13  14
ENDBRANCH   5  13
TORSDOF 5
ENDMDL
MODEL 3
REMARK VINA RESULT:      -6.0      3.104      5.741
REMARK  Name = 
REMARK  6 active torsions:
REMARK  status: ('A' for Active; 'I' for Inactive)
REMARK    1  A    between atoms: C_1  and  C_2
REMARK    2  A    between atoms: C_2  and  S_4
REMARK    3  A    between atoms: S_4  and  C_5
REMARK    4  A    between atoms: C_5  and  C_6
REMARK    5  A    between atoms: N_10  and  C_11
REMARK    6  A    between atoms: C_11  and  C_12
REMARK                            x       y       z     vdW  Elec       q    Type
REMARK                         _______ _______ _______ _____ _____    ______ ____
ROOT
ATOM      1  C   UNL     1       6.526   5.614  18.028  0.00  0.00    +0.000 C 
ATOM      2  C   UNL     1       6.176   6.949  17.369  0.00  0.00    +0.000 C 
ATOM      3  C   UNL     1       4.843   6.862  16.659  0.00  0.00    +0.000 C 
ATOM      4  C   UNL     1       3.754   6.565  17.678  0.00  0.00    +0.000 C 
ATOM      5  N   UNL     1       4.078   5.488  18.611  0.00  0.00    +0.000 N 
ATOM      6  C   UNL     1       5.330   4.904  18.660  0.00  0.00    +0.000 C 
ATOM      7  O   UNL     1       5.509   3.839  19.259  0.00  0.00    +0.000 OA
ENDROOT
BRANCH   1   8
ATOM      8  C   UNL     1       7.182   4.583  17.095  0.00  0.00    +0.000 C 
BRANCH   8   9
ATOM      9  S   UNL     1       6.060   3.844  15.860  0.00  0.00    +0.000 S 
BRANCH   9  11
ATOM     10  C   UNL     1       6.376   3.901  13.125  0.00  0.00    +0.000 C 
ATOM     11  C   UNL     1       6.827   4.513  14.416  0.00  0.00    +0.000 C 
ATOM     12  O   UNL     1       7.663   5.406  14.485  0.00  0.00    +0.000 OA
ENDBRANCH   9  11
ENDBRANCH   8   9
ENDBRANCH   1   8
BRANCH   5  13
ATOM     13  C   UNL     1       2.922   4.746  19.149  0.00  0.00    +0.000 C 
BRANCH  13  14
ATOM     14  C   UNL     1       2.068   3.810  18.268  0.00  0.00    +0.000 C 
ATOM     15  N   UNL     1       2.357   2.479  18.250  0.00  0.00    +0.000 N 
ATOM     16  O   UNL     1       1.166   4.244  17.551  0.00  0.00    +0.000 OA
ATOM     17  H   UNL     1       3.343   2.246  18.348  0.00  0.00    +0.000 HD
ATOM     18  H   UNL     1       1.882   1.966  17.519  0.00  0.00    +0.000 HD
ENDBRANCH  13  14
ENDBRANCH   5  13
TORSDOF 5
ENDMDL
MODEL 4
REMARK VINA RESULT:      -6.0      1.642      1.753
REMARK  Name = 
REMARK  6 active torsions:
REMARK  status: ('A' for Active; 'I' for Inactive)
REMARK    1  A    between atoms: C_1  and  C_2
REMARK    2  A    between atoms: C_2  and  S_4
REMARK    3  A    between atoms: S_4  and  C_5
REMARK    4  A    between atoms: C_5  and  C_6
REMARK    5  A    between atoms: N_10  and  C_11
REMARK    6  A    between atoms: C_11  and  C_12
REMARK                            x       y       z     vdW  Elec       q    Type
REMARK                         _______ _______ _______ _____ _____    ______ ____
ROOT
ATOM      1  C   UNL     1       2.755   3.941  17.347  0.00  0.00    +0.000 C 
ATOM      2  C   UNL     1       1.953   5.160  17.804  0.00  0.00    +0.000 C 
ATOM      3  C   UNL     1       2.809   6.077  18.649  0.00  0.00    +0.000 C 
ATOM      4  C   UNL     1       3.969   6.591  17.811  0.00  0.00    +0.000 C 
ATOM      5  N   UNL     1       4.663   5.557  17.044  0.00  0.00    +0.000 N 
ATOM      6  C   UNL     1       4.200   4.257  16.968  0.00  0.00    +0.000 C 
ATOM      7  O   UNL     1       4.923   3.352  16.542  0.00  0.00    +0.000 OA
ENDROOT
BRANCH   1   8
ATOM      8  C   UNL     1       2.830   2.795  18.369  0.00  0.00    +0.000 C 
BRANCH   8   9
ATOM      9  S   UNL     1       3.800   3.167  19.868  0.00  0.00    +0.000 S 
BRANCH   9  11
ATOM     10  C   UNL     1       1.148   3.198  20.611  0.00  0.00    +0.000 C 
ATOM     11  C   UNL     1       2.534   2.839  21.055  0.00  0.00    +0.000 C 
ATOM     12  O   UNL     1       2.789   2.360  22.153  0.00  0.00    +0.000 OA
ENDBRANCH   9  11
ENDBRANCH   8   9
ENDBRANCH   1   8
BRANCH   5  13
ATOM     13  C   UNL     1       6.085   5.828  16.759  0.00  0.00    +0.000 C 
BRANCH  13  14
ATOM     14  C   UNL     1       7.192   5.580  17.805  0.00  0.00    +0.000 C 
ATOM     15  N   UNL     1       7.661   4.313  17.977  0.00  0.00    +0.000 N 
ATOM     16  O   UNL     1       7.625   6.488  18.515  0.00  0.00    +0.000 OA
ATOM     17  H   UNL     1       6.975   3.572  17.849  0.00  0.00    +0.000 HD
ATOM     18  H   UNL     1       8.244   4.200  18.797  0.00  0.00    +0.000 HD
ENDBRANCH  13  14
ENDBRANCH   5  13
TORSDOF 5
ENDMDL
MODEL 5
REMARK VINA RESULT:      -5.9      2.357      2.882
REMARK  Name = 
REMARK  6 active torsions:
REMARK  status: ('A' for Active; 'I' for Inactive)
REMARK    1  A    between atoms: C_1  and  C_2
REMARK    2  A    between atoms: C_2  and  S_4
REMARK    3  A    between atoms: S_4  and  C_5
REMARK    4  A    between atoms: C_5  and  C_6
REMARK    5  A    between atoms: N_10  and  C_11
REMARK    6  A    between atoms: C_11  and  C_12
REMARK                            x       y       z     vdW  Elec       q    Type
REMARK                         _______ _______ _______ _____ _____    ______ ____
ROOT
ATOM      1  C   UNL     1       3.104   5.026  18.009  0.00  0.00    +0.000 C 
ATOM      2  C   UNL     1       3.083   6.508  17.633  0.00  0.00    +0.000 C 
ATOM      3  C   UNL     1       4.490   7.038  17.465  0.00  0.00    +0.000 C 
ATOM      4  C   UNL     1       5.171   6.295  16.326  0.00  0.00    +0.000 C 
ATOM      5  N   UNL     1       5.011   4.842  16.373  0.00  0.00    +0.000 N 
ATOM      6  C   UNL     1       4.180   4.218  17.283  0.00  0.00    +0.000 C 
ATOM      7  O   UNL     1       4.255   3.002  17.480  0.00  0.00    +0.000 OA
ENDROOT
BRANCH   1   8
ATOM      8  C   UNL     1       3.303   4.740  19.507  0.00  0.00    +0.000 C 
BRANCH   8   9
ATOM      9  S   UNL     1       1.828   5.017  20.542  0.00  0.00    +0.000 S 
BRANCH   9  11
ATOM     10  C   UNL     1       1.553   2.558  21.753  0.00  0.00    +0.000 C 
ATOM     11  C   UNL     1       1.218   3.359  20.531  0.00  0.00    +0.000 C 
ATOM     12  O   UNL     1       0.577   2.914  19.587  0.00  0.00    +0.000 OA
ENDBRANCH   9  11
ENDBRANCH   8   9
ENDBRANCH   1   8
BRANCH   5  13
ATOM     13  C   UNL     1       6.100   4.066  15.749  0.00  0.00    +0.000 C 
BRANCH  13  14
ATOM     14  C   UNL     1       6.565   4.324  14.301  0.00  0.00    +0.000 C 
ATOM     15  N   UNL     1       6.189   3.453  13.325  0.00  0.00    +0.000 N 
ATOM     16  O   UNL     1       7.303   5.269  14.019  0.00  0.00    +0.000 OA
ATOM     17  H   UNL     1       6.107   2.481  13.615  0.00  0.00    +0.000 HD
ATOM     18  H   UNL     1       6.678   3.583  12.448  0.00  0.00    +0.000 HD
ENDBRANCH  13  14
ENDBRANCH   5  13
TORSDOF 5
ENDMDL
MODEL 6
REMARK VINA RESULT:      -5.9      1.636      1.771
REMARK  Name = 
REMARK  6 active torsions:
REMARK  status: ('A' for Active; 'I' for Inactive)
REMARK    1  A    between atoms: C_1  and  C_2
REMARK    2  A    between atoms: C_2  and  S_4
REMARK    3  A    between atoms: S_4  and  C_5
REMARK    4  A    between atoms: C_5  and  C_6
REMARK    5  A    between atoms: N_10  and  C_11
REMARK    6  A    between atoms: C_11  and  C_12
REMARK                            x       y       z     vdW  Elec       q    Type
REMARK                         _______ _______ _______ _____ _____    ______ ____
ROOT
ATOM      1  C   UNL     1       2.899   4.194  17.652  0.00  0.00    +0.000 C 
ATOM      2  C   UNL     1       2.080   5.454  17.935  0.00  0.00    +0.000 C 
ATOM      3  C   UNL     1       2.962   6.554  18.485  0.00  0.00    +0.000 C 
ATOM      4  C   UNL     1       4.007   6.921  17.444  0.00  0.00    +0.000 C 
ATOM      5  N   UNL     1       4.680   5.776  16.833  0.00  0.00    +0.000 N 
ATOM      6  C   UNL     1       4.283   4.473  17.069  0.00  0.00    +0.000 C 
ATOM      7  O   UNL     1       5.010   3.524  16.762  0.00  0.00    +0.000 OA
ENDROOT
BRANCH   1   8
ATOM      8  C   UNL     1       3.132   3.286  18.872  0.00  0.00    +0.000 C 
BRANCH   8   9
ATOM      9  S   UNL     1       1.633   2.473  19.520  0.00  0.00    +0.000 S 
BRANCH   9  11
ATOM     10  C   UNL     1       2.238   4.433  21.358  0.00  0.00    +0.000 C 
ATOM     11  C   UNL     1       1.777   3.016  21.195  0.00  0.00    +0.000 C 
ATOM     12  O   UNL     1       1.521   2.276  22.137  0.00  0.00    +0.000 OA
ENDBRANCH   9  11
ENDBRANCH   8   9
ENDBRANCH   1   8
BRANCH   5  13
ATOM     13  C   UNL     1       6.052   6.029  16.353  0.00  0.00    +0.000 C 
BRANCH  13  14
ATOM     14  C   UNL     1       7.173   6.513  17.296  0.00  0.00    +0.000 C 
ATOM     15  N   UNL     1       7.654   7.778  17.150  0.00  0.00    +0.000 N 
ATOM     16  O   UNL     1       7.672   5.769  18.142  0.00  0.00    +0.000 OA
ATOM     17  H   UNL     1       7.672   8.131  16.195  0.00  0.00    +0.000 HD
ATOM     18  H   UNL     1       8.502   7.957  17.673  0.00  0.00    +0.000 HD
ENDBRANCH  13  14
ENDBRANCH   5  13
TORSDOF 5
ENDMDL
MODEL 7
REMARK VINA RESULT:      -5.9      1.893      1.987
REMARK  Name = 
REMARK  6 active torsions:
REMARK  status: ('A' for Active; 'I' for Inactive)
REMARK    1  A    between atoms: C_1  and  C_2
REMARK    2  A    between atoms: C_2  and  S_4
REMARK    3  A    between atoms: S_4  and  C_5
REMARK    4  A    between atoms: C_5  and  C_6
REMARK    5  A    between atoms: N_10  and  C_11
REMARK    6  A    between atoms: C_11  and  C_12
REMARK                            x       y       z     vdW  Elec       q    Type
REMARK                         _______ _______ _______ _____ _____    ______ ____
ROOT
ATOM      1  C   UNL     1       2.852   4.042  17.341  0.00  0.00    +0.000 C 
ATOM      2  C   UNL     1       2.140   5.327  17.766  0.00  0.00    +0.000 C 
ATOM      3  C   UNL     1       3.045   6.181  18.626  0.00  0.00    +0.000 C 
ATOM      4  C   UNL     1       4.264   6.591  17.815  0.00  0.00    +0.000 C 
ATOM      5  N   UNL     1       4.892   5.497  17.076  0.00  0.00    +0.000 N 
ATOM      6  C   UNL     1       4.329   4.237  16.998  0.00  0.00    +0.000 C 
ATOM      7  O   UNL     1       4.987   3.272  16.599  0.00  0.00    +0.000 OA
ENDROOT
BRANCH   1   8
ATOM      8  C   UNL     1       2.808   2.904  18.375  0.00  0.00    +0.000 C 
BRANCH   8   9
ATOM      9  S   UNL     1       1.137   2.459  18.954  0.00  0.00    +0.000 S 
BRANCH   9  11
ATOM     10  C   UNL     1       1.924   2.608  21.589  0.00  0.00    +0.000 C 
ATOM     11  C   UNL     1       1.185   3.319  20.496  0.00  0.00    +0.000 C 
ATOM     12  O   UNL     1       0.647   4.410  20.643  0.00  0.00    +0.000 OA
ENDBRANCH   9  11
ENDBRANCH   8   9
ENDBRANCH   1   8
BRANCH   5  13
ATOM     13  C   UNL     1       6.338   5.649  16.826  0.00  0.00    +0.000 C 
BRANCH  13  14
ATOM     14  C   UNL     1       7.399   4.952  17.703  0.00  0.00    +0.000 C 
ATOM     15  N   UNL     1       7.449   5.245  19.032  0.00  0.00    +0.000 N 
ATOM     16  O   UNL     1       8.225   4.174  17.223  0.00  0.00    +0.000 OA
ATOM     17  H   UNL     1       7.208   6.203  19.277  0.00  0.00    +0.000 HD
ATOM     18  H   UNL     1       8.277   4.895  19.498  0.00  0.00    +0.000 HD
ENDBRANCH  13  14
ENDBRANCH   5  13
TORSDOF 5
ENDMDL
MODEL 8
REMARK VINA RESULT:      -5.8      1.745      2.147
REMARK  Name = 
REMARK  6 active torsions:
REMARK  status: ('A' for Active; 'I' for Inactive)
REMARK    1  A    between atoms: C_1  and  C_2
REMARK    2  A    between atoms: C_2  and  S_4
REMARK    3  A    between atoms: S_4  and  C_5
REMARK    4  A    between atoms: C_5  and  C_6
REMARK    5  A    between atoms: N_10  and  C_11
REMARK    6  A    between atoms: C_11  and  C_12
REMARK                            x       y       z     vdW  Elec       q    Type
REMARK                         _______ _______ _______ _____ _____    ______ ____
ROOT
ATOM      1  C   UNL     1       3.274   4.794  18.418  0.00  0.00    +0.000 C 
ATOM      2  C   UNL     1       2.539   6.023  17.881  0.00  0.00    +0.000 C 
ATOM      3  C   UNL     1       3.485   7.196  17.747  0.00  0.00    +0.000 C 
ATOM      4  C   UNL     1       4.572   6.849  16.743  0.00  0.00    +0.000 C 
ATOM      5  N   UNL     1       5.175   5.531  16.939  0.00  0.00    +0.000 N 
ATOM      6  C   UNL     1       4.685   4.623  17.857  0.00  0.00    +0.000 C 
ATOM      7  O   UNL     1       5.350   3.638  18.191  0.00  0.00    +0.000 OA
ENDROOT
BRANCH   1   8
ATOM      8  C   UNL     1       3.422   4.746  19.949  0.00  0.00    +0.000 C 
BRANCH   8   9
ATOM      9  S   UNL     1       1.873   5.002  20.877  0.00  0.00    +0.000 S 
BRANCH   9  11
ATOM     10  C   UNL     1       0.832   2.738  19.704  0.00  0.00    +0.000 C 
ATOM     11  C   UNL     1       1.377   3.310  20.978  0.00  0.00    +0.000 C 
ATOM     12  O   UNL     1       1.474   2.671  22.019  0.00  0.00    +0.000 OA
ENDBRANCH   9  11
ENDBRANCH   8   9
ENDBRANCH   1   8
BRANCH   5  13
ATOM     13  C   UNL     1       6.570   5.398  16.476  0.00  0.00    +0.000 C 
BRANCH  13  14
ATOM     14  C   UNL     1       6.920   4.858  15.074  0.00  0.00    +0.000 C 
ATOM     15  N   UNL     1       6.294   3.734  14.628  0.00  0.00    +0.000 N 
ATOM     16  O   UNL     1       7.781   5.391  14.373  0.00  0.00    +0.000 OA
ATOM     17  H   UNL     1       6.071   3.045  15.344  0.00  0.00    +0.000 HD
ATOM     18  H   UNL     1       6.705   3.341  13.790  0.00  0.00    +0.000 HD
ENDBRANCH  13  14
ENDBRANCH   5  13
TORSDOF 5
ENDMDL
MODEL 9
REMARK VINA RESULT:      -5.8      3.250      6.029
REMARK  Name = 
REMARK  6 active torsions:
REMARK  status: ('A' for Active; 'I' for Inactive)
REMARK    1  A    between atoms: C_1  and  C_2
REMARK    2  A    between atoms: C_2  and  S_4
REMARK    3  A    between atoms: S_4  and  C_5
REMARK    4  A    between atoms: C_5  and  C_6
REMARK    5  A    between atoms: N_10  and  C_11
REMARK    6  A    between atoms: C_11  and  C_12
REMARK                            x       y       z     vdW  Elec       q    Type
REMARK                         _______ _______ _______ _____ _____    ______ ____
ROOT
ATOM      1  C   UNL     1       5.341   5.340  18.239  0.00  0.00    +0.000 C 
ATOM      2  C   UNL     1       4.605   6.657  17.989  0.00  0.00    +0.000 C 
ATOM      3  C   UNL     1       3.115   6.424  17.877  0.00  0.00    +0.000 C 
ATOM      4  C   UNL     1       2.597   5.862  19.191  0.00  0.00    +0.000 C 
ATOM      5  N   UNL     1       3.399   4.767  19.737  0.00  0.00    +0.000 N 
ATOM      6  C   UNL     1       4.608   4.390  19.185  0.00  0.00    +0.000 C 
ATOM      7  O   UNL     1       5.136   3.317  19.490  0.00  0.00    +0.000 OA
ENDROOT
BRANCH   1   8
ATOM      8  C   UNL     1       5.647   4.519  16.975  0.00  0.00    +0.000 C 
BRANCH   8   9
ATOM      9  S   UNL     1       7.375   4.616  16.397  0.00  0.00    +0.000 S 
BRANCH   9  11
ATOM     10  C   UNL     1       5.765   4.229  14.197  0.00  0.00    +0.000 C 
ATOM     11  C   UNL     1       7.036   4.859  14.681  0.00  0.00    +0.000 C 
ATOM     12  O   UNL     1       7.796   5.492  13.958  0.00  0.00    +0.000 OA
ENDBRANCH   9  11
ENDBRANCH   8   9
ENDBRANCH   1   8
BRANCH   5  13
ATOM     13  C   UNL     1       2.665   3.802  20.577  0.00  0.00    +0.000 C 
BRANCH  13  14
ATOM     14  C   UNL     1       1.628   2.824  19.986  0.00  0.00    +0.000 C 
ATOM     15  N   UNL     1       0.305   3.059  20.201  0.00  0.00    +0.000 N 
ATOM     16  O   UNL     1       1.972   1.816  19.367  0.00  0.00    +0.000 OA
ATOM     17  H   UNL     1       0.077   3.483  21.098  0.00  0.00    +0.000 HD
ATOM     18  H   UNL     1      -0.296   2.286  19.945  0.00  0.00    +0.000 HD
ENDBRANCH  13  14
ENDBRANCH   5  13
TORSDOF 5
ENDMDL
