MODEL 1
REMARK VINA RESULT:      -7.6      0.000      0.000
REMARK  Name = 
REMARK  9 active torsions:
REMARK  status: ('A' for Active; 'I' for Inactive)
REMARK    1  A    between atoms: C_1  and  O_2
REMARK    2  A    between atoms: O_2  and  C_3
REMARK    3  A    between atoms: C_7  and  N_8
REMARK    4  A    between atoms: N_11  and  C_12
REMARK    5  A    between atoms: C_12  and  C_13
REMARK    6  A    between atoms: C_13  and  O_14
REMARK    7  A    between atoms: C_13  and  C_15
REMARK    8  A    between atoms: C_15  and  O_16
REMARK    9  A    between atoms: O_16  and  C_17
REMARK                            x       y       z     vdW  Elec       q    Type
REMARK                         _______ _______ _______ _____ _____    ______ ____
ROOT
ATOM      1  N   UNL     1       4.251   4.014  18.030  0.00  0.00    +0.000 N 
ATOM      2  C   UNL     1       2.961   3.417  17.639  0.00  0.00    +0.000 C 
ATOM      3  C   UNL     1       2.771   1.984  18.198  0.00  0.00    +0.000 C 
ATOM      4  N   UNL     1       3.099   1.814  19.636  0.00  0.00    +0.000 NA
ATOM      5  C   UNL     1       4.502   2.276  19.792  0.00  0.00    +0.000 C 
ATOM      6  C   UNL     1       4.723   3.755  19.405  0.00  0.00    +0.000 C 
ENDROOT
BRANCH   1  11
ATOM      7  C   UNL     1       6.994   5.876  16.335  0.00  0.00    +0.000 A 
ATOM      8  C   UNL     1       7.069   5.179  15.133  0.00  0.00    +0.000 A 
ATOM      9  C   UNL     1       6.233   4.090  14.899  0.00  0.00    +0.000 A 
ATOM     10  C   UNL     1       5.307   3.709  15.875  0.00  0.00    +0.000 A 
ATOM     11  C   UNL     1       5.199   4.399  17.092  0.00  0.00    +0.000 A 
ATOM     12  C   UNL     1       6.066   5.476  17.304  0.00  0.00    +0.000 A 
BRANCH   7  14
ATOM     13  C   UNL     1       7.638   7.801  17.566  0.00  0.00    +0.000 C 
ATOM     14  O   UNL     1       7.852   6.936  16.454  0.00  0.00    +0.000 OA
ENDBRANCH   7  14
ENDBRANCH   1  11
BRANCH   4  15
ATOM     15  C   UNL     1       2.140   2.566  20.481  0.00  0.00    +0.000 C 
BRANCH  15  16
ATOM     16  C   UNL     1       1.108   3.460  19.748  0.00  0.00    +0.000 C 
BRANCH  16  17
ATOM     17  O   UNL     1      -0.170   2.810  19.645  0.00  0.00    +0.000 OA
ATOM     18  H   UNL     1      -0.149   2.202  18.888  0.00  0.00    +0.000 HD
ENDBRANCH  16  17
BRANCH  16  19
ATOM     19  C   UNL     1       0.917   4.773  20.528  0.00  0.00    +0.000 C 
BRANCH  19  20
ATOM     20  O   UNL     1       2.121   5.536  20.417  0.00  0.00    +0.000 OA
BRANCH  20  21
ATOM     21  C   UNL     1       1.998   6.781  19.876  0.00  0.00    +0.000 A 
ATOM     22  C   UNL     1       2.421   6.886  18.548  0.00  0.00    +0.000 A 
ATOM     23  C   UNL     1       2.361   8.111  17.885  0.00  0.00    +0.000 A 
ATOM     24  C   UNL     1       1.856   9.220  18.549  0.00  0.00    +0.000 A 
ATOM     25  F   UNL     1       1.800  10.399  17.919  0.00  0.00    +0.000 F 
ATOM     26  C   UNL     1       1.399   9.123  19.859  0.00  0.00    +0.000 A 
ATOM     27  C   UNL     1       1.466   7.897  20.526  0.00  0.00    +0.000 A 
ENDBRANCH  20  21
ENDBRANCH  19  20
ENDBRANCH  16  19
ENDBRANCH  15  16
ENDBRANCH   4  15
TORSDOF 8
ENDMDL
MODEL 2
REMARK VINA RESULT:      -7.6      2.756      6.628
REMARK  Name = 
REMARK  9 active torsions:
REMARK  status: ('A' for Active; 'I' for Inactive)
REMARK    1  A    between atoms: C_1  and  O_2
REMARK    2  A    between atoms: O_2  and  C_3
REMARK    3  A    between atoms: C_7  and  N_8
REMARK    4  A    between atoms: N_11  and  C_12
REMARK    5  A    between atoms: C_12  and  C_13
REMARK    6  A    between atoms: C_13  and  O_14
REMARK    7  A    between atoms: C_13  and  C_15
REMARK    8  A    between atoms: C_15  and  O_16
REMARK    9  A    between atoms: O_16  and  C_17
REMARK                            x       y       z     vdW  Elec       q    Type
REMARK                         _______ _______ _______ _____ _____    ______ ____
ROOT
ATOM      1  N   UNL     1       2.150   7.102  20.080  0.00  0.00    +0.000 N 
ATOM      2  C   UNL     1       1.987   5.928  20.956  0.00  0.00    +0.000 C 
ATOM      3  C   UNL     1       1.377   4.710  20.217  0.00  0.00    +0.000 C 
ATOM      4  N   UNL     1       1.985   4.395  18.900  0.00  0.00    +0.000 NA
ATOM      5  C   UNL     1       1.869   5.635  18.091  0.00  0.00    +0.000 C 
ATOM      6  C   UNL     1       2.603   6.852  18.697  0.00  0.00    +0.000 C 
ENDROOT
BRANCH   1  11
ATOM      7  C   UNL     1       0.439   9.892  21.855  0.00  0.00    +0.000 A 
ATOM      8  C   UNL     1       0.142  10.730  20.784  0.00  0.00    +0.000 A 
ATOM      9  C   UNL     1       0.527  10.381  19.491  0.00  0.00    +0.000 A 
ATOM     10  C   UNL     1       1.202   9.176  19.274  0.00  0.00    +0.000 A 
ATOM     11  C   UNL     1       1.504   8.305  20.331  0.00  0.00    +0.000 A 
ATOM     12  C   UNL     1       1.122   8.693  21.619  0.00  0.00    +0.000 A 
BRANCH   7  14
ATOM     13  C   UNL     1      -1.229  11.042  23.092  0.00  0.00    +0.000 C 
ATOM     14  O   UNL     1       0.003  10.326  23.078  0.00  0.00    +0.000 OA
ENDBRANCH   7  14
ENDBRANCH   1  11
BRANCH   4  15
ATOM     15  C   UNL     1       3.385   3.937  19.070  0.00  0.00    +0.000 C 
BRANCH  15  16
ATOM     16  C   UNL     1       3.964   3.023  17.961  0.00  0.00    +0.000 C 
BRANCH  16  17
ATOM     17  O   UNL     1       3.006   2.037  17.541  0.00  0.00    +0.000 OA
ATOM     18  H   UNL     1       2.675   1.571  18.325  0.00  0.00    +0.000 HD
ENDBRANCH  16  17
BRANCH  16  19
ATOM     19  C   UNL     1       4.346   3.874  16.737  0.00  0.00    +0.000 C 
BRANCH  19  20
ATOM     20  O   UNL     1       5.769   3.854  16.608  0.00  0.00    +0.000 OA
BRANCH  20  21
ATOM     21  C   UNL     1       6.433   4.940  17.098  0.00  0.00    +0.000 A 
ATOM     22  C   UNL     1       7.261   4.673  18.192  0.00  0.00    +0.000 A 
ATOM     23  C   UNL     1       7.983   5.702  18.795  0.00  0.00    +0.000 A 
ATOM     24  C   UNL     1       7.890   6.989  18.283  0.00  0.00    +0.000 A 
ATOM     25  F   UNL     1       8.578   7.981  18.860  0.00  0.00    +0.000 F 
ATOM     26  C   UNL     1       7.098   7.262  17.173  0.00  0.00    +0.000 A 
ATOM     27  C   UNL     1       6.369   6.232  16.573  0.00  0.00    +0.000 A 
ENDBRANCH  20  21
ENDBRANCH  19  20
ENDBRANCH  16  19
ENDBRANCH  15  16
ENDBRANCH   4  15
TORSDOF 8
ENDMDL
MODEL 3
REMARK VINA RESULT:      -7.4      2.545      5.867
REMARK  Name = 
REMARK  9 active torsions:
REMARK  status: ('A' for Active; 'I' for Inactive)
REMARK    1  A    between atoms: C_1  and  O_2
REMARK    2  A    between atoms: O_2  and  C_3
REMARK    3  A    between atoms: C_7  and  N_8
REMARK    4  A    between atoms: N_11  and  C_12
REMARK    5  A    between atoms: C_12  and  C_13
REMARK    6  A    between atoms: C_13  and  O_14
REMARK    7  A    between atoms: C_13  and  C_15
REMARK    8  A    between atoms: C_15  and  O_16
REMARK    9  A    between atoms: O_16  and  C_17
REMARK                            x       y       z     vdW  Elec       q    Type
REMARK                         _______ _______ _______ _____ _____    ______ ____
ROOT
ATOM      1  N   UNL     1       2.261   6.553  19.570  0.00  0.00    +0.000 N 
ATOM      2  C   UNL     1       1.879   5.735  20.735  0.00  0.00    +0.000 C 
ATOM      3  C   UNL     1       1.028   4.500  20.345  0.00  0.00    +0.000 C 
ATOM      4  N   UNL     1       1.543   3.709  19.200  0.00  0.00    +0.000 NA
ATOM      5  C   UNL     1       1.667   4.662  18.067  0.00  0.00    +0.000 C 
ATOM      6  C   UNL     1       2.637   5.834  18.336  0.00  0.00    +0.000 C 
ENDROOT
BRANCH   1  11
ATOM      7  C   UNL     1       0.831   9.907  20.326  0.00  0.00    +0.000 A 
ATOM      8  C   UNL     1       1.045  10.554  19.112  0.00  0.00    +0.000 A 
ATOM      9  C   UNL     1       1.677   9.889  18.064  0.00  0.00    +0.000 A 
ATOM     10  C   UNL     1       2.083   8.562  18.234  0.00  0.00    +0.000 A 
ATOM     11  C   UNL     1       1.872   7.879  19.441  0.00  0.00    +0.000 A 
ATOM     12  C   UNL     1       1.252   8.581  20.480  0.00  0.00    +0.000 A 
BRANCH   7  14
ATOM     13  C   UNL     1      -0.681  11.672  20.808  0.00  0.00    +0.000 C 
ATOM     14  O   UNL     1       0.191  10.649  21.282  0.00  0.00    +0.000 OA
ENDBRANCH   7  14
ENDBRANCH   1  11
BRANCH   4  15
ATOM     15  C   UNL     1       2.826   3.055  19.554  0.00  0.00    +0.000 C 
BRANCH  15  16
ATOM     16  C   UNL     1       3.495   2.181  18.463  0.00  0.00    +0.000 C 
BRANCH  16  17
ATOM     17  O   UNL     1       2.541   1.753  17.477  0.00  0.00    +0.000 OA
ATOM     18  H   UNL     1       1.650   1.820  17.856  0.00  0.00    +0.000 HD
ENDBRANCH  16  17
BRANCH  16  19
ATOM     19  C   UNL     1       4.591   2.994  17.750  0.00  0.00    +0.000 C 
BRANCH  19  20
ATOM     20  O   UNL     1       5.459   3.540  18.746  0.00  0.00    +0.000 OA
BRANCH  20  21
ATOM     21  C   UNL     1       6.160   4.654  18.390  0.00  0.00    +0.000 A 
ATOM     22  C   UNL     1       5.854   5.155  17.121  0.00  0.00    +0.000 A 
ATOM     23  C   UNL     1       6.514   6.282  16.633  0.00  0.00    +0.000 A 
ATOM     24  C   UNL     1       7.460   6.914  17.428  0.00  0.00    +0.000 A 
ATOM     25  F   UNL     1       8.100   7.994  16.963  0.00  0.00    +0.000 F 
ATOM     26  C   UNL     1       7.749   6.447  18.706  0.00  0.00    +0.000 A 
ATOM     27  C   UNL     1       7.092   5.314  19.192  0.00  0.00    +0.000 A 
ENDBRANCH  20  21
ENDBRANCH  19  20
ENDBRANCH  16  19
ENDBRANCH  15  16
ENDBRANCH   4  15
TORSDOF 8
ENDMDL
MODEL 4
REMARK VINA RESULT:      -7.4      0.475      1.046
REMARK  Name = 
REMARK  9 active torsions:
REMARK  status: ('A' for Active; 'I' for Inactive)
REMARK    1  A    between atoms: C_1  and  O_2
REMARK    2  A    between atoms: O_2  and  C_3
REMARK    3  A    between atoms: C_7  and  N_8
REMARK    4  A    between atoms: N_11  and  C_12
REMARK    5  A    between atoms: C_12  and  C_13
REMARK    6  A    between atoms: C_13  and  O_14
REMARK    7  A    between atoms: C_13  and  C_15
REMARK    8  A    between atoms: C_15  and  O_16
REMARK    9  A    between atoms: O_16  and  C_17
REMARK                            x       y       z     vdW  Elec       q    Type
REMARK                         _______ _______ _______ _____ _____    ______ ____
ROOT
ATOM      1  N   UNL     1       4.184   3.957  17.995  0.00  0.00    +0.000 N 
ATOM      2  C   UNL     1       2.797   3.681  17.578  0.00  0.00    +0.000 C 
ATOM      3  C   UNL     1       2.372   2.215  17.846  0.00  0.00    +0.000 C 
ATOM      4  N   UNL     1       2.708   1.692  19.194  0.00  0.00    +0.000 NA
ATOM      5  C   UNL     1       4.175   1.868  19.346  0.00  0.00    +0.000 C 
ATOM      6  C   UNL     1       4.644   3.337  19.254  0.00  0.00    +0.000 C 
ENDROOT
BRANCH   1  11
ATOM      7  C   UNL     1       6.914   5.913  16.386  0.00  0.00    +0.000 A 
ATOM      8  C   UNL     1       7.080   5.194  15.206  0.00  0.00    +0.000 A 
ATOM      9  C   UNL     1       6.309   4.061  14.960  0.00  0.00    +0.000 A 
ATOM     10  C   UNL     1       5.356   3.656  15.901  0.00  0.00    +0.000 A 
ATOM     11  C   UNL     1       5.157   4.367  17.094  0.00  0.00    +0.000 A 
ATOM     12  C   UNL     1       5.960   5.489  17.320  0.00  0.00    +0.000 A 
BRANCH   7  14
ATOM     13  C   UNL     1       7.827   7.559  17.832  0.00  0.00    +0.000 C 
ATOM     14  O   UNL     1       7.713   7.016  16.520  0.00  0.00    +0.000 OA
ENDBRANCH   7  14
ENDBRANCH   1  11
BRANCH   4  15
ATOM     15  C   UNL     1       1.924   2.398  20.236  0.00  0.00    +0.000 C 
BRANCH  15  16
ATOM     16  C   UNL     1       1.214   3.710  19.814  0.00  0.00    +0.000 C 
BRANCH  16  17
ATOM     17  O   UNL     1      -0.210   3.532  19.729  0.00  0.00    +0.000 OA
ATOM     18  H   UNL     1      -0.562   4.153  19.071  0.00  0.00    +0.000 HD
ENDBRANCH  16  17
BRANCH  16  19
ATOM     19  C   UNL     1       1.499   4.809  20.853  0.00  0.00    +0.000 C 
BRANCH  19  20
ATOM     20  O   UNL     1       2.557   5.630  20.353  0.00  0.00    +0.000 OA
BRANCH  20  21
ATOM     21  C   UNL     1       2.190   6.835  19.833  0.00  0.00    +0.000 A 
ATOM     22  C   UNL     1       1.531   7.683  20.728  0.00  0.00    +0.000 A 
ATOM     23  C   UNL     1       1.090   8.938  20.313  0.00  0.00    +0.000 A 
ATOM     24  C   UNL     1       1.333   9.348  19.009  0.00  0.00    +0.000 A 
ATOM     25  F   UNL     1       0.908  10.551  18.604  0.00  0.00    +0.000 F 
ATOM     26  C   UNL     1       2.018   8.529  18.118  0.00  0.00    +0.000 A 
ATOM     27  C   UNL     1       2.454   7.268  18.532  0.00  0.00    +0.000 A 
ENDBRANCH  20  21
ENDBRANCH  19  20
ENDBRANCH  16  19
ENDBRANCH  15  16
ENDBRANCH   4  15
TORSDOF 8
ENDMDL
MODEL 5
REMARK VINA RESULT:      -7.3      3.568      7.339
REMARK  Name = 
REMARK  9 active torsions:
REMARK  status: ('A' for Active; 'I' for Inactive)
REMARK    1  A    between atoms: C_1  and  O_2
REMARK    2  A    between atoms: O_2  and  C_3
REMARK    3  A    between atoms: C_7  and  N_8
REMARK    4  A    between atoms: N_11  and  C_12
REMARK    5  A    between atoms: C_12  and  C_13
REMARK    6  A    between atoms: C_13  and  O_14
REMARK    7  A    between atoms: C_13  and  C_15
REMARK    8  A    between atoms: C_15  and  O_16
REMARK    9  A    between atoms: O_16  and  C_17
REMARK                            x       y       z     vdW  Elec       q    Type
REMARK                         _______ _______ _______ _____ _____    ______ ____
ROOT
ATOM      1  N   UNL     1       4.945   4.572  17.939  0.00  0.00    +0.000 N 
ATOM      2  C   UNL     1       5.785   4.243  16.773  0.00  0.00    +0.000 C 
ATOM      3  C   UNL     1       5.849   5.395  15.738  0.00  0.00    +0.000 C 
ATOM      4  N   UNL     1       6.108   6.743  16.303  0.00  0.00    +0.000 NA
ATOM      5  C   UNL     1       5.041   6.976  17.309  0.00  0.00    +0.000 C 
ATOM      6  C   UNL     1       5.031   5.950  18.463  0.00  0.00    +0.000 C 
ENDROOT
BRANCH   1  11
ATOM      7  C   UNL     1       1.925   3.337  19.734  0.00  0.00    +0.000 A 
ATOM      8  C   UNL     1       1.557   2.276  18.912  0.00  0.00    +0.000 A 
ATOM      9  C   UNL     1       2.292   1.990  17.764  0.00  0.00    +0.000 A 
ATOM     10  C   UNL     1       3.410   2.768  17.448  0.00  0.00    +0.000 A 
ATOM     11  C   UNL     1       3.813   3.836  18.263  0.00  0.00    +0.000 A 
ATOM     12  C   UNL     1       3.044   4.110  19.399  0.00  0.00    +0.000 A 
BRANCH   7  14
ATOM     13  C   UNL     1       1.306   2.574  21.895  0.00  0.00    +0.000 C 
ATOM     14  O   UNL     1       1.142   3.520  20.842  0.00  0.00    +0.000 OA
ENDBRANCH   7  14
ENDBRANCH   1  11
BRANCH   4  15
ATOM     15  C   UNL     1       7.475   6.814  16.874  0.00  0.00    +0.000 C 
BRANCH  15  16
ATOM     16  C   UNL     1       7.646   7.618  18.188  0.00  0.00    +0.000 C 
BRANCH  16  17
ATOM     17  O   UNL     1       8.543   6.955  19.095  0.00  0.00    +0.000 OA
ATOM     18  H   UNL     1       8.319   6.010  19.120  0.00  0.00    +0.000 HD
ENDBRANCH  16  17
BRANCH  16  19
ATOM     19  C   UNL     1       8.227   9.008  17.870  0.00  0.00    +0.000 C 
BRANCH  19  20
ATOM     20  O   UNL     1       8.947   9.461  19.019  0.00  0.00    +0.000 OA
BRANCH  20  21
ATOM     21  C   UNL     1       9.439  10.732  18.958  0.00  0.00    +0.000 A 
ATOM     22  C   UNL     1      10.247  11.098  20.039  0.00  0.00    +0.000 A 
ATOM     23  C   UNL     1      10.798  12.377  20.103  0.00  0.00    +0.000 A 
ATOM     24  C   UNL     1      10.556  13.275  19.072  0.00  0.00    +0.000 A 
ATOM     25  F   UNL     1      11.080  14.505  19.130  0.00  0.00    +0.000 F 
ATOM     26  C   UNL     1       9.783  12.912  17.974  0.00  0.00    +0.000 A 
ATOM     27  C   UNL     1       9.224  11.633  17.914  0.00  0.00    +0.000 A 
ENDBRANCH  20  21
ENDBRANCH  19  20
ENDBRANCH  16  19
ENDBRANCH  15  16
ENDBRANCH   4  15
TORSDOF 8
ENDMDL
MODEL 6
REMARK VINA RESULT:      -7.3      2.610      5.962
REMARK  Name = 
REMARK  9 active torsions:
REMARK  status: ('A' for Active; 'I' for Inactive)
REMARK    1  A    between atoms: C_1  and  O_2
REMARK    2  A    between atoms: O_2  and  C_3
REMARK    3  A    between atoms: C_7  and  N_8
REMARK    4  A    between atoms: N_11  and  C_12
REMARK    5  A    between atoms: C_12  and  C_13
REMARK    6  A    between atoms: C_13  and  O_14
REMARK    7  A    between atoms: C_13  and  C_15
REMARK    8  A    between atoms: C_15  and  O_16
REMARK    9  A    between atoms: O_16  and  C_17
REMARK                            x       y       z     vdW  Elec       q    Type
REMARK                         _______ _______ _______ _____ _____    ______ ____
ROOT
ATOM      1  N   UNL     1       2.078   6.658  20.206  0.00  0.00    +0.000 N 
ATOM      2  C   UNL     1       1.589   5.557  21.055  0.00  0.00    +0.000 C 
ATOM      3  C   UNL     1       0.936   4.414  20.236  0.00  0.00    +0.000 C 
ATOM      4  N   UNL     1       1.708   3.960  19.052  0.00  0.00    +0.000 NA
ATOM      5  C   UNL     1       1.925   5.170  18.218  0.00  0.00    +0.000 C 
ATOM      6  C   UNL     1       2.720   6.288  18.929  0.00  0.00    +0.000 C 
ENDROOT
BRANCH   1  11
ATOM      7  C   UNL     1       1.104  10.157  19.383  0.00  0.00    +0.000 A 
ATOM      8  C   UNL     1       0.643  10.590  20.623  0.00  0.00    +0.000 A 
ATOM      9  C   UNL     1       0.637   9.722  21.713  0.00  0.00    +0.000 A 
ATOM     10  C   UNL     1       1.109   8.415  21.556  0.00  0.00    +0.000 A 
ATOM     11  C   UNL     1       1.590   7.952  20.323  0.00  0.00    +0.000 A 
ATOM     12  C   UNL     1       1.566   8.842  19.244  0.00  0.00    +0.000 A 
BRANCH   7  14
ATOM     13  C   UNL     1       1.939  12.218  18.554  0.00  0.00    +0.000 C 
ATOM     14  O   UNL     1       1.078  11.095  18.387  0.00  0.00    +0.000 OA
ENDBRANCH   7  14
ENDBRANCH   1  11
BRANCH   4  15
ATOM     15  C   UNL     1       2.971   3.308  19.474  0.00  0.00    +0.000 C 
BRANCH  15  16
ATOM     16  C   UNL     1       3.668   2.390  18.437  0.00  0.00    +0.000 C 
BRANCH  16  17
ATOM     17  O   UNL     1       2.731   1.887  17.469  0.00  0.00    +0.000 OA
ATOM     18  H   UNL     1       3.213   1.348  16.821  0.00  0.00    +0.000 HD
ENDBRANCH  16  17
BRANCH  16  19
ATOM     19  C   UNL     1       4.750   3.188  17.687  0.00  0.00    +0.000 C 
BRANCH  19  20
ATOM     20  O   UNL     1       5.565   3.851  18.656  0.00  0.00    +0.000 OA
BRANCH  20  21
ATOM     21  C   UNL     1       6.149   5.016  18.256  0.00  0.00    +0.000 A 
ATOM     22  C   UNL     1       7.281   5.384  18.989  0.00  0.00    +0.000 A 
ATOM     23  C   UNL     1       7.960   6.564  18.688  0.00  0.00    +0.000 A 
ATOM     24  C   UNL     1       7.515   7.357  17.640  0.00  0.00    +0.000 A 
ATOM     25  F   UNL     1       8.161   8.493  17.349  0.00  0.00    +0.000 F 
ATOM     26  C   UNL     1       6.412   6.985  16.879  0.00  0.00    +0.000 A 
ATOM     27  C   UNL     1       5.727   5.806  17.185  0.00  0.00    +0.000 A 
ENDBRANCH  20  21
ENDBRANCH  19  20
ENDBRANCH  16  19
ENDBRANCH  15  16
ENDBRANCH   4  15
TORSDOF 8
ENDMDL
MODEL 7
REMARK VINA RESULT:      -7.3      1.382      2.057
REMARK  Name = 
REMARK  9 active torsions:
REMARK  status: ('A' for Active; 'I' for Inactive)
REMARK    1  A    between atoms: C_1  and  O_2
REMARK    2  A    between atoms: O_2  and  C_3
REMARK    3  A    between atoms: C_7  and  N_8
REMARK    4  A    between atoms: N_11  and  C_12
REMARK    5  A    between atoms: C_12  and  C_13
REMARK    6  A    between atoms: C_13  and  O_14
REMARK    7  A    between atoms: C_13  and  C_15
REMARK    8  A    between atoms: C_15  and  O_16
REMARK    9  A    between atoms: O_16  and  C_17
REMARK                            x       y       z     vdW  Elec       q    Type
REMARK                         _______ _______ _______ _____ _____    ______ ____
ROOT
ATOM      1  N   UNL     1       4.404   4.180  17.841  0.00  0.00    +0.000 N 
ATOM      2  C   UNL     1       2.983   3.832  17.665  0.00  0.00    +0.000 C 
ATOM      3  C   UNL     1       2.625   2.452  18.274  0.00  0.00    +0.000 C 
ATOM      4  N   UNL     1       3.136   2.211  19.646  0.00  0.00    +0.000 NA
ATOM      5  C   UNL     1       4.607   2.408  19.574  0.00  0.00    +0.000 C 
ATOM      6  C   UNL     1       5.029   3.826  19.130  0.00  0.00    +0.000 C 
ENDROOT
BRANCH   1  11
ATOM      7  C   UNL     1       5.835   4.115  14.403  0.00  0.00    +0.000 A 
ATOM      8  C   UNL     1       7.025   4.806  14.610  0.00  0.00    +0.000 A 
ATOM      9  C   UNL     1       7.336   5.306  15.873  0.00  0.00    +0.000 A 
ATOM     10  C   UNL     1       6.451   5.098  16.935  0.00  0.00    +0.000 A 
ATOM     11  C   UNL     1       5.249   4.395  16.760  0.00  0.00    +0.000 A 
ATOM     12  C   UNL     1       4.957   3.922  15.477  0.00  0.00    +0.000 A 
BRANCH   7  14
ATOM     13  C   UNL     1       6.736   3.788  12.232  0.00  0.00    +0.000 C 
ATOM     14  O   UNL     1       5.637   3.656  13.129  0.00  0.00    +0.000 OA
ENDBRANCH   7  14
ENDBRANCH   1  11
BRANCH   4  15
ATOM     15  C   UNL     1       2.473   3.116  20.615  0.00  0.00    +0.000 C 
BRANCH  15  16
ATOM     16  C   UNL     1       1.503   4.177  20.035  0.00  0.00    +0.000 C 
BRANCH  16  17
ATOM     17  O   UNL     1       0.131   3.803  20.243  0.00  0.00    +0.000 OA
ATOM     18  H   UNL     1       0.024   3.509  21.163  0.00  0.00    +0.000 HD
ENDBRANCH  16  17
BRANCH  16  19
ATOM     19  C   UNL     1       1.741   5.530  20.731  0.00  0.00    +0.000 C 
BRANCH  19  20
ATOM     20  O   UNL     1       2.530   6.344  19.860  0.00  0.00    +0.000 OA
BRANCH  20  21
ATOM     21  C   UNL     1       2.040   7.588  19.591  0.00  0.00    +0.000 A 
ATOM     22  C   UNL     1       2.288   8.047  18.294  0.00  0.00    +0.000 A 
ATOM     23  C   UNL     1       1.852   9.311  17.900  0.00  0.00    +0.000 A 
ATOM     24  C   UNL     1       1.150  10.100  18.800  0.00  0.00    +0.000 A 
ATOM     25  F   UNL     1       0.732  11.316  18.428  0.00  0.00    +0.000 F 
ATOM     26  C   UNL     1       0.865   9.642  20.082  0.00  0.00    +0.000 A 
ATOM     27  C   UNL     1       1.308   8.378  20.480  0.00  0.00    +0.000 A 
ENDBRANCH  20  21
ENDBRANCH  19  20
ENDBRANCH  16  19
ENDBRANCH  15  16
ENDBRANCH   4  15
TORSDOF 8
ENDMDL
MODEL 8
REMARK VINA RESULT:      -7.2      2.375      3.617
REMARK  Name = 
REMARK  9 active torsions:
REMARK  status: ('A' for Active; 'I' for Inactive)
REMARK    1  A    between atoms: C_1  and  O_2
REMARK    2  A    between atoms: O_2  and  C_3
REMARK    3  A    between atoms: C_7  and  N_8
REMARK    4  A    between atoms: N_11  and  C_12
REMARK    5  A    between atoms: C_12  and  C_13
REMARK    6  A    between atoms: C_13  and  O_14
REMARK    7  A    between atoms: C_13  and  C_15
REMARK    8  A    between atoms: C_15  and  O_16
REMARK    9  A    between atoms: O_16  and  C_17
REMARK                            x       y       z     vdW  Elec       q    Type
REMARK                         _______ _______ _______ _____ _____    ______ ____
ROOT
ATOM      1  N   UNL     1       5.688   4.953  15.875  0.00  0.00    +0.000 N 
ATOM      2  C   UNL     1       4.532   4.270  16.485  0.00  0.00    +0.000 C 
ATOM      3  C   UNL     1       4.908   3.485  17.767  0.00  0.00    +0.000 C 
ATOM      4  N   UNL     1       5.750   4.224  18.741  0.00  0.00    +0.000 NA
ATOM      5  C   UNL     1       6.960   4.653  17.992  0.00  0.00    +0.000 C 
ATOM      6  C   UNL     1       6.660   5.580  16.793  0.00  0.00    +0.000 C 
ENDROOT
BRANCH   1  11
ATOM      7  C   UNL     1       5.886   3.487  12.458  0.00  0.00    +0.000 A 
ATOM      8  C   UNL     1       7.075   4.052  12.007  0.00  0.00    +0.000 A 
ATOM      9  C   UNL     1       7.790   4.927  12.823  0.00  0.00    +0.000 A 
ATOM     10  C   UNL     1       7.312   5.224  14.102  0.00  0.00    +0.000 A 
ATOM     11  C   UNL     1       6.123   4.661  14.589  0.00  0.00    +0.000 A 
ATOM     12  C   UNL     1       5.419   3.801  13.740  0.00  0.00    +0.000 A 
BRANCH   7  14
ATOM     13  C   UNL     1       3.966   3.000  11.150  0.00  0.00    +0.000 C 
ATOM     14  O   UNL     1       5.273   2.632  11.581  0.00  0.00    +0.000 OA
ENDBRANCH   7  14
ENDBRANCH   1  11
BRANCH   4  15
ATOM     15  C   UNL     1       4.994   5.357  19.327  0.00  0.00    +0.000 C 
BRANCH  15  16
ATOM     16  C   UNL     1       3.460   5.186  19.458  0.00  0.00    +0.000 C 
BRANCH  16  17
ATOM     17  O   UNL     1       3.062   5.067  20.834  0.00  0.00    +0.000 OA
ATOM     18  H   UNL     1       3.845   4.854  21.368  0.00  0.00    +0.000 HD
ENDBRANCH  16  17
BRANCH  16  19
ATOM     19  C   UNL     1       2.750   6.413  18.858  0.00  0.00    +0.000 C 
BRANCH  19  20
ATOM     20  O   UNL     1       2.009   7.052  19.900  0.00  0.00    +0.000 OA
BRANCH  20  21
ATOM     21  C   UNL     1       1.634   8.342  19.669  0.00  0.00    +0.000 A 
ATOM     22  C   UNL     1       1.908   8.808  18.379  0.00  0.00    +0.000 A 
ATOM     23  C   UNL     1       1.587  10.117  18.022  0.00  0.00    +0.000 A 
ATOM     24  C   UNL     1       0.972  10.945  18.951  0.00  0.00    +0.000 A 
ATOM     25  F   UNL     1       0.665  12.203  18.615  0.00  0.00    +0.000 F 
ATOM     26  C   UNL     1       0.662  10.483  20.226  0.00  0.00    +0.000 A 
ATOM     27  C   UNL     1       0.990   9.174  20.587  0.00  0.00    +0.000 A 
ENDBRANCH  20  21
ENDBRANCH  19  20
ENDBRANCH  16  19
ENDBRANCH  15  16
ENDBRANCH   4  15
TORSDOF 8
ENDMDL
MODEL 9
REMARK VINA RESULT:      -7.1      2.631      6.267
REMARK  Name = 
REMARK  9 active torsions:
REMARK  status: ('A' for Active; 'I' for Inactive)
REMARK    1  A    between atoms: C_1  and  O_2
REMARK    2  A    between atoms: O_2  and  C_3
REMARK    3  A    between atoms: C_7  and  N_8
REMARK    4  A    between atoms: N_11  and  C_12
REMARK    5  A    between atoms: C_12  and  C_13
REMARK    6  A    between atoms: C_13  and  O_14
REMARK    7  A    between atoms: C_13  and  C_15
REMARK    8  A    between atoms: C_15  and  O_16
REMARK    9  A    between atoms: O_16  and  C_17
REMARK                            x       y       z     vdW  Elec       q    Type
REMARK                         _______ _______ _______ _____ _____    ______ ____
ROOT
ATOM      1  N   UNL     1       2.262   6.896  19.893  0.00  0.00    +0.000 N 
ATOM      2  C   UNL     1       1.818   5.803  20.777  0.00  0.00    +0.000 C 
ATOM      3  C   UNL     1       1.293   4.574  19.992  0.00  0.00    +0.000 C 
ATOM      4  N   UNL     1       2.150   4.124  18.867  0.00  0.00    +0.000 NA
ATOM      5  C   UNL     1       2.313   5.305  17.981  0.00  0.00    +0.000 C 
ATOM      6  C   UNL     1       2.988   6.515  18.665  0.00  0.00    +0.000 C 
ENDROOT
BRANCH   1  11
ATOM      7  C   UNL     1       0.476   9.937  21.088  0.00  0.00    +0.000 A 
ATOM      8  C   UNL     1       0.434  10.684  19.915  0.00  0.00    +0.000 A 
ATOM      9  C   UNL     1       1.012  10.191  18.747  0.00  0.00    +0.000 A 
ATOM     10  C   UNL     1       1.624   8.934  18.757  0.00  0.00    +0.000 A 
ATOM     11  C   UNL     1       1.672   8.152  19.921  0.00  0.00    +0.000 A 
ATOM     12  C   UNL     1       1.100   8.683  21.081  0.00  0.00    +0.000 A 
BRANCH   7  14
ATOM     13  C   UNL     1      -0.393   9.651  23.279  0.00  0.00    +0.000 C 
ATOM     14  O   UNL     1      -0.133  10.510  22.172  0.00  0.00    +0.000 OA
ENDBRANCH   7  14
ENDBRANCH   1  11
BRANCH   4  15
ATOM     15  C   UNL     1       3.438   3.593  19.375  0.00  0.00    +0.000 C 
BRANCH  15  16
ATOM     16  C   UNL     1       4.283   2.743  18.393  0.00  0.00    +0.000 C 
BRANCH  16  17
ATOM     17  O   UNL     1       3.805   1.389  18.327  0.00  0.00    +0.000 OA
ATOM     18  H   UNL     1       2.835   1.398  18.370  0.00  0.00    +0.000 HD
ENDBRANCH  16  17
BRANCH  16  19
ATOM     19  C   UNL     1       4.200   3.349  16.981  0.00  0.00    +0.000 C 
BRANCH  19  20
ATOM     20  O   UNL     1       5.533   3.550  16.504  0.00  0.00    +0.000 OA
BRANCH  20  21
ATOM     21  C   UNL     1       6.190   4.640  16.994  0.00  0.00    +0.000 A 
ATOM     22  C   UNL     1       5.808   5.858  16.423  0.00  0.00    +0.000 A 
ATOM     23  C   UNL     1       6.417   7.045  16.827  0.00  0.00    +0.000 A 
ATOM     24  C   UNL     1       7.388   7.009  17.818  0.00  0.00    +0.000 A 
ATOM     25  F   UNL     1       7.979   8.145  18.207  0.00  0.00    +0.000 F 
ATOM     26  C   UNL     1       7.753   5.809  18.419  0.00  0.00    +0.000 A 
ATOM     27  C   UNL     1       7.148   4.618  18.010  0.00  0.00    +0.000 A 
ENDBRANCH  20  21
ENDBRANCH  19  20
ENDBRANCH  16  19
ENDBRANCH  15  16
ENDBRANCH   4  15
TORSDOF 8
ENDMDL
