MODEL 1
REMARK VINA RESULT:      -7.8      0.000      0.000
REMARK  Name = 
REMARK  7 active torsions:
REMARK  status: ('A' for Active; 'I' for Inactive)
REMARK    1  A    between atoms: C_1  and  O_2
REMARK    2  A    between atoms: O_2  and  C_3
REMARK    3  A    between atoms: C_7  and  C_8
REMARK    4  A    between atoms: C_8  and  C_10
REMARK    5  A    between atoms: C_10  and  O_11
REMARK    6  A    between atoms: O_11  and  C_12
REMARK    7  A    between atoms: C_16  and  C_17
REMARK                            x       y       z     vdW  Elec       q    Type
REMARK                         _______ _______ _______ _____ _____    ______ ____
ROOT
ATOM      1  O   UNL     1       4.705   4.235  15.572  0.00  0.00    +0.000 OA
ENDROOT
BRANCH   1   2
ATOM      2  C   UNL     1       4.063   4.248  16.777  0.00  0.00    +0.000 A 
ATOM      3  C   UNL     1       4.010   3.015  17.429  0.00  0.00    +0.000 A 
ATOM      4  C   UNL     1       3.399   2.886  18.685  0.00  0.00    +0.000 A 
ATOM      5  C   UNL     1       2.839   3.995  19.326  0.00  0.00    +0.000 A 
ATOM      6  C   UNL     1       2.251   3.970  20.674  0.00  0.00    +0.000 A 
ATOM      7  C   UNL     1       2.102   2.708  21.472  0.00  0.00    +0.000 C 
ATOM      8  C   UNL     1       1.844   5.134  21.207  0.00  0.00    +0.000 A 
ATOM      9  C   UNL     1       1.842   6.411  20.479  0.00  0.00    +0.000 A 
ATOM     10  O   UNL     1       1.383   7.424  20.991  0.00  0.00    +0.000 OA
ATOM     11  O   UNL     1       2.357   6.395  19.198  0.00  0.00    +0.000 OA
ATOM     12  C   UNL     1       2.890   5.213  18.643  0.00  0.00    +0.000 A 
ATOM     13  C   UNL     1       3.483   5.355  17.384  0.00  0.00    +0.000 A 
ENDBRANCH   1   2
BRANCH   1  14
ATOM     14  C   UNL     1       6.023   3.704  15.552  0.00  0.00    +0.000 C 
BRANCH  14  15
ATOM     15  C   UNL     1       7.044   4.828  15.461  0.00  0.00    +0.000 C 
ATOM     16  O   UNL     1       7.573   5.112  14.383  0.00  0.00    +0.000 OA
BRANCH  15  21
ATOM     17  C   UNL     1       7.734   7.755  17.812  0.00  0.00    +0.000 A 
ATOM     18  C   UNL     1       8.034   7.062  18.983  0.00  0.00    +0.000 A 
ATOM     19  C   UNL     1       7.996   5.669  19.016  0.00  0.00    +0.000 A 
ATOM     20  C   UNL     1       7.665   4.961  17.861  0.00  0.00    +0.000 A 
ATOM     21  C   UNL     1       7.364   5.642  16.673  0.00  0.00    +0.000 A 
ATOM     22  C   UNL     1       7.404   7.043  16.655  0.00  0.00    +0.000 A 
BRANCH  17  24
ATOM     23  C   UNL     1       8.913   9.647  18.654  0.00  0.00    +0.000 C 
ATOM     24  O   UNL     1       7.821   9.116  17.916  0.00  0.00    +0.000 OA
ENDBRANCH  17  24
ENDBRANCH  15  21
ENDBRANCH  14  15
ENDBRANCH   1  14
TORSDOF 5
ENDMDL
MODEL 2
REMARK VINA RESULT:      -7.7      2.737      4.719
REMARK  Name = 
REMARK  7 active torsions:
REMARK  status: ('A' for Active; 'I' for Inactive)
REMARK    1  A    between atoms: C_1  and  O_2
REMARK    2  A    between atoms: O_2  and  C_3
REMARK    3  A    between atoms: C_7  and  C_8
REMARK    4  A    between atoms: C_8  and  C_10
REMARK    5  A    between atoms: C_10  and  O_11
REMARK    6  A    between atoms: O_11  and  C_12
REMARK    7  A    between atoms: C_16  and  C_17
REMARK                            x       y       z     vdW  Elec       q    Type
REMARK                         _______ _______ _______ _____ _____    ______ ____
ROOT
ATOM      1  O   UNL     1       2.754   5.893  18.004  0.00  0.00    +0.000 OA
ENDROOT
BRANCH   1   2
ATOM      2  C   UNL     1       2.273   7.022  18.602  0.00  0.00    +0.000 A 
ATOM      3  C   UNL     1       1.999   8.078  17.732  0.00  0.00    +0.000 A 
ATOM      4  C   UNL     1       1.481   9.292  18.206  0.00  0.00    +0.000 A 
ATOM      5  C   UNL     1       1.209   9.472  19.566  0.00  0.00    +0.000 A 
ATOM      6  C   UNL     1       0.593  10.677  20.142  0.00  0.00    +0.000 A 
ATOM      7  C   UNL     1       0.276  11.896  19.326  0.00  0.00    +0.000 C 
ATOM      8  C   UNL     1       0.295  10.669  21.451  0.00  0.00    +0.000 A 
ATOM      9  C   UNL     1       0.656   9.577  22.366  0.00  0.00    +0.000 A 
ATOM     10  O   UNL     1       0.428   9.664  23.566  0.00  0.00    +0.000 OA
ATOM     11  O   UNL     1       1.275   8.478  21.806  0.00  0.00    +0.000 OA
ATOM     12  C   UNL     1       1.510   8.405  20.417  0.00  0.00    +0.000 A 
ATOM     13  C   UNL     1       2.041   7.194  19.961  0.00  0.00    +0.000 A 
ENDBRANCH   1   2
BRANCH   1  14
ATOM     14  C   UNL     1       2.820   4.722  18.805  0.00  0.00    +0.000 C 
BRANCH  14  15
ATOM     15  C   UNL     1       4.217   4.122  18.749  0.00  0.00    +0.000 C 
ATOM     16  O   UNL     1       4.581   3.294  19.588  0.00  0.00    +0.000 OA
BRANCH  15  21
ATOM     17  C   UNL     1       6.869   5.865  16.627  0.00  0.00    +0.000 A 
ATOM     18  C   UNL     1       6.771   5.120  15.454  0.00  0.00    +0.000 A 
ATOM     19  C   UNL     1       5.872   4.059  15.357  0.00  0.00    +0.000 A 
ATOM     20  C   UNL     1       5.055   3.746  16.443  0.00  0.00    +0.000 A 
ATOM     21  C   UNL     1       5.139   4.487  17.629  0.00  0.00    +0.000 A 
ATOM     22  C   UNL     1       6.048   5.550  17.714  0.00  0.00    +0.000 A 
BRANCH  17  24
ATOM     23  C   UNL     1       7.711   7.868  17.606  0.00  0.00    +0.000 C 
ATOM     24  O   UNL     1       7.781   6.883  16.583  0.00  0.00    +0.000 OA
ENDBRANCH  17  24
ENDBRANCH  15  21
ENDBRANCH  14  15
ENDBRANCH   1  14
TORSDOF 5
ENDMDL
MODEL 3
REMARK VINA RESULT:      -7.5      2.505      4.695
REMARK  Name = 
REMARK  7 active torsions:
REMARK  status: ('A' for Active; 'I' for Inactive)
REMARK    1  A    between atoms: C_1  and  O_2
REMARK    2  A    between atoms: O_2  and  C_3
REMARK    3  A    between atoms: C_7  and  C_8
REMARK    4  A    between atoms: C_8  and  C_10
REMARK    5  A    between atoms: C_10  and  O_11
REMARK    6  A    between atoms: O_11  and  C_12
REMARK    7  A    between atoms: C_16  and  C_17
REMARK                            x       y       z     vdW  Elec       q    Type
REMARK                         _______ _______ _______ _____ _____    ______ ____
ROOT
ATOM      1  O   UNL     1       5.148   6.385  16.391  0.00  0.00    +0.000 OA
ENDROOT
BRANCH   1   2
ATOM      2  C   UNL     1       4.416   5.667  17.291  0.00  0.00    +0.000 A 
ATOM      3  C   UNL     1       4.680   5.958  18.631  0.00  0.00    +0.000 A 
ATOM      4  C   UNL     1       3.987   5.309  19.663  0.00  0.00    +0.000 A 
ATOM      5  C   UNL     1       2.998   4.363  19.377  0.00  0.00    +0.000 A 
ATOM      6  C   UNL     1       2.166   3.693  20.388  0.00  0.00    +0.000 A 
ATOM      7  C   UNL     1       2.365   3.890  21.863  0.00  0.00    +0.000 C 
ATOM      8  C   UNL     1       1.183   2.884  19.962  0.00  0.00    +0.000 A 
ATOM      9  C   UNL     1       0.966   2.533  18.552  0.00  0.00    +0.000 A 
ATOM     10  O   UNL     1       0.102   1.726  18.232  0.00  0.00    +0.000 OA
ATOM     11  O   UNL     1       1.791   3.141  17.627  0.00  0.00    +0.000 OA
ATOM     12  C   UNL     1       2.766   4.078  18.029  0.00  0.00    +0.000 A 
ATOM     13  C   UNL     1       3.460   4.705  16.988  0.00  0.00    +0.000 A 
ENDBRANCH   1   2
BRANCH   1  14
ATOM     14  C   UNL     1       6.557   6.399  16.575  0.00  0.00    +0.000 C 
BRANCH  14  15
ATOM     15  C   UNL     1       7.174   5.121  16.028  0.00  0.00    +0.000 C 
ATOM     16  O   UNL     1       7.729   4.317  16.781  0.00  0.00    +0.000 OA
BRANCH  15  21
ATOM     17  C   UNL     1       6.107   3.554  12.714  0.00  0.00    +0.000 A 
ATOM     18  C   UNL     1       6.949   4.236  11.839  0.00  0.00    +0.000 A 
ATOM     19  C   UNL     1       7.838   5.202  12.312  0.00  0.00    +0.000 A 
ATOM     20  C   UNL     1       7.890   5.480  13.678  0.00  0.00    +0.000 A 
ATOM     21  C   UNL     1       7.052   4.800  14.572  0.00  0.00    +0.000 A 
ATOM     22  C   UNL     1       6.163   3.834  14.083  0.00  0.00    +0.000 A 
BRANCH  17  24
ATOM     23  C   UNL     1       5.923   1.601  11.361  0.00  0.00    +0.000 C 
ATOM     24  O   UNL     1       5.296   2.627  12.120  0.00  0.00    +0.000 OA
ENDBRANCH  17  24
ENDBRANCH  15  21
ENDBRANCH  14  15
ENDBRANCH   1  14
TORSDOF 5
ENDMDL
MODEL 4
REMARK VINA RESULT:      -7.5      2.936      5.051
REMARK  Name = 
REMARK  7 active torsions:
REMARK  status: ('A' for Active; 'I' for Inactive)
REMARK    1  A    between atoms: C_1  and  O_2
REMARK    2  A    between atoms: O_2  and  C_3
REMARK    3  A    between atoms: C_7  and  C_8
REMARK    4  A    between atoms: C_8  and  C_10
REMARK    5  A    between atoms: C_10  and  O_11
REMARK    6  A    between atoms: O_11  and  C_12
REMARK    7  A    between atoms: C_16  and  C_17
REMARK                            x       y       z     vdW  Elec       q    Type
REMARK                         _______ _______ _______ _____ _____    ______ ____
ROOT
ATOM      1  O   UNL     1       3.085   6.124  18.589  0.00  0.00    +0.000 OA
ENDROOT
BRANCH   1   2
ATOM      2  C   UNL     1       2.418   7.251  18.974  0.00  0.00    +0.000 A 
ATOM      3  C   UNL     1       2.095   8.128  17.937  0.00  0.00    +0.000 A 
ATOM      4  C   UNL     1       1.392   9.315  18.185  0.00  0.00    +0.000 A 
ATOM      5  C   UNL     1       0.980   9.646  19.480  0.00  0.00    +0.000 A 
ATOM      6  C   UNL     1       0.171  10.826  19.822  0.00  0.00    +0.000 A 
ATOM      7  C   UNL     1      -0.218  11.865  18.811  0.00  0.00    +0.000 C 
ATOM      8  C   UNL     1      -0.240  10.963  21.093  0.00  0.00    +0.000 A 
ATOM      9  C   UNL     1       0.169  10.069  22.186  0.00  0.00    +0.000 A 
ATOM     10  O   UNL     1      -0.175  10.292  23.339  0.00  0.00    +0.000 OA
ATOM     11  O   UNL     1       0.966   8.995  21.843  0.00  0.00    +0.000 OA
ATOM     12  C   UNL     1       1.332   8.760  20.501  0.00  0.00    +0.000 A 
ATOM     13  C   UNL     1       2.046   7.579  20.272  0.00  0.00    +0.000 A 
ENDBRANCH   1   2
BRANCH   1  14
ATOM     14  C   UNL     1       2.304   4.955  18.383  0.00  0.00    +0.000 C 
BRANCH  14  15
ATOM     15  C   UNL     1       3.003   4.016  17.411  0.00  0.00    +0.000 C 
ATOM     16  O   UNL     1       2.380   3.109  16.854  0.00  0.00    +0.000 OA
BRANCH  15  21
ATOM     17  C   UNL     1       6.767   4.592  17.683  0.00  0.00    +0.000 A 
ATOM     18  C   UNL     1       7.096   4.696  16.334  0.00  0.00    +0.000 A 
ATOM     19  C   UNL     1       6.117   4.565  15.349  0.00  0.00    +0.000 A 
ATOM     20  C   UNL     1       4.792   4.337  15.721  0.00  0.00    +0.000 A 
ATOM     21  C   UNL     1       4.444   4.233  17.074  0.00  0.00    +0.000 A 
ATOM     22  C   UNL     1       5.438   4.365  18.053  0.00  0.00    +0.000 A 
BRANCH  17  24
ATOM     23  C   UNL     1       7.692   5.744  19.553  0.00  0.00    +0.000 C 
ATOM     24  O   UNL     1       7.819   4.753  18.542  0.00  0.00    +0.000 OA
ENDBRANCH  17  24
ENDBRANCH  15  21
ENDBRANCH  14  15
ENDBRANCH   1  14
TORSDOF 5
ENDMDL
MODEL 5
REMARK VINA RESULT:      -7.4      3.056      6.260
REMARK  Name = 
REMARK  7 active torsions:
REMARK  status: ('A' for Active; 'I' for Inactive)
REMARK    1  A    between atoms: C_1  and  O_2
REMARK    2  A    between atoms: O_2  and  C_3
REMARK    3  A    between atoms: C_7  and  C_8
REMARK    4  A    between atoms: C_8  and  C_10
REMARK    5  A    between atoms: C_10  and  O_11
REMARK    6  A    between atoms: O_11  and  C_12
REMARK    7  A    between atoms: C_16  and  C_17
REMARK                            x       y       z     vdW  Elec       q    Type
REMARK                         _______ _______ _______ _____ _____    ______ ____
ROOT
ATOM      1  O   UNL     1       2.800   6.807  17.784  0.00  0.00    +0.000 OA
ENDROOT
BRANCH   1   2
ATOM      2  C   UNL     1       2.150   7.758  18.517  0.00  0.00    +0.000 A 
ATOM      3  C   UNL     1       1.567   8.781  17.768  0.00  0.00    +0.000 A 
ATOM      4  C   UNL     1       0.850   9.815  18.390  0.00  0.00    +0.000 A 
ATOM      5  C   UNL     1       0.687   9.838  19.778  0.00  0.00    +0.000 A 
ATOM      6  C   UNL     1      -0.113  10.834  20.508  0.00  0.00    +0.000 A 
ATOM      7  C   UNL     1      -0.767  12.003  19.831  0.00  0.00    +0.000 C 
ATOM      8  C   UNL     1      -0.268  10.673  21.831  0.00  0.00    +0.000 A 
ATOM      9  C   UNL     1       0.412   9.631  22.614  0.00  0.00    +0.000 A 
ATOM     10  O   UNL     1       0.295   9.585  23.832  0.00  0.00    +0.000 OA
ATOM     11  O   UNL     1       1.194   8.738  21.909  0.00  0.00    +0.000 OA
ATOM     12  C   UNL     1       1.296   8.812  20.504  0.00  0.00    +0.000 A 
ATOM     13  C   UNL     1       2.026   7.782  19.901  0.00  0.00    +0.000 A 
ENDBRANCH   1   2
BRANCH   1  14
ATOM     14  C   UNL     1       4.211   6.738  17.929  0.00  0.00    +0.000 C 
BRANCH  14  15
ATOM     15  C   UNL     1       4.627   5.356  18.410  0.00  0.00    +0.000 C 
ATOM     16  O   UNL     1       5.785   5.138  18.773  0.00  0.00    +0.000 OA
BRANCH  15  21
ATOM     17  C   UNL     1       1.852   3.058  19.672  0.00  0.00    +0.000 A 
ATOM     18  C   UNL     1       1.781   2.156  18.613  0.00  0.00    +0.000 A 
ATOM     19  C   UNL     1       2.608   2.299  17.498  0.00  0.00    +0.000 A 
ATOM     20  C   UNL     1       3.522   3.351  17.449  0.00  0.00    +0.000 A 
ATOM     21  C   UNL     1       3.608   4.266  18.508  0.00  0.00    +0.000 A 
ATOM     22  C   UNL     1       2.770   4.111  19.620  0.00  0.00    +0.000 A 
BRANCH  17  24
ATOM     23  C   UNL     1       1.568   2.541  21.981  0.00  0.00    +0.000 C 
ATOM     24  O   UNL     1       0.994   2.794  20.705  0.00  0.00    +0.000 OA
ENDBRANCH  17  24
ENDBRANCH  15  21
ENDBRANCH  14  15
ENDBRANCH   1  14
TORSDOF 5
ENDMDL
MODEL 6
REMARK VINA RESULT:      -7.4      3.133      5.691
REMARK  Name = 
REMARK  7 active torsions:
REMARK  status: ('A' for Active; 'I' for Inactive)
REMARK    1  A    between atoms: C_1  and  O_2
REMARK    2  A    between atoms: O_2  and  C_3
REMARK    3  A    between atoms: C_7  and  C_8
REMARK    4  A    between atoms: C_8  and  C_10
REMARK    5  A    between atoms: C_10  and  O_11
REMARK    6  A    between atoms: O_11  and  C_12
REMARK    7  A    between atoms: C_16  and  C_17
REMARK                            x       y       z     vdW  Elec       q    Type
REMARK                         _______ _______ _______ _____ _____    ______ ____
ROOT
ATOM      1  O   UNL     1       6.226   5.199  16.111  0.00  0.00    +0.000 OA
ENDROOT
BRANCH   1   2
ATOM      2  C   UNL     1       5.182   5.013  16.971  0.00  0.00    +0.000 A 
ATOM      3  C   UNL     1       5.077   5.967  17.985  0.00  0.00    +0.000 A 
ATOM      4  C   UNL     1       4.041   5.911  18.928  0.00  0.00    +0.000 A 
ATOM      5  C   UNL     1       3.072   4.904  18.868  0.00  0.00    +0.000 A 
ATOM      6  C   UNL     1       1.908   4.813  19.762  0.00  0.00    +0.000 A 
ATOM      7  C   UNL     1       1.690   5.753  20.911  0.00  0.00    +0.000 C 
ATOM      8  C   UNL     1       1.002   3.851  19.523  0.00  0.00    +0.000 A 
ATOM      9  C   UNL     1       1.165   2.811  18.496  0.00  0.00    +0.000 A 
ATOM     10  O   UNL     1       0.342   1.912  18.379  0.00  0.00    +0.000 OA
ATOM     11  O   UNL     1       2.290   2.895  17.702  0.00  0.00    +0.000 OA
ATOM     12  C   UNL     1       3.211   3.952  17.855  0.00  0.00    +0.000 A 
ATOM     13  C   UNL     1       4.248   3.986  16.916  0.00  0.00    +0.000 A 
ENDBRANCH   1   2
BRANCH   1  14
ATOM     14  C   UNL     1       6.641   4.070  15.354  0.00  0.00    +0.000 C 
BRANCH  14  15
ATOM     15  C   UNL     1       6.754   4.435  13.881  0.00  0.00    +0.000 C 
ATOM     16  O   UNL     1       7.464   5.375  13.518  0.00  0.00    +0.000 OA
BRANCH  15  21
ATOM     17  C   UNL     1       5.918   1.719  11.332  0.00  0.00    +0.000 A 
ATOM     18  C   UNL     1       4.674   2.167  10.896  0.00  0.00    +0.000 A 
ATOM     19  C   UNL     1       4.105   3.322  11.432  0.00  0.00    +0.000 A 
ATOM     20  C   UNL     1       4.795   4.041  12.407  0.00  0.00    +0.000 A 
ATOM     21  C   UNL     1       6.050   3.606  12.854  0.00  0.00    +0.000 A 
ATOM     22  C   UNL     1       6.608   2.442  12.309  0.00  0.00    +0.000 A 
BRANCH  17  24
ATOM     23  C   UNL     1       6.066  -0.660  11.341  0.00  0.00    +0.000 C 
ATOM     24  O   UNL     1       6.363   0.581  10.715  0.00  0.00    +0.000 OA
ENDBRANCH  17  24
ENDBRANCH  15  21
ENDBRANCH  14  15
ENDBRANCH   1  14
TORSDOF 5
ENDMDL
MODEL 7
REMARK VINA RESULT:      -7.4      2.878      4.664
REMARK  Name = 
REMARK  7 active torsions:
REMARK  status: ('A' for Active; 'I' for Inactive)
REMARK    1  A    between atoms: C_1  and  O_2
REMARK    2  A    between atoms: O_2  and  C_3
REMARK    3  A    between atoms: C_7  and  C_8
REMARK    4  A    between atoms: C_8  and  C_10
REMARK    5  A    between atoms: C_10  and  O_11
REMARK    6  A    between atoms: O_11  and  C_12
REMARK    7  A    between atoms: C_16  and  C_17
REMARK                            x       y       z     vdW  Elec       q    Type
REMARK                         _______ _______ _______ _____ _____    ______ ____
ROOT
ATOM      1  O   UNL     1       2.967   5.644  18.682  0.00  0.00    +0.000 OA
ENDROOT
BRANCH   1   2
ATOM      2  C   UNL     1       2.348   6.745  19.200  0.00  0.00    +0.000 A 
ATOM      3  C   UNL     1       1.831   6.579  20.486  0.00  0.00    +0.000 A 
ATOM      4  C   UNL     1       1.187   7.634  21.149  0.00  0.00    +0.000 A 
ATOM      5  C   UNL     1       1.059   8.888  20.544  0.00  0.00    +0.000 A 
ATOM      6  C   UNL     1       0.472  10.071  21.192  0.00  0.00    +0.000 A 
ATOM      7  C   UNL     1      -0.147  10.025  22.558  0.00  0.00    +0.000 C 
ATOM      8  C   UNL     1       0.510  11.238  20.529  0.00  0.00    +0.000 A 
ATOM      9  C   UNL     1       0.994  11.379  19.148  0.00  0.00    +0.000 A 
ATOM     10  O   UNL     1       0.928  12.456  18.568  0.00  0.00    +0.000 OA
ATOM     11  O   UNL     1       1.496  10.242  18.548  0.00  0.00    +0.000 OA
ATOM     12  C   UNL     1       1.570   9.021  19.250  0.00  0.00    +0.000 A 
ATOM     13  C   UNL     1       2.202   7.975  18.570  0.00  0.00    +0.000 A 
ENDBRANCH   1   2
BRANCH   1  14
ATOM     14  C   UNL     1       3.346   4.629  19.602  0.00  0.00    +0.000 C 
BRANCH  14  15
ATOM     15  C   UNL     1       4.624   3.947  19.139  0.00  0.00    +0.000 C 
ATOM     16  O   UNL     1       5.075   2.974  19.748  0.00  0.00    +0.000 OA
BRANCH  15  21
ATOM     17  C   UNL     1       6.806   5.903  16.692  0.00  0.00    +0.000 A 
ATOM     18  C   UNL     1       6.485   5.250  15.503  0.00  0.00    +0.000 A 
ATOM     19  C   UNL     1       5.590   4.181  15.497  0.00  0.00    +0.000 A 
ATOM     20  C   UNL     1       5.001   3.768  16.691  0.00  0.00    +0.000 A 
ATOM     21  C   UNL     1       5.309   4.417  17.895  0.00  0.00    +0.000 A 
ATOM     22  C   UNL     1       6.213   5.488  17.887  0.00  0.00    +0.000 A 
BRANCH  17  24
ATOM     23  C   UNL     1       7.741   7.895  17.605  0.00  0.00    +0.000 C 
ATOM     24  O   UNL     1       7.687   6.940  16.554  0.00  0.00    +0.000 OA
ENDBRANCH  17  24
ENDBRANCH  15  21
ENDBRANCH  14  15
ENDBRANCH   1  14
TORSDOF 5
ENDMDL
MODEL 8
REMARK VINA RESULT:      -7.4      2.581      4.974
REMARK  Name = 
REMARK  7 active torsions:
REMARK  status: ('A' for Active; 'I' for Inactive)
REMARK    1  A    between atoms: C_1  and  O_2
REMARK    2  A    between atoms: O_2  and  C_3
REMARK    3  A    between atoms: C_7  and  C_8
REMARK    4  A    between atoms: C_8  and  C_10
REMARK    5  A    between atoms: C_10  and  O_11
REMARK    6  A    between atoms: O_11  and  C_12
REMARK    7  A    between atoms: C_16  and  C_17
REMARK                            x       y       z     vdW  Elec       q    Type
REMARK                         _______ _______ _______ _____ _____    ______ ____
ROOT
ATOM      1  O   UNL     1       2.847   5.133  18.569  0.00  0.00    +0.000 OA
ENDROOT
BRANCH   1   2
ATOM      2  C   UNL     1       2.424   6.370  18.963  0.00  0.00    +0.000 A 
ATOM      3  C   UNL     1       2.336   7.316  17.941  0.00  0.00    +0.000 A 
ATOM      4  C   UNL     1       1.896   8.623  18.199  0.00  0.00    +0.000 A 
ATOM      5  C   UNL     1       1.518   9.009  19.489  0.00  0.00    +0.000 A 
ATOM      6  C   UNL     1       0.971  10.329  19.839  0.00  0.00    +0.000 A 
ATOM      7  C   UNL     1       0.850  11.446  18.845  0.00  0.00    +0.000 C 
ATOM      8  C   UNL     1       0.553  10.525  21.099  0.00  0.00    +0.000 A 
ATOM      9  C   UNL     1       0.720   9.543  22.179  0.00  0.00    +0.000 A 
ATOM     10  O   UNL     1       0.392   9.812  23.328  0.00  0.00    +0.000 OA
ATOM     11  O   UNL     1       1.280   8.329  21.833  0.00  0.00    +0.000 OA
ATOM     12  C   UNL     1       1.634   8.048  20.497  0.00  0.00    +0.000 A 
ATOM     13  C   UNL     1       2.085   6.745  20.258  0.00  0.00    +0.000 A 
ENDBRANCH   1   2
BRANCH   1  14
ATOM     14  C   UNL     1       3.359   4.277  19.581  0.00  0.00    +0.000 C 
BRANCH  14  15
ATOM     15  C   UNL     1       4.712   3.720  19.167  0.00  0.00    +0.000 C 
ATOM     16  O   UNL     1       5.241   2.808  19.808  0.00  0.00    +0.000 OA
BRANCH  15  21
ATOM     17  C   UNL     1       5.696   4.315  15.526  0.00  0.00    +0.000 A 
ATOM     18  C   UNL     1       6.744   5.217  15.701  0.00  0.00    +0.000 A 
ATOM     19  C   UNL     1       7.115   5.640  16.977  0.00  0.00    +0.000 A 
ATOM     20  C   UNL     1       6.437   5.146  18.091  0.00  0.00    +0.000 A 
ATOM     21  C   UNL     1       5.383   4.236  17.933  0.00  0.00    +0.000 A 
ATOM     22  C   UNL     1       5.019   3.821  16.645  0.00  0.00    +0.000 A 
BRANCH  17  24
ATOM     23  C   UNL     1       6.544   3.987  13.324  0.00  0.00    +0.000 C 
ATOM     24  O   UNL     1       5.445   3.977  14.225  0.00  0.00    +0.000 OA
ENDBRANCH  17  24
ENDBRANCH  15  21
ENDBRANCH  14  15
ENDBRANCH   1  14
TORSDOF 5
ENDMDL
MODEL 9
REMARK VINA RESULT:      -7.3      2.206      4.337
REMARK  Name = 
REMARK  7 active torsions:
REMARK  status: ('A' for Active; 'I' for Inactive)
REMARK    1  A    between atoms: C_1  and  O_2
REMARK    2  A    between atoms: O_2  and  C_3
REMARK    3  A    between atoms: C_7  and  C_8
REMARK    4  A    between atoms: C_8  and  C_10
REMARK    5  A    between atoms: C_10  and  O_11
REMARK    6  A    between atoms: O_11  and  C_12
REMARK    7  A    between atoms: C_16  and  C_17
REMARK                            x       y       z     vdW  Elec       q    Type
REMARK                         _______ _______ _______ _____ _____    ______ ____
ROOT
ATOM      1  O   UNL     1       2.279   3.969  19.592  0.00  0.00    +0.000 OA
ENDROOT
BRANCH   1   2
ATOM      2  C   UNL     1       2.119   5.325  19.590  0.00  0.00    +0.000 A 
ATOM      3  C   UNL     1       2.376   5.946  18.366  0.00  0.00    +0.000 A 
ATOM      4  C   UNL     1       2.232   7.333  18.214  0.00  0.00    +0.000 A 
ATOM      5  C   UNL     1       1.811   8.131  19.282  0.00  0.00    +0.000 A 
ATOM      6  C   UNL     1       1.556   9.577  19.194  0.00  0.00    +0.000 A 
ATOM      7  C   UNL     1       1.820  10.373  17.950  0.00  0.00    +0.000 C 
ATOM      8  C   UNL     1       1.055  10.196  20.275  0.00  0.00    +0.000 A 
ATOM      9  C   UNL     1       0.859   9.541  21.576  0.00  0.00    +0.000 A 
ATOM     10  O   UNL     1       0.473  10.180  22.547  0.00  0.00    +0.000 OA
ATOM     11  O   UNL     1       1.150   8.194  21.642  0.00  0.00    +0.000 OA
ATOM     12  C   UNL     1       1.579   7.486  20.500  0.00  0.00    +0.000 A 
ATOM     13  C   UNL     1       1.732   6.106  20.672  0.00  0.00    +0.000 A 
ENDBRANCH   1   2
BRANCH   1  14
ATOM     14  C   UNL     1       3.598   3.479  19.785  0.00  0.00    +0.000 C 
BRANCH  14  15
ATOM     15  C   UNL     1       4.310   3.337  18.448  0.00  0.00    +0.000 C 
ATOM     16  O   UNL     1       3.962   2.474  17.638  0.00  0.00    +0.000 OA
BRANCH  15  21
ATOM     17  C   UNL     1       6.879   5.359  16.478  0.00  0.00    +0.000 A 
ATOM     18  C   UNL     1       7.488   6.060  17.517  0.00  0.00    +0.000 A 
ATOM     19  C   UNL     1       7.061   5.893  18.834  0.00  0.00    +0.000 A 
ATOM     20  C   UNL     1       6.021   5.008  19.115  0.00  0.00    +0.000 A 
ATOM     21  C   UNL     1       5.401   4.292  18.082  0.00  0.00    +0.000 A 
ATOM     22  C   UNL     1       5.838   4.471  16.762  0.00  0.00    +0.000 A 
BRANCH  17  24
ATOM     23  C   UNL     1       6.983   4.766  14.172  0.00  0.00    +0.000 C 
ATOM     24  O   UNL     1       7.402   5.607  15.238  0.00  0.00    +0.000 OA
ENDBRANCH  17  24
ENDBRANCH  15  21
ENDBRANCH  14  15
ENDBRANCH   1  14
TORSDOF 5
ENDMDL
