MODEL 1
REMARK VINA RESULT:      -8.2      0.000      0.000
REMARK  Name = 
REMARK  5 active torsions:
REMARK  status: ('A' for Active; 'I' for Inactive)
REMARK    1  A    between atoms: C_2  and  C_4
REMARK    2  A    between atoms: N_7  and  C_8
REMARK    3  A    between atoms: C_8  and  C_9
REMARK    4  A    between atoms: C_12  and  O_13
REMARK    5  A    between atoms: O_13  and  C_14
REMARK                            x       y       z     vdW  Elec       q    Type
REMARK                         _______ _______ _______ _____ _____    ______ ____
ROOT
ATOM      1  C   UNL     1       2.067   7.782  19.368  0.00  0.00    +0.000 A 
ATOM      2  C   UNL     1       2.145   8.388  18.104  0.00  0.00    +0.000 A 
ATOM      3  C   UNL     1       1.489   9.602  17.858  0.00  0.00    +0.000 A 
ATOM      4  C   UNL     1       0.736  10.209  18.864  0.00  0.00    +0.000 A 
ATOM      5  C   UNL     1       0.707   9.643  20.140  0.00  0.00    +0.000 A 
ATOM      6  C   UNL     1       1.361   8.436  20.387  0.00  0.00    +0.000 A 
ENDROOT
BRANCH   1   7
ATOM      7  C   UNL     1       2.689   6.426  19.641  0.00  0.00    +0.000 C 
BRANCH   7  11
ATOM      8  C   UNL     1       2.477   2.517  17.848  0.00  0.00    +0.000 C 
ATOM      9  C   UNL     1       3.173   3.650  17.092  0.00  0.00    +0.000 C 
ATOM     10  C   UNL     1       3.503   4.833  18.006  0.00  0.00    +0.000 C 
ATOM     11  N   UNL     1       2.309   5.350  18.699  0.00  0.00    +0.000 NA
ATOM     12  C   UNL     1       1.629   4.284  19.456  0.00  0.00    +0.000 C 
ATOM     13  C   UNL     1       1.258   3.083  18.581  0.00  0.00    +0.000 C 
BRANCH   8  15
ATOM     14  N   UNL     1       4.101   0.730  18.237  0.00  0.00    +0.000 N 
ATOM     15  C   UNL     1       3.438   1.788  18.785  0.00  0.00    +0.000 C 
ATOM     16  O   UNL     1       3.660   2.109  19.948  0.00  0.00    +0.000 OA
ATOM     17  H   UNL     1       4.805   0.290  18.815  0.00  0.00    +0.000 HD
ATOM     18  H   UNL     1       4.146   0.583  17.240  0.00  0.00    +0.000 HD
ENDBRANCH   8  15
ENDBRANCH   7  11
ENDBRANCH   1   7
BRANCH   4  19
ATOM     19  O   UNL     1       0.097  11.391  18.568  0.00  0.00    +0.000 OA
BRANCH  19  20
ATOM     20  C   UNL     1      -1.240  11.460  18.527  0.00  0.00    +0.000 A 
ATOM     21  N   UNL     1      -1.965  12.096  19.427  0.00  0.00    +0.000 NA
ATOM     22  C   UNL     1      -3.304  11.979  19.106  0.00  0.00    +0.000 A 
ATOM     23  C   UNL     1      -4.403  12.510  19.800  0.00  0.00    +0.000 A 
ATOM     24  C   UNL     1      -5.680  12.251  19.302  0.00  0.00    +0.000 A 
ATOM     25  C   UNL     1      -5.805  11.495  18.145  0.00  0.00    +0.000 A 
ATOM     26  N   UNL     1      -4.783  10.969  17.430  0.00  0.00    +0.000 NA
ATOM     27  C   UNL     1      -3.570  11.239  17.959  0.00  0.00    +0.000 A 
ATOM     28  S   UNL     1      -2.116  10.673  17.276  0.00  0.00    +0.000 S 
ENDBRANCH  19  20
ENDBRANCH   4  19
TORSDOF 5
ENDMDL
MODEL 2
REMARK VINA RESULT:      -8.2      6.868     10.282
REMARK  Name = 
REMARK  5 active torsions:
REMARK  status: ('A' for Active; 'I' for Inactive)
REMARK    1  A    between atoms: C_2  and  C_4
REMARK    2  A    between atoms: N_7  and  C_8
REMARK    3  A    between atoms: C_8  and  C_9
REMARK    4  A    between atoms: C_12  and  O_13
REMARK    5  A    between atoms: O_13  and  C_14
REMARK                            x       y       z     vdW  Elec       q    Type
REMARK                         _______ _______ _______ _____ _____    ______ ____
ROOT
ATOM      1  C   UNL     1       7.911   8.416  17.987  0.00  0.00    +0.000 A 
ATOM      2  C   UNL     1       8.480   7.545  18.929  0.00  0.00    +0.000 A 
ATOM      3  C   UNL     1       8.036   6.218  19.028  0.00  0.00    +0.000 A 
ATOM      4  C   UNL     1       7.009   5.759  18.201  0.00  0.00    +0.000 A 
ATOM      5  C   UNL     1       6.485   6.603  17.221  0.00  0.00    +0.000 A 
ATOM      6  C   UNL     1       6.926   7.921  17.120  0.00  0.00    +0.000 A 
ENDROOT
BRANCH   1   7
ATOM      7  C   UNL     1       8.303   9.878  17.915  0.00  0.00    +0.000 C 
BRANCH   7  11
ATOM      8  C   UNL     1      11.161  12.352  19.977  0.00  0.00    +0.000 C 
ATOM      9  C   UNL     1      11.594  11.600  18.718  0.00  0.00    +0.000 C 
ATOM     10  C   UNL     1      10.396  11.100  17.906  0.00  0.00    +0.000 C 
ATOM     11  N   UNL     1       9.493  10.258  18.709  0.00  0.00    +0.000 NA
ATOM     12  C   UNL     1       9.039  10.967  19.920  0.00  0.00    +0.000 C 
ATOM     13  C   UNL     1      10.202  11.470  20.780  0.00  0.00    +0.000 C 
BRANCH   8  15
ATOM     14  N   UNL     1       9.821  14.291  20.634  0.00  0.00    +0.000 N 
ATOM     15  C   UNL     1      10.560  13.717  19.642  0.00  0.00    +0.000 C 
ATOM     16  O   UNL     1      10.726  14.314  18.583  0.00  0.00    +0.000 OA
ATOM     17  H   UNL     1       9.490  15.232  20.462  0.00  0.00    +0.000 HD
ATOM     18  H   UNL     1       9.862  13.970  21.590  0.00  0.00    +0.000 HD
ENDBRANCH   8  15
ENDBRANCH   7  11
ENDBRANCH   1   7
BRANCH   4  19
ATOM     19  O   UNL     1       6.599   4.455  18.348  0.00  0.00    +0.000 OA
BRANCH  19  20
ATOM     20  C   UNL     1       5.303   4.153  18.502  0.00  0.00    +0.000 A 
ATOM     21  N   UNL     1       4.664   4.245  19.653  0.00  0.00    +0.000 NA
ATOM     22  C   UNL     1       3.348   3.861  19.481  0.00  0.00    +0.000 A 
ATOM     23  C   UNL     1       2.333   3.816  20.451  0.00  0.00    +0.000 A 
ATOM     24  C   UNL     1       1.069   3.376  20.057  0.00  0.00    +0.000 A 
ATOM     25  C   UNL     1       0.870   3.015  18.731  0.00  0.00    +0.000 A 
ATOM     26  N   UNL     1       1.806   3.049  17.755  0.00  0.00    +0.000 NA
ATOM     27  C   UNL     1       3.013   3.471  18.189  0.00  0.00    +0.000 A 
ATOM     28  S   UNL     1       4.376   3.581  17.173  0.00  0.00    +0.000 S 
ENDBRANCH  19  20
ENDBRANCH   4  19
TORSDOF 5
ENDMDL
MODEL 3
REMARK VINA RESULT:      -8.1      1.902      2.686
REMARK  Name = 
REMARK  5 active torsions:
REMARK  status: ('A' for Active; 'I' for Inactive)
REMARK    1  A    between atoms: C_2  and  C_4
REMARK    2  A    between atoms: N_7  and  C_8
REMARK    3  A    between atoms: C_8  and  C_9
REMARK    4  A    between atoms: C_12  and  O_13
REMARK    5  A    between atoms: O_13  and  C_14
REMARK                            x       y       z     vdW  Elec       q    Type
REMARK                         _______ _______ _______ _____ _____    ______ ____
ROOT
ATOM      1  C   UNL     1       3.234   6.828  18.301  0.00  0.00    +0.000 A 
ATOM      2  C   UNL     1       2.610   6.827  19.559  0.00  0.00    +0.000 A 
ATOM      3  C   UNL     1       1.778   7.890  19.938  0.00  0.00    +0.000 A 
ATOM      4  C   UNL     1       1.579   8.968  19.074  0.00  0.00    +0.000 A 
ATOM      5  C   UNL     1       2.146   8.942  17.799  0.00  0.00    +0.000 A 
ATOM      6  C   UNL     1       2.972   7.885  17.419  0.00  0.00    +0.000 A 
ENDROOT
BRANCH   1   7
ATOM      7  C   UNL     1       4.210   5.740  17.895  0.00  0.00    +0.000 C 
BRANCH   7  11
ATOM      8  C   UNL     1       2.054   2.387  19.522  0.00  0.00    +0.000 C 
ATOM      9  C   UNL     1       3.580   2.420  19.631  0.00  0.00    +0.000 C 
ATOM     10  C   UNL     1       4.144   3.818  19.370  0.00  0.00    +0.000 C 
ATOM     11  N   UNL     1       3.722   4.353  18.064  0.00  0.00    +0.000 NA
ATOM     12  C   UNL     1       2.253   4.355  17.939  0.00  0.00    +0.000 C 
ATOM     13  C   UNL     1       1.639   2.972  18.171  0.00  0.00    +0.000 C 
BRANCH   8  15
ATOM     14  N   UNL     1       1.655   2.572  21.928  0.00  0.00    +0.000 N 
ATOM     15  C   UNL     1       1.387   3.097  20.698  0.00  0.00    +0.000 C 
ATOM     16  O   UNL     1       0.678   4.094  20.603  0.00  0.00    +0.000 OA
ATOM     17  H   UNL     1       1.293   3.082  22.724  0.00  0.00    +0.000 HD
ATOM     18  H   UNL     1       2.414   1.927  22.083  0.00  0.00    +0.000 HD
ENDBRANCH   8  15
ENDBRANCH   7  11
ENDBRANCH   1   7
BRANCH   4  19
ATOM     19  O   UNL     1       0.767   9.993  19.499  0.00  0.00    +0.000 OA
BRANCH  19  20
ATOM     20  C   UNL     1      -0.373  10.281  18.857  0.00  0.00    +0.000 A 
ATOM     21  N   UNL     1      -0.697   9.776  17.682  0.00  0.00    +0.000 NA
ATOM     22  C   UNL     1      -1.926  10.270  17.291  0.00  0.00    +0.000 A 
ATOM     23  C   UNL     1      -2.631   9.983  16.111  0.00  0.00    +0.000 A 
ATOM     24  C   UNL     1      -3.859  10.615  15.910  0.00  0.00    +0.000 A 
ATOM     25  C   UNL     1      -4.330  11.485  16.885  0.00  0.00    +0.000 A 
ATOM     26  N   UNL     1      -3.699  11.789  18.043  0.00  0.00    +0.000 NA
ATOM     27  C   UNL     1      -2.513  11.161  18.184  0.00  0.00    +0.000 A 
ATOM     28  S   UNL     1      -1.500  11.387  19.535  0.00  0.00    +0.000 S 
ENDBRANCH  19  20
ENDBRANCH   4  19
TORSDOF 5
ENDMDL
MODEL 4
REMARK VINA RESULT:      -8.0      1.269      1.614
REMARK  Name = 
REMARK  5 active torsions:
REMARK  status: ('A' for Active; 'I' for Inactive)
REMARK    1  A    between atoms: C_2  and  C_4
REMARK    2  A    between atoms: N_7  and  C_8
REMARK    3  A    between atoms: C_8  and  C_9
REMARK    4  A    between atoms: C_12  and  O_13
REMARK    5  A    between atoms: O_13  and  C_14
REMARK                            x       y       z     vdW  Elec       q    Type
REMARK                         _______ _______ _______ _____ _____    ______ ____
ROOT
ATOM      1  C   UNL     1       2.256   7.938  18.770  0.00  0.00    +0.000 A 
ATOM      2  C   UNL     1       2.226   8.976  17.826  0.00  0.00    +0.000 A 
ATOM      3  C   UNL     1       1.537  10.166  18.103  0.00  0.00    +0.000 A 
ATOM      4  C   UNL     1       0.861  10.319  19.314  0.00  0.00    +0.000 A 
ATOM      5  C   UNL     1       0.942   9.315  20.280  0.00  0.00    +0.000 A 
ATOM      6  C   UNL     1       1.627   8.132  20.007  0.00  0.00    +0.000 A 
ENDROOT
BRANCH   1   7
ATOM      7  C   UNL     1       2.914   6.605  18.467  0.00  0.00    +0.000 C 
BRANCH   7  11
ATOM      8  C   UNL     1       2.294   2.556  19.795  0.00  0.00    +0.000 C 
ATOM      9  C   UNL     1       1.522   3.071  18.579  0.00  0.00    +0.000 C 
ATOM     10  C   UNL     1       2.131   4.357  18.013  0.00  0.00    +0.000 C 
ATOM     11  N   UNL     1       2.233   5.418  19.031  0.00  0.00    +0.000 NA
ATOM     12  C   UNL     1       2.994   4.957  20.207  0.00  0.00    +0.000 C 
ATOM     13  C   UNL     1       2.412   3.683  20.824  0.00  0.00    +0.000 C 
BRANCH   8  15
ATOM     14  N   UNL     1       3.668   1.252  18.246  0.00  0.00    +0.000 N 
ATOM     15  C   UNL     1       3.653   1.980  19.400  0.00  0.00    +0.000 C 
ATOM     16  O   UNL     1       4.696   2.156  20.022  0.00  0.00    +0.000 OA
ATOM     17  H   UNL     1       4.574   0.938  17.924  0.00  0.00    +0.000 HD
ATOM     18  H   UNL     1       2.912   1.288  17.579  0.00  0.00    +0.000 HD
ENDBRANCH   8  15
ENDBRANCH   7  11
ENDBRANCH   1   7
BRANCH   4  19
ATOM     19  O   UNL     1       0.188  11.499  19.532  0.00  0.00    +0.000 OA
BRANCH  19  20
ATOM     20  C   UNL     1      -1.111  11.617  19.227  0.00  0.00    +0.000 A 
ATOM     21  N   UNL     1      -1.630  11.233  18.077  0.00  0.00    +0.000 NA
ATOM     22  C   UNL     1      -2.986  11.492  18.072  0.00  0.00    +0.000 A 
ATOM     23  C   UNL     1      -3.907  11.234  17.044  0.00  0.00    +0.000 A 
ATOM     24  C   UNL     1      -5.238  11.598  17.249  0.00  0.00    +0.000 A 
ATOM     25  C   UNL     1      -5.592  12.185  18.456  0.00  0.00    +0.000 A 
ATOM     26  N   UNL     1      -4.751  12.447  19.483  0.00  0.00    +0.000 NA
ATOM     27  C   UNL     1      -3.475  12.086  19.232  0.00  0.00    +0.000 A 
ATOM     28  S   UNL     1      -2.207  12.329  20.343  0.00  0.00    +0.000 S 
ENDBRANCH  19  20
ENDBRANCH   4  19
TORSDOF 5
ENDMDL
MODEL 5
REMARK VINA RESULT:      -8.0      1.224      1.739
REMARK  Name = 
REMARK  5 active torsions:
REMARK  status: ('A' for Active; 'I' for Inactive)
REMARK    1  A    between atoms: C_2  and  C_4
REMARK    2  A    between atoms: N_7  and  C_8
REMARK    3  A    between atoms: C_8  and  C_9
REMARK    4  A    between atoms: C_12  and  O_13
REMARK    5  A    between atoms: O_13  and  C_14
REMARK                            x       y       z     vdW  Elec       q    Type
REMARK                         _______ _______ _______ _____ _____    ______ ____
ROOT
ATOM      1  C   UNL     1       2.050   7.727  19.478  0.00  0.00    +0.000 A 
ATOM      2  C   UNL     1       1.305   8.399  20.459  0.00  0.00    +0.000 A 
ATOM      3  C   UNL     1       0.715   9.639  20.176  0.00  0.00    +0.000 A 
ATOM      4  C   UNL     1       0.879  10.224  18.919  0.00  0.00    +0.000 A 
ATOM      5  C   UNL     1       1.565   9.530  17.921  0.00  0.00    +0.000 A 
ATOM      6  C   UNL     1       2.152   8.296  18.201  0.00  0.00    +0.000 A 
ENDROOT
BRANCH   1   7
ATOM      7  C   UNL     1       2.776   6.431  19.778  0.00  0.00    +0.000 C 
BRANCH   7  11
ATOM      8  C   UNL     1       3.397   2.876  17.428  0.00  0.00    +0.000 C 
ATOM      9  C   UNL     1       4.573   3.823  17.677  0.00  0.00    +0.000 C 
ATOM     10  C   UNL     1       4.292   4.798  18.824  0.00  0.00    +0.000 C 
ATOM     11  N   UNL     1       3.059   5.574  18.604  0.00  0.00    +0.000 NA
ATOM     12  C   UNL     1       1.903   4.686  18.384  0.00  0.00    +0.000 C 
ATOM     13  C   UNL     1       2.125   3.703  17.231  0.00  0.00    +0.000 C 
BRANCH   8  15
ATOM     14  N   UNL     1       1.988   1.404  18.781  0.00  0.00    +0.000 N 
ATOM     15  C   UNL     1       3.258   1.842  18.544  0.00  0.00    +0.000 C 
ATOM     16  O   UNL     1       4.192   1.379  19.190  0.00  0.00    +0.000 OA
ATOM     17  H   UNL     1       1.888   0.656  19.455  0.00  0.00    +0.000 HD
ATOM     18  H   UNL     1       1.236   1.556  18.126  0.00  0.00    +0.000 HD
ENDBRANCH   8  15
ENDBRANCH   7  11
ENDBRANCH   1   7
BRANCH   4  19
ATOM     19  O   UNL     1       0.294  11.448  18.696  0.00  0.00    +0.000 OA
BRANCH  19  20
ATOM     20  C   UNL     1      -1.039  11.577  18.652  0.00  0.00    +0.000 A 
ATOM     21  N   UNL     1      -1.778  11.178  17.635  0.00  0.00    +0.000 NA
ATOM     22  C   UNL     1      -3.106  11.455  17.893  0.00  0.00    +0.000 A 
ATOM     23  C   UNL     1      -4.214  11.189  17.073  0.00  0.00    +0.000 A 
ATOM     24  C   UNL     1      -5.475  11.574  17.529  0.00  0.00    +0.000 A 
ATOM     25  C   UNL     1      -5.578  12.188  18.770  0.00  0.00    +0.000 A 
ATOM     26  N   UNL     1      -4.548  12.458  19.605  0.00  0.00    +0.000 NA
ATOM     27  C   UNL     1      -3.350  12.076  19.114  0.00  0.00    +0.000 A 
ATOM     28  S   UNL     1      -1.886  12.324  19.948  0.00  0.00    +0.000 S 
ENDBRANCH  19  20
ENDBRANCH   4  19
TORSDOF 5
ENDMDL
MODEL 6
REMARK VINA RESULT:      -8.0      0.769      1.246
REMARK  Name = 
REMARK  5 active torsions:
REMARK  status: ('A' for Active; 'I' for Inactive)
REMARK    1  A    between atoms: C_2  and  C_4
REMARK    2  A    between atoms: N_7  and  C_8
REMARK    3  A    between atoms: C_8  and  C_9
REMARK    4  A    between atoms: C_12  and  O_13
REMARK    5  A    between atoms: O_13  and  C_14
REMARK                            x       y       z     vdW  Elec       q    Type
REMARK                         _______ _______ _______ _____ _____    ______ ____
ROOT
ATOM      1  C   UNL     1       2.162   7.658  19.410  0.00  0.00    +0.000 A 
ATOM      2  C   UNL     1       1.456   8.329  20.420  0.00  0.00    +0.000 A 
ATOM      3  C   UNL     1       0.883   9.584  20.172  0.00  0.00    +0.000 A 
ATOM      4  C   UNL     1       1.027  10.186  18.921  0.00  0.00    +0.000 A 
ATOM      5  C   UNL     1       1.673   9.495  17.895  0.00  0.00    +0.000 A 
ATOM      6  C   UNL     1       2.242   8.246  18.139  0.00  0.00    +0.000 A 
ENDROOT
BRANCH   1   7
ATOM      7  C   UNL     1       2.870   6.343  19.670  0.00  0.00    +0.000 C 
BRANCH   7  11
ATOM      8  C   UNL     1       3.225   2.749  17.326  0.00  0.00    +0.000 C 
ATOM      9  C   UNL     1       4.437   3.672  17.468  0.00  0.00    +0.000 C 
ATOM     10  C   UNL     1       4.270   4.666  18.621  0.00  0.00    +0.000 C 
ATOM     11  N   UNL     1       3.040   5.467  18.490  0.00  0.00    +0.000 NA
ATOM     12  C   UNL     1       1.851   4.603  18.374  0.00  0.00    +0.000 C 
ATOM     13  C   UNL     1       1.959   3.602  17.220  0.00  0.00    +0.000 C 
BRANCH   8  15
ATOM     14  N   UNL     1       4.261   0.955  18.627  0.00  0.00    +0.000 N 
ATOM     15  C   UNL     1       3.152   1.731  18.462  0.00  0.00    +0.000 C 
ATOM     16  O   UNL     1       2.200   1.601  19.226  0.00  0.00    +0.000 OA
ATOM     17  H   UNL     1       4.265   0.338  19.428  0.00  0.00    +0.000 HD
ATOM     18  H   UNL     1       5.147   1.187  18.202  0.00  0.00    +0.000 HD
ENDBRANCH   8  15
ENDBRANCH   7  11
ENDBRANCH   1   7
BRANCH   4  19
ATOM     19  O   UNL     1       0.460  11.425  18.732  0.00  0.00    +0.000 OA
BRANCH  19  20
ATOM     20  C   UNL     1      -0.866  11.595  18.813  0.00  0.00    +0.000 A 
ATOM     21  N   UNL     1      -1.456  12.288  19.769  0.00  0.00    +0.000 NA
ATOM     22  C   UNL     1      -2.823  12.271  19.573  0.00  0.00    +0.000 A 
ATOM     23  C   UNL     1      -3.811  12.886  20.359  0.00  0.00    +0.000 A 
ATOM     24  C   UNL     1      -5.144  12.723  19.984  0.00  0.00    +0.000 A 
ATOM     25  C   UNL     1      -5.432  11.974  18.851  0.00  0.00    +0.000 A 
ATOM     26  N   UNL     1      -4.523  11.369  18.052  0.00  0.00    +0.000 NA
ATOM     27  C   UNL     1      -3.250  11.548  18.464  0.00  0.00    +0.000 A 
ATOM     28  S   UNL     1      -1.911  10.872  17.656  0.00  0.00    +0.000 S 
ENDBRANCH  19  20
ENDBRANCH   4  19
TORSDOF 5
ENDMDL
MODEL 7
REMARK VINA RESULT:      -8.0      7.201     10.510
REMARK  Name = 
REMARK  5 active torsions:
REMARK  status: ('A' for Active; 'I' for Inactive)
REMARK    1  A    between atoms: C_2  and  C_4
REMARK    2  A    between atoms: N_7  and  C_8
REMARK    3  A    between atoms: C_8  and  C_9
REMARK    4  A    between atoms: C_12  and  O_13
REMARK    5  A    between atoms: O_13  and  C_14
REMARK                            x       y       z     vdW  Elec       q    Type
REMARK                         _______ _______ _______ _____ _____    ______ ____
ROOT
ATOM      1  C   UNL     1       7.926   8.557  18.004  0.00  0.00    +0.000 A 
ATOM      2  C   UNL     1       6.990   8.029  17.102  0.00  0.00    +0.000 A 
ATOM      3  C   UNL     1       6.668   6.665  17.129  0.00  0.00    +0.000 A 
ATOM      4  C   UNL     1       7.293   5.816  18.045  0.00  0.00    +0.000 A 
ATOM      5  C   UNL     1       8.176   6.347  18.985  0.00  0.00    +0.000 A 
ATOM      6  C   UNL     1       8.496   7.704  18.960  0.00  0.00    +0.000 A 
ENDROOT
BRANCH   1   7
ATOM      7  C   UNL     1       8.363  10.007  17.942  0.00  0.00    +0.000 C 
BRANCH   7  11
ATOM      8  C   UNL     1      11.318  12.389  19.975  0.00  0.00    +0.000 C 
ATOM      9  C   UNL     1      11.734  11.560  18.759  0.00  0.00    +0.000 C 
ATOM     10  C   UNL     1      10.526  11.100  17.937  0.00  0.00    +0.000 C 
ATOM     11  N   UNL     1       9.555  10.348  18.751  0.00  0.00    +0.000 NA
ATOM     12  C   UNL     1       9.118  11.132  19.920  0.00  0.00    +0.000 C 
ATOM     13  C   UNL     1      10.290  11.601  20.788  0.00  0.00    +0.000 C 
BRANCH   8  15
ATOM     14  N   UNL     1      11.454  14.348  18.516  0.00  0.00    +0.000 N 
ATOM     15  C   UNL     1      10.810  13.772  19.571  0.00  0.00    +0.000 C 
ATOM     16  O   UNL     1       9.869  14.355  20.101  0.00  0.00    +0.000 OA
ATOM     17  H   UNL     1      11.075  15.224  18.180  0.00  0.00    +0.000 HD
ATOM     18  H   UNL     1      12.050  13.820  17.897  0.00  0.00    +0.000 HD
ENDBRANCH   8  15
ENDBRANCH   7  11
ENDBRANCH   1   7
BRANCH   4  19
ATOM     19  O   UNL     1       6.955   4.483  18.022  0.00  0.00    +0.000 OA
BRANCH  19  20
ATOM     20  C   UNL     1       5.687   4.089  18.199  0.00  0.00    +0.000 A 
ATOM     21  N   UNL     1       5.158   3.843  19.382  0.00  0.00    +0.000 NA
ATOM     22  C   UNL     1       3.842   3.456  19.227  0.00  0.00    +0.000 A 
ATOM     23  C   UNL     1       2.924   3.108  20.231  0.00  0.00    +0.000 A 
ATOM     24  C   UNL     1       1.639   2.727  19.843  0.00  0.00    +0.000 A 
ATOM     25  C   UNL     1       1.325   2.720  18.490  0.00  0.00    +0.000 A 
ATOM     26  N   UNL     1       2.163   3.055  17.483  0.00  0.00    +0.000 NA
ATOM     27  C   UNL     1       3.395   3.405  17.910  0.00  0.00    +0.000 A 
ATOM     28  S   UNL     1       4.653   3.845  16.849  0.00  0.00    +0.000 S 
ENDBRANCH  19  20
ENDBRANCH   4  19
TORSDOF 5
ENDMDL
MODEL 8
REMARK VINA RESULT:      -8.0      1.204      1.527
REMARK  Name = 
REMARK  5 active torsions:
REMARK  status: ('A' for Active; 'I' for Inactive)
REMARK    1  A    between atoms: C_2  and  C_4
REMARK    2  A    between atoms: N_7  and  C_8
REMARK    3  A    between atoms: C_8  and  C_9
REMARK    4  A    between atoms: C_12  and  O_13
REMARK    5  A    between atoms: O_13  and  C_14
REMARK                            x       y       z     vdW  Elec       q    Type
REMARK                         _______ _______ _______ _____ _____    ______ ____
ROOT
ATOM      1  C   UNL     1       1.893   7.936  19.665  0.00  0.00    +0.000 A 
ATOM      2  C   UNL     1       2.018   8.478  18.377  0.00  0.00    +0.000 A 
ATOM      3  C   UNL     1       1.403   9.697  18.057  0.00  0.00    +0.000 A 
ATOM      4  C   UNL     1       0.645  10.372  19.015  0.00  0.00    +0.000 A 
ATOM      5  C   UNL     1       0.571   9.870  20.315  0.00  0.00    +0.000 A 
ATOM      6  C   UNL     1       1.183   8.658  20.635  0.00  0.00    +0.000 A 
ENDROOT
BRANCH   1   7
ATOM      7  C   UNL     1       2.469   6.579  20.019  0.00  0.00    +0.000 C 
BRANCH   7  11
ATOM      8  C   UNL     1       4.116   3.302  17.762  0.00  0.00    +0.000 C 
ATOM      9  C   UNL     1       5.034   4.443  18.203  0.00  0.00    +0.000 C 
ATOM     10  C   UNL     1       4.399   5.301  19.301  0.00  0.00    +0.000 C 
ATOM     11  N   UNL     1       3.088   5.839  18.897  0.00  0.00    +0.000 NA
ATOM     12  C   UNL     1       2.172   4.758  18.487  0.00  0.00    +0.000 C 
ATOM     13  C   UNL     1       2.753   3.881  17.374  0.00  0.00    +0.000 C 
BRANCH   8  15
ATOM     14  N   UNL     1       3.063   1.261  18.603  0.00  0.00    +0.000 N 
ATOM     15  C   UNL     1       4.009   2.217  18.831  0.00  0.00    +0.000 C 
ATOM     16  O   UNL     1       4.721   2.143  19.828  0.00  0.00    +0.000 OA
ATOM     17  H   UNL     1       3.037   0.488  19.255  0.00  0.00    +0.000 HD
ATOM     18  H   UNL     1       2.635   1.134  17.699  0.00  0.00    +0.000 HD
ENDBRANCH   8  15
ENDBRANCH   7  11
ENDBRANCH   1   7
BRANCH   4  19
ATOM     19  O   UNL     1       0.048  11.556  18.647  0.00  0.00    +0.000 OA
BRANCH  19  20
ATOM     20  C   UNL     1      -1.286  11.672  18.608  0.00  0.00    +0.000 A 
ATOM     21  N   UNL     1      -2.024  11.268  17.592  0.00  0.00    +0.000 NA
ATOM     22  C   UNL     1      -3.354  11.532  17.855  0.00  0.00    +0.000 A 
ATOM     23  C   UNL     1      -4.462  11.257  17.038  0.00  0.00    +0.000 A 
ATOM     24  C   UNL     1      -5.725  11.629  17.499  0.00  0.00    +0.000 A 
ATOM     25  C   UNL     1      -5.830  12.240  18.742  0.00  0.00    +0.000 A 
ATOM     26  N   UNL     1      -4.800  12.518  19.574  0.00  0.00    +0.000 NA
ATOM     27  C   UNL     1      -3.600  12.149  19.078  0.00  0.00    +0.000 A 
ATOM     28  S   UNL     1      -2.135  12.408  19.908  0.00  0.00    +0.000 S 
ENDBRANCH  19  20
ENDBRANCH   4  19
TORSDOF 5
ENDMDL
MODEL 9
REMARK VINA RESULT:      -8.0      0.707      1.270
REMARK  Name = 
REMARK  5 active torsions:
REMARK  status: ('A' for Active; 'I' for Inactive)
REMARK    1  A    between atoms: C_2  and  C_4
REMARK    2  A    between atoms: N_7  and  C_8
REMARK    3  A    between atoms: C_8  and  C_9
REMARK    4  A    between atoms: C_12  and  O_13
REMARK    5  A    between atoms: O_13  and  C_14
REMARK                            x       y       z     vdW  Elec       q    Type
REMARK                         _______ _______ _______ _____ _____    ______ ____
ROOT
ATOM      1  C   UNL     1       2.185   7.859  18.938  0.00  0.00    +0.000 A 
ATOM      2  C   UNL     1       1.488   8.230  20.098  0.00  0.00    +0.000 A 
ATOM      3  C   UNL     1       0.779   9.439  20.144  0.00  0.00    +0.000 A 
ATOM      4  C   UNL     1       0.778  10.293  19.039  0.00  0.00    +0.000 A 
ATOM      5  C   UNL     1       1.417   9.899  17.863  0.00  0.00    +0.000 A 
ATOM      6  C   UNL     1       2.120   8.697  17.815  0.00  0.00    +0.000 A 
ENDROOT
BRANCH   1   7
ATOM      7  C   UNL     1       3.034   6.604  18.885  0.00  0.00    +0.000 C 
BRANCH   7  11
ATOM      8  C   UNL     1       2.348   2.395  19.479  0.00  0.00    +0.000 C 
ATOM      9  C   UNL     1       1.832   3.064  18.203  0.00  0.00    +0.000 C 
ATOM     10  C   UNL     1       2.484   4.429  17.967  0.00  0.00    +0.000 C 
ATOM     11  N   UNL     1       2.309   5.335  19.116  0.00  0.00    +0.000 NA
ATOM     12  C   UNL     1       2.819   4.725  20.358  0.00  0.00    +0.000 C 
ATOM     13  C   UNL     1       2.182   3.363  20.652  0.00  0.00    +0.000 C 
BRANCH   8  15
ATOM     14  N   UNL     1       4.047   1.208  18.178  0.00  0.00    +0.000 N 
ATOM     15  C   UNL     1       3.787   1.908  19.320  0.00  0.00    +0.000 C 
ATOM     16  O   UNL     1       4.694   2.132  20.116  0.00  0.00    +0.000 OA
ATOM     17  H   UNL     1       5.012   0.954  18.015  0.00  0.00    +0.000 HD
ATOM     18  H   UNL     1       3.417   1.214  17.390  0.00  0.00    +0.000 HD
ENDBRANCH   8  15
ENDBRANCH   7  11
ENDBRANCH   1   7
BRANCH   4  19
ATOM     19  O   UNL     1       0.081  11.475  19.139  0.00  0.00    +0.000 OA
BRANCH  19  20
ATOM     20  C   UNL     1      -1.240  11.517  18.923  0.00  0.00    +0.000 A 
ATOM     21  N   UNL     1      -2.088  12.161  19.703  0.00  0.00    +0.000 NA
ATOM     22  C   UNL     1      -3.370  12.008  19.214  0.00  0.00    +0.000 A 
ATOM     23  C   UNL     1      -4.560  12.535  19.744  0.00  0.00    +0.000 A 
ATOM     24  C   UNL     1      -5.756  12.237  19.092  0.00  0.00    +0.000 A 
ATOM     25  C   UNL     1      -5.717  11.449  17.950  0.00  0.00    +0.000 A 
ATOM     26  N   UNL     1      -4.602  10.925  17.390  0.00  0.00    +0.000 NA
ATOM     27  C   UNL     1      -3.473  11.233  18.063  0.00  0.00    +0.000 A 
ATOM     28  S   UNL     1      -1.932  10.680  17.592  0.00  0.00    +0.000 S 
ENDBRANCH  19  20
ENDBRANCH   4  19
TORSDOF 5
ENDMDL
