MODEL 1
REMARK VINA RESULT:      -5.2      0.000      0.000
REMARK  Name = 
REMARK  23 active torsions:
REMARK  status: ('A' for Active; 'I' for Inactive)
REMARK    1  A    between atoms: C_1  and  C_2
REMARK    2  A    between atoms: C_2  and  C_3
REMARK    3  A    between atoms: C_3  and  C_4
REMARK    4  A    between atoms: C_4  and  C_5
REMARK    5  A    between atoms: C_5  and  C_6
REMARK    6  A    between atoms: C_6  and  C_7
REMARK    7  A    between atoms: C_7  and  C_8
REMARK    8  A    between atoms: C_8  and  C_9
REMARK    9  A    between atoms: C_9  and  C_10
REMARK   10  A    between atoms: C_10  and  C_11
REMARK   11  A    between atoms: C_11  and  C_12
REMARK   12  A    between atoms: C_12  and  C_13
REMARK   13  A    between atoms: C_13  and  C_14
REMARK   14  A    between atoms: C_14  and  C_15
REMARK   15  A    between atoms: C_15  and  C_16
REMARK   16  A    between atoms: C_16  and  O_17
REMARK   17  A    between atoms: O_17  and  C_18
REMARK   18  A    between atoms: C_18  and  C_19
REMARK   19  A    between atoms: C_19  and  C_20
REMARK   20  A    between atoms: C_19  and  O_22
REMARK   21  A    between atoms: C_20  and  O_21
REMARK   22  A    between atoms: O_22  and  C_23
REMARK   23  A    between atoms: C_23  and  C_24
REMARK                            x       y       z     vdW  Elec       q    Type
REMARK                         _______ _______ _______ _____ _____    ______ ____
ROOT
ATOM      1  C   UNL     1       5.218   6.455  15.363  0.00  0.00    +0.000 C 
ENDROOT
BRANCH   1   2
ATOM      2  C   UNL     1       5.171   4.962  15.106  0.00  0.00    +0.000 C 
BRANCH   2   3
ATOM      3  C   UNL     1       6.569   4.398  14.934  0.00  0.00    +0.000 C 
BRANCH   3   4
ATOM      4  C   UNL     1       7.507   5.078  15.917  0.00  0.00    +0.000 C 
BRANCH   4   5
ATOM      5  O   UNL     1       8.012   4.091  16.801  0.00  0.00    +0.000 OA
BRANCH   5   6
ATOM      6  C   UNL     1       8.286   4.625  18.098  0.00  0.00    +0.000 C 
BRANCH   6   7
ATOM      7  C   UNL     1       7.409   5.865  18.340  0.00  0.00    +0.000 C 
BRANCH   7   8
ATOM      8  O   UNL     1       8.260   6.998  18.761  0.00  0.00    +0.000 OA
BRANCH   8   9
ATOM      9  C   UNL     1       8.146   8.204  18.094  0.00  0.00    +0.000 C 
ATOM     10  C   UNL     1       8.833   9.361  18.798  0.00  0.00    +0.000 C 
ATOM     11  O   UNL     1       7.575   8.364  17.035  0.00  0.00    +0.000 OA
ENDBRANCH   8   9
ENDBRANCH   7   8
BRANCH   7  12
ATOM     12  C   UNL     1       6.383   5.556  19.469  0.00  0.00    +0.000 C 
BRANCH  12  13
ATOM     13  O   UNL     1       5.961   4.188  19.508  0.00  0.00    +0.000 OA
ATOM     14  H   UNL     1       5.001   4.170  19.355  0.00  0.00    +0.000 HD
ENDBRANCH  12  13
ENDBRANCH   7  12
ENDBRANCH   6   7
ENDBRANCH   5   6
ENDBRANCH   4   5
ENDBRANCH   3   4
ENDBRANCH   2   3
ENDBRANCH   1   2
BRANCH   1  15
ATOM     15  C   UNL     1       4.442   6.782  16.627  0.00  0.00    +0.000 C 
BRANCH  15  16
ATOM     16  C   UNL     1       3.891   5.509  17.240  0.00  0.00    +0.000 C 
BRANCH  16  17
ATOM     17  C   UNL     1       2.491   5.754  17.770  0.00  0.00    +0.000 C 
BRANCH  17  18
ATOM     18  C   UNL     1       1.633   4.523  17.545  0.00  0.00    +0.000 C 
BRANCH  18  19
ATOM     19  C   UNL     1       2.512   3.339  17.193  0.00  0.00    +0.000 C 
BRANCH  19  20
ATOM     20  C   UNL     1       2.091   2.126  18.001  0.00  0.00    +0.000 C 
BRANCH  20  21
ATOM     21  C   UNL     1       3.238   1.673  18.886  0.00  0.00    +0.000 C 
BRANCH  21  22
ATOM     22  C   UNL     1       3.329   2.564  20.112  0.00  0.00    +0.000 C 
BRANCH  22  23
ATOM     23  C   UNL     1       2.106   2.366  20.991  0.00  0.00    +0.000 C 
BRANCH  23  24
ATOM     24  C   UNL     1       1.292   3.649  21.050  0.00  0.00    +0.000 C 
BRANCH  24  26
ATOM     25  C   UNL     1       1.408   6.140  20.987  0.00  0.00    +0.000 C 
ATOM     26  C   UNL     1       2.212   4.860  21.100  0.00  0.00    +0.000 C 
ENDBRANCH  24  26
ENDBRANCH  23  24
ENDBRANCH  22  23
ENDBRANCH  21  22
ENDBRANCH  20  21
ENDBRANCH  19  20
ENDBRANCH  18  19
ENDBRANCH  17  18
ENDBRANCH  16  17
ENDBRANCH  15  16
ENDBRANCH   1  15
TORSDOF 21
ENDMDL
MODEL 2
REMARK VINA RESULT:      -5.2      2.412      4.765
REMARK  Name = 
REMARK  23 active torsions:
REMARK  status: ('A' for Active; 'I' for Inactive)
REMARK    1  A    between atoms: C_1  and  C_2
REMARK    2  A    between atoms: C_2  and  C_3
REMARK    3  A    between atoms: C_3  and  C_4
REMARK    4  A    between atoms: C_4  and  C_5
REMARK    5  A    between atoms: C_5  and  C_6
REMARK    6  A    between atoms: C_6  and  C_7
REMARK    7  A    between atoms: C_7  and  C_8
REMARK    8  A    between atoms: C_8  and  C_9
REMARK    9  A    between atoms: C_9  and  C_10
REMARK   10  A    between atoms: C_10  and  C_11
REMARK   11  A    between atoms: C_11  and  C_12
REMARK   12  A    between atoms: C_12  and  C_13
REMARK   13  A    between atoms: C_13  and  C_14
REMARK   14  A    between atoms: C_14  and  C_15
REMARK   15  A    between atoms: C_15  and  C_16
REMARK   16  A    between atoms: C_16  and  O_17
REMARK   17  A    between atoms: O_17  and  C_18
REMARK   18  A    between atoms: C_18  and  C_19
REMARK   19  A    between atoms: C_19  and  C_20
REMARK   20  A    between atoms: C_19  and  O_22
REMARK   21  A    between atoms: C_20  and  O_21
REMARK   22  A    between atoms: O_22  and  C_23
REMARK   23  A    between atoms: C_23  and  C_24
REMARK                            x       y       z     vdW  Elec       q    Type
REMARK                         _______ _______ _______ _____ _____    ______ ____
ROOT
ATOM      1  C   UNL     1       1.581   2.564  18.220  0.00  0.00    +0.000 C 
ENDROOT
BRANCH   1   2
ATOM      2  C   UNL     1       2.896   1.824  18.370  0.00  0.00    +0.000 C 
BRANCH   2   3
ATOM      3  C   UNL     1       4.005   2.533  17.614  0.00  0.00    +0.000 C 
BRANCH   3   4
ATOM      4  C   UNL     1       3.409   3.672  16.806  0.00  0.00    +0.000 C 
BRANCH   4   5
ATOM      5  O   UNL     1       4.464   4.538  16.420  0.00  0.00    +0.000 OA
BRANCH   5   6
ATOM      6  C   UNL     1       5.713   4.148  16.994  0.00  0.00    +0.000 C 
BRANCH   6   7
ATOM      7  C   UNL     1       6.846   4.401  15.984  0.00  0.00    +0.000 C 
BRANCH   7   8
ATOM      8  O   UNL     1       7.792   5.391  16.542  0.00  0.00    +0.000 OA
BRANCH   8   9
ATOM      9  C   UNL     1       7.302   6.403  17.349  0.00  0.00    +0.000 C 
ATOM     10  C   UNL     1       7.844   6.373  18.766  0.00  0.00    +0.000 C 
ATOM     11  O   UNL     1       6.525   7.264  16.992  0.00  0.00    +0.000 OA
ENDBRANCH   8   9
ENDBRANCH   7   8
BRANCH   7  12
ATOM     12  C   UNL     1       6.241   4.966  14.666  0.00  0.00    +0.000 C 
BRANCH  12  13
ATOM     13  O   UNL     1       7.225   5.353  13.699  0.00  0.00    +0.000 OA
ATOM     14  H   UNL     1       8.037   5.585  14.181  0.00  0.00    +0.000 HD
ENDBRANCH  12  13
ENDBRANCH   7  12
ENDBRANCH   6   7
ENDBRANCH   5   6
ENDBRANCH   4   5
ENDBRANCH   3   4
ENDBRANCH   2   3
ENDBRANCH   1   2
BRANCH   1  15
ATOM     15  C   UNL     1       0.733   2.357  19.463  0.00  0.00    +0.000 C 
BRANCH  15  16
ATOM     16  C   UNL     1       1.307   3.151  20.619  0.00  0.00    +0.000 C 
BRANCH  16  17
ATOM     17  C   UNL     1       0.940   4.617  20.473  0.00  0.00    +0.000 C 
BRANCH  17  18
ATOM     18  C   UNL     1       2.110   5.485  20.897  0.00  0.00    +0.000 C 
BRANCH  18  19
ATOM     19  C   UNL     1       3.334   5.139  20.072  0.00  0.00    +0.000 C 
BRANCH  19  20
ATOM     20  C   UNL     1       3.752   6.338  19.243  0.00  0.00    +0.000 C 
BRANCH  20  21
ATOM     21  C   UNL     1       2.538   6.941  18.560  0.00  0.00    +0.000 C 
BRANCH  21  22
ATOM     22  C   UNL     1       2.935   8.203  17.816  0.00  0.00    +0.000 C 
BRANCH  22  23
ATOM     23  C   UNL     1       1.742   9.137  17.704  0.00  0.00    +0.000 C 
BRANCH  23  24
ATOM     24  C   UNL     1       1.115   9.349  19.072  0.00  0.00    +0.000 C 
BRANCH  24  26
ATOM     25  C   UNL     1      -0.090  11.498  18.682  0.00  0.00    +0.000 C 
ATOM     26  C   UNL     1      -0.248  10.012  18.936  0.00  0.00    +0.000 C 
ENDBRANCH  24  26
ENDBRANCH  23  24
ENDBRANCH  22  23
ENDBRANCH  21  22
ENDBRANCH  20  21
ENDBRANCH  19  20
ENDBRANCH  18  19
ENDBRANCH  17  18
ENDBRANCH  16  17
ENDBRANCH  15  16
ENDBRANCH   1  15
TORSDOF 21
ENDMDL
MODEL 3
REMARK VINA RESULT:      -5.1      4.209      7.656
REMARK  Name = 
REMARK  23 active torsions:
REMARK  status: ('A' for Active; 'I' for Inactive)
REMARK    1  A    between atoms: C_1  and  C_2
REMARK    2  A    between atoms: C_2  and  C_3
REMARK    3  A    between atoms: C_3  and  C_4
REMARK    4  A    between atoms: C_4  and  C_5
REMARK    5  A    between atoms: C_5  and  C_6
REMARK    6  A    between atoms: C_6  and  C_7
REMARK    7  A    between atoms: C_7  and  C_8
REMARK    8  A    between atoms: C_8  and  C_9
REMARK    9  A    between atoms: C_9  and  C_10
REMARK   10  A    between atoms: C_10  and  C_11
REMARK   11  A    between atoms: C_11  and  C_12
REMARK   12  A    between atoms: C_12  and  C_13
REMARK   13  A    between atoms: C_13  and  C_14
REMARK   14  A    between atoms: C_14  and  C_15
REMARK   15  A    between atoms: C_15  and  C_16
REMARK   16  A    between atoms: C_16  and  O_17
REMARK   17  A    between atoms: O_17  and  C_18
REMARK   18  A    between atoms: C_18  and  C_19
REMARK   19  A    between atoms: C_19  and  C_20
REMARK   20  A    between atoms: C_19  and  O_22
REMARK   21  A    between atoms: C_20  and  O_21
REMARK   22  A    between atoms: O_22  and  C_23
REMARK   23  A    between atoms: C_23  and  C_24
REMARK                            x       y       z     vdW  Elec       q    Type
REMARK                         _______ _______ _______ _____ _____    ______ ____
ROOT
ATOM      1  C   UNL     1       1.469   3.801  18.509  0.00  0.00    +0.000 C 
ENDROOT
BRANCH   1   2
ATOM      2  C   UNL     1       1.010   4.155  19.910  0.00  0.00    +0.000 C 
BRANCH   2   3
ATOM      3  C   UNL     1       2.129   4.813  20.696  0.00  0.00    +0.000 C 
BRANCH   3   4
ATOM      4  C   UNL     1       2.239   6.270  20.283  0.00  0.00    +0.000 C 
BRANCH   4   5
ATOM      5  O   UNL     1       1.180   6.985  20.898  0.00  0.00    +0.000 OA
BRANCH   5   6
ATOM      6  C   UNL     1       1.511   8.360  21.101  0.00  0.00    +0.000 C 
BRANCH   6   7
ATOM      7  C   UNL     1       0.224   9.171  21.332  0.00  0.00    +0.000 C 
BRANCH   7   8
ATOM      8  O   UNL     1       0.325  10.468  20.629  0.00  0.00    +0.000 OA
BRANCH   8   9
ATOM      9  C   UNL     1      -0.567  10.747  19.609  0.00  0.00    +0.000 C 
ATOM     10  C   UNL     1      -1.298  12.066  19.779  0.00  0.00    +0.000 C 
ATOM     11  O   UNL     1      -0.766  10.039  18.643  0.00  0.00    +0.000 OA
ENDBRANCH   8   9
ENDBRANCH   7   8
BRANCH   7  12
ATOM     12  C   UNL     1       0.049   9.434  22.856  0.00  0.00    +0.000 C 
BRANCH  12  13
ATOM     13  O   UNL     1      -0.421  10.752  23.165  0.00  0.00    +0.000 OA
ATOM     14  H   UNL     1       0.256  11.383  22.867  0.00  0.00    +0.000 HD
ENDBRANCH  12  13
ENDBRANCH   7  12
ENDBRANCH   6   7
ENDBRANCH   5   6
ENDBRANCH   4   5
ENDBRANCH   3   4
ENDBRANCH   2   3
ENDBRANCH   1   2
BRANCH   1  15
ATOM     15  C   UNL     1       2.538   2.724  18.578  0.00  0.00    +0.000 C 
BRANCH  15  16
ATOM     16  C   UNL     1       3.742   3.136  17.754  0.00  0.00    +0.000 C 
BRANCH  16  17
ATOM     17  C   UNL     1       4.819   3.703  18.660  0.00  0.00    +0.000 C 
BRANCH  17  18
ATOM     18  C   UNL     1       5.631   4.741  17.909  0.00  0.00    +0.000 C 
BRANCH  18  19
ATOM     19  C   UNL     1       4.702   5.720  17.216  0.00  0.00    +0.000 C 
BRANCH  19  20
ATOM     20  C   UNL     1       5.194   5.987  15.806  0.00  0.00    +0.000 C 
BRANCH  20  21
ATOM     21  C   UNL     1       5.691   4.697  15.180  0.00  0.00    +0.000 C 
BRANCH  21  22
ATOM     22  C   UNL     1       6.891   4.980  14.295  0.00  0.00    +0.000 C 
BRANCH  22  23
ATOM     23  C   UNL     1       6.731   4.272  12.960  0.00  0.00    +0.000 C 
BRANCH  23  24
ATOM     24  C   UNL     1       5.469   3.425  12.967  0.00  0.00    +0.000 C 
BRANCH  24  26
ATOM     25  C   UNL     1       3.867   3.163  11.072  0.00  0.00    +0.000 C 
ATOM     26  C   UNL     1       5.241   2.798  11.599  0.00  0.00    +0.000 C 
ENDBRANCH  24  26
ENDBRANCH  23  24
ENDBRANCH  22  23
ENDBRANCH  21  22
ENDBRANCH  20  21
ENDBRANCH  19  20
ENDBRANCH  18  19
ENDBRANCH  17  18
ENDBRANCH  16  17
ENDBRANCH  15  16
ENDBRANCH   1  15
TORSDOF 21
ENDMDL
MODEL 4
REMARK VINA RESULT:      -5.1      5.069      6.930
REMARK  Name = 
REMARK  23 active torsions:
REMARK  status: ('A' for Active; 'I' for Inactive)
REMARK    1  A    between atoms: C_1  and  C_2
REMARK    2  A    between atoms: C_2  and  C_3
REMARK    3  A    between atoms: C_3  and  C_4
REMARK    4  A    between atoms: C_4  and  C_5
REMARK    5  A    between atoms: C_5  and  C_6
REMARK    6  A    between atoms: C_6  and  C_7
REMARK    7  A    between atoms: C_7  and  C_8
REMARK    8  A    between atoms: C_8  and  C_9
REMARK    9  A    between atoms: C_9  and  C_10
REMARK   10  A    between atoms: C_10  and  C_11
REMARK   11  A    between atoms: C_11  and  C_12
REMARK   12  A    between atoms: C_12  and  C_13
REMARK   13  A    between atoms: C_13  and  C_14
REMARK   14  A    between atoms: C_14  and  C_15
REMARK   15  A    between atoms: C_15  and  C_16
REMARK   16  A    between atoms: C_16  and  O_17
REMARK   17  A    between atoms: O_17  and  C_18
REMARK   18  A    between atoms: C_18  and  C_19
REMARK   19  A    between atoms: C_19  and  C_20
REMARK   20  A    between atoms: C_19  and  O_22
REMARK   21  A    between atoms: C_20  and  O_21
REMARK   22  A    between atoms: O_22  and  C_23
REMARK   23  A    between atoms: C_23  and  C_24
REMARK                            x       y       z     vdW  Elec       q    Type
REMARK                         _______ _______ _______ _____ _____    ______ ____
ROOT
ATOM      1  C   UNL     1       2.306   7.457  18.944  0.00  0.00    +0.000 C 
ENDROOT
BRANCH   1   2
ATOM      2  C   UNL     1       2.359   8.569  17.915  0.00  0.00    +0.000 C 
BRANCH   2   3
ATOM      3  C   UNL     1       1.207   9.539  18.106  0.00  0.00    +0.000 C 
BRANCH   3   4
ATOM      4  C   UNL     1       1.761  10.918  18.415  0.00  0.00    +0.000 C 
BRANCH   4   5
ATOM      5  O   UNL     1       1.083  11.423  19.554  0.00  0.00    +0.000 OA
BRANCH   5   6
ATOM      6  C   UNL     1       0.061  10.531  20.005  0.00  0.00    +0.000 C 
BRANCH   6   7
ATOM      7  C   UNL     1      -0.336  10.890  21.447  0.00  0.00    +0.000 C 
BRANCH   7   8
ATOM      8  O   UNL     1       0.251  12.198  21.810  0.00  0.00    +0.000 OA
BRANCH   8   9
ATOM      9  C   UNL     1      -0.563  13.160  22.382  0.00  0.00    +0.000 C 
ATOM     10  C   UNL     1      -0.808  14.363  21.490  0.00  0.00    +0.000 C 
ATOM     11  O   UNL     1      -1.068  13.081  23.482  0.00  0.00    +0.000 OA
ENDBRANCH   8   9
ENDBRANCH   7   8
BRANCH   7  12
ATOM     12  C   UNL     1       0.213   9.803  22.417  0.00  0.00    +0.000 C 
BRANCH  12  13
ATOM     13  O   UNL     1      -0.784   9.243  23.280  0.00  0.00    +0.000 OA
ATOM     14  H   UNL     1      -1.654   9.512  22.939  0.00  0.00    +0.000 HD
ENDBRANCH  12  13
ENDBRANCH   7  12
ENDBRANCH   6   7
ENDBRANCH   5   6
ENDBRANCH   4   5
ENDBRANCH   3   4
ENDBRANCH   2   3
ENDBRANCH   1   2
BRANCH   1  15
ATOM     15  C   UNL     1       2.727   6.146  18.302  0.00  0.00    +0.000 C 
BRANCH  15  16
ATOM     16  C   UNL     1       3.908   6.378  17.379  0.00  0.00    +0.000 C 
BRANCH  16  17
ATOM     17  C   UNL     1       5.194   5.972  18.073  0.00  0.00    +0.000 C 
BRANCH  17  18
ATOM     18  C   UNL     1       4.914   4.866  19.073  0.00  0.00    +0.000 C 
BRANCH  18  19
ATOM     19  C   UNL     1       5.071   3.514  18.404  0.00  0.00    +0.000 C 
BRANCH  19  20
ATOM     20  C   UNL     1       4.417   2.440  19.254  0.00  0.00    +0.000 C 
BRANCH  20  21
ATOM     21  C   UNL     1       3.504   1.587  18.393  0.00  0.00    +0.000 C 
BRANCH  21  22
ATOM     22  C   UNL     1       2.341   2.420  17.887  0.00  0.00    +0.000 C 
BRANCH  22  23
ATOM     23  C   UNL     1       1.098   2.134  18.713  0.00  0.00    +0.000 C 
BRANCH  23  24
ATOM     24  C   UNL     1       0.797   3.310  19.628  0.00  0.00    +0.000 C 
BRANCH  24  26
ATOM     25  C   UNL     1       2.189   4.044  21.563  0.00  0.00    +0.000 C 
ATOM     26  C   UNL     1       1.220   2.995  21.056  0.00  0.00    +0.000 C 
ENDBRANCH  24  26
ENDBRANCH  23  24
ENDBRANCH  22  23
ENDBRANCH  21  22
ENDBRANCH  20  21
ENDBRANCH  19  20
ENDBRANCH  18  19
ENDBRANCH  17  18
ENDBRANCH  16  17
ENDBRANCH  15  16
ENDBRANCH   1  15
TORSDOF 21
ENDMDL
MODEL 5
REMARK VINA RESULT:      -5.0      4.011      6.282
REMARK  Name = 
REMARK  23 active torsions:
REMARK  status: ('A' for Active; 'I' for Inactive)
REMARK    1  A    between atoms: C_1  and  C_2
REMARK    2  A    between atoms: C_2  and  C_3
REMARK    3  A    between atoms: C_3  and  C_4
REMARK    4  A    between atoms: C_4  and  C_5
REMARK    5  A    between atoms: C_5  and  C_6
REMARK    6  A    between atoms: C_6  and  C_7
REMARK    7  A    between atoms: C_7  and  C_8
REMARK    8  A    between atoms: C_8  and  C_9
REMARK    9  A    between atoms: C_9  and  C_10
REMARK   10  A    between atoms: C_10  and  C_11
REMARK   11  A    between atoms: C_11  and  C_12
REMARK   12  A    between atoms: C_12  and  C_13
REMARK   13  A    between atoms: C_13  and  C_14
REMARK   14  A    between atoms: C_14  and  C_15
REMARK   15  A    between atoms: C_15  and  C_16
REMARK   16  A    between atoms: C_16  and  O_17
REMARK   17  A    between atoms: O_17  and  C_18
REMARK   18  A    between atoms: C_18  and  C_19
REMARK   19  A    between atoms: C_19  and  C_20
REMARK   20  A    between atoms: C_19  and  O_22
REMARK   21  A    between atoms: C_20  and  O_21
REMARK   22  A    between atoms: O_22  and  C_23
REMARK   23  A    between atoms: C_23  and  C_24
REMARK                            x       y       z     vdW  Elec       q    Type
REMARK                         _______ _______ _______ _____ _____    ______ ____
ROOT
ATOM      1  C   UNL     1       2.942   5.332  20.021  0.00  0.00    +0.000 C 
ENDROOT
BRANCH   1   2
ATOM      2  C   UNL     1       2.363   4.343  19.029  0.00  0.00    +0.000 C 
BRANCH   2   3
ATOM      3  C   UNL     1       3.184   3.067  18.994  0.00  0.00    +0.000 C 
BRANCH   3   4
ATOM      4  C   UNL     1       3.871   2.951  17.645  0.00  0.00    +0.000 C 
BRANCH   4   5
ATOM      5  O   UNL     1       4.158   4.260  17.181  0.00  0.00    +0.000 OA
BRANCH   5   6
ATOM      6  C   UNL     1       5.506   4.643  17.463  0.00  0.00    +0.000 C 
BRANCH   6   7
ATOM      7  C   UNL     1       5.985   5.656  16.410  0.00  0.00    +0.000 C 
BRANCH   7   8
ATOM      8  O   UNL     1       7.198   5.138  15.742  0.00  0.00    +0.000 OA
BRANCH   8   9
ATOM      9  C   UNL     1       7.182   4.962  14.370  0.00  0.00    +0.000 C 
ATOM     10  C   UNL     1       6.098   4.017  13.886  0.00  0.00    +0.000 C 
ATOM     11  O   UNL     1       7.934   5.507  13.588  0.00  0.00    +0.000 OA
ENDBRANCH   8   9
ENDBRANCH   7   8
BRANCH   7  12
ATOM     12  C   UNL     1       6.330   7.002  17.112  0.00  0.00    +0.000 C 
BRANCH  12  13
ATOM     13  O   UNL     1       7.707   7.377  16.998  0.00  0.00    +0.000 OA
ATOM     14  H   UNL     1       7.934   7.909  17.780  0.00  0.00    +0.000 HD
ENDBRANCH  12  13
ENDBRANCH   7  12
ENDBRANCH   6   7
ENDBRANCH   5   6
ENDBRANCH   4   5
ENDBRANCH   3   4
ENDBRANCH   2   3
ENDBRANCH   1   2
BRANCH   1  15
ATOM     15  C   UNL     1       2.267   6.682  19.852  0.00  0.00    +0.000 C 
BRANCH  15  16
ATOM     16  C   UNL     1       1.875   6.886  18.402  0.00  0.00    +0.000 C 
BRANCH  16  17
ATOM     17  C   UNL     1       2.849   7.837  17.731  0.00  0.00    +0.000 C 
BRANCH  17  18
ATOM     18  C   UNL     1       2.431   9.272  17.992  0.00  0.00    +0.000 C 
BRANCH  18  19
ATOM     19  C   UNL     1       0.918   9.375  17.999  0.00  0.00    +0.000 C 
BRANCH  19  20
ATOM     20  C   UNL     1       0.461  10.160  19.213  0.00  0.00    +0.000 C 
BRANCH  20  21
ATOM     21  C   UNL     1      -1.045  10.343  19.172  0.00  0.00    +0.000 C 
BRANCH  21  22
ATOM     22  C   UNL     1      -1.496  10.612  17.747  0.00  0.00    +0.000 C 
BRANCH  22  23
ATOM     23  C   UNL     1      -2.714   9.766  17.419  0.00  0.00    +0.000 C 
BRANCH  23  24
ATOM     24  C   UNL     1      -3.769  10.615  16.730  0.00  0.00    +0.000 C 
BRANCH  24  26
ATOM     25  C   UNL     1      -3.127   9.908  14.425  0.00  0.00    +0.000 C 
ATOM     26  C   UNL     1      -3.270  11.084  15.371  0.00  0.00    +0.000 C 
ENDBRANCH  24  26
ENDBRANCH  23  24
ENDBRANCH  22  23
ENDBRANCH  21  22
ENDBRANCH  20  21
ENDBRANCH  19  20
ENDBRANCH  18  19
ENDBRANCH  17  18
ENDBRANCH  16  17
ENDBRANCH  15  16
ENDBRANCH   1  15
TORSDOF 21
ENDMDL
MODEL 6
REMARK VINA RESULT:      -5.0      3.408      5.875
REMARK  Name = 
REMARK  23 active torsions:
REMARK  status: ('A' for Active; 'I' for Inactive)
REMARK    1  A    between atoms: C_1  and  C_2
REMARK    2  A    between atoms: C_2  and  C_3
REMARK    3  A    between atoms: C_3  and  C_4
REMARK    4  A    between atoms: C_4  and  C_5
REMARK    5  A    between atoms: C_5  and  C_6
REMARK    6  A    between atoms: C_6  and  C_7
REMARK    7  A    between atoms: C_7  and  C_8
REMARK    8  A    between atoms: C_8  and  C_9
REMARK    9  A    between atoms: C_9  and  C_10
REMARK   10  A    between atoms: C_10  and  C_11
REMARK   11  A    between atoms: C_11  and  C_12
REMARK   12  A    between atoms: C_12  and  C_13
REMARK   13  A    between atoms: C_13  and  C_14
REMARK   14  A    between atoms: C_14  and  C_15
REMARK   15  A    between atoms: C_15  and  C_16
REMARK   16  A    between atoms: C_16  and  O_17
REMARK   17  A    between atoms: O_17  and  C_18
REMARK   18  A    between atoms: C_18  and  C_19
REMARK   19  A    between atoms: C_19  and  C_20
REMARK   20  A    between atoms: C_19  and  O_22
REMARK   21  A    between atoms: C_20  and  O_21
REMARK   22  A    between atoms: O_22  and  C_23
REMARK   23  A    between atoms: C_23  and  C_24
REMARK                            x       y       z     vdW  Elec       q    Type
REMARK                         _______ _______ _______ _____ _____    ______ ____
ROOT
ATOM      1  C   UNL     1       2.180   6.102  19.953  0.00  0.00    +0.000 C 
ENDROOT
BRANCH   1   2
ATOM      2  C   UNL     1       1.897   4.618  20.080  0.00  0.00    +0.000 C 
BRANCH   2   3
ATOM      3  C   UNL     1       2.222   3.893  18.786  0.00  0.00    +0.000 C 
BRANCH   3   4
ATOM      4  C   UNL     1       3.494   3.084  18.972  0.00  0.00    +0.000 C 
BRANCH   4   5
ATOM      5  O   UNL     1       4.023   2.791  17.689  0.00  0.00    +0.000 OA
BRANCH   5   6
ATOM      6  C   UNL     1       4.056   3.947  16.849  0.00  0.00    +0.000 C 
BRANCH   6   7
ATOM      7  C   UNL     1       5.514   4.389  16.638  0.00  0.00    +0.000 C 
BRANCH   7   8
ATOM      8  O   UNL     1       5.947   5.223  17.779  0.00  0.00    +0.000 OA
BRANCH   8   9
ATOM      9  C   UNL     1       7.299   5.332  18.054  0.00  0.00    +0.000 C 
ATOM     10  C   UNL     1       7.772   6.760  18.249  0.00  0.00    +0.000 C 
ATOM     11  O   UNL     1       8.067   4.397  18.154  0.00  0.00    +0.000 OA
ENDBRANCH   8   9
ENDBRANCH   7   8
BRANCH   7  12
ATOM     12  C   UNL     1       5.613   5.229  15.332  0.00  0.00    +0.000 C 
BRANCH  12  13
ATOM     13  O   UNL     1       5.252   6.605  15.501  0.00  0.00    +0.000 OA
ATOM     14  H   UNL     1       4.390   6.738  15.070  0.00  0.00    +0.000 HD
ENDBRANCH  12  13
ENDBRANCH   7  12
ENDBRANCH   6   7
ENDBRANCH   5   6
ENDBRANCH   4   5
ENDBRANCH   3   4
ENDBRANCH   2   3
ENDBRANCH   1   2
BRANCH   1  15
ATOM     15  C   UNL     1       2.079   6.520  18.497  0.00  0.00    +0.000 C 
BRANCH  15  16
ATOM     16  C   UNL     1       3.213   7.463  18.149  0.00  0.00    +0.000 C 
BRANCH  16  17
ATOM     17  C   UNL     1       2.654   8.793  17.678  0.00  0.00    +0.000 C 
BRANCH  17  18
ATOM     18  C   UNL     1       1.206   8.925  18.109  0.00  0.00    +0.000 C 
BRANCH  18  19
ATOM     19  C   UNL     1       1.039  10.153  18.983  0.00  0.00    +0.000 C 
BRANCH  19  20
ATOM     20  C   UNL     1      -0.328  10.768  18.750  0.00  0.00    +0.000 C 
BRANCH  20  21
ATOM     21  C   UNL     1      -0.454  12.059  19.538  0.00  0.00    +0.000 C 
BRANCH  21  22
ATOM     22  C   UNL     1      -1.313  11.833  20.769  0.00  0.00    +0.000 C 
BRANCH  22  23
ATOM     23  C   UNL     1      -0.435  11.732  22.005  0.00  0.00    +0.000 C 
BRANCH  23  24
ATOM     24  C   UNL     1      -1.038  10.750  22.995  0.00  0.00    +0.000 C 
BRANCH  24  26
ATOM     25  C   UNL     1      -0.350   8.588  21.957  0.00  0.00    +0.000 C 
ATOM     26  C   UNL     1      -0.150   9.522  23.135  0.00  0.00    +0.000 C 
ENDBRANCH  24  26
ENDBRANCH  23  24
ENDBRANCH  22  23
ENDBRANCH  21  22
ENDBRANCH  20  21
ENDBRANCH  19  20
ENDBRANCH  18  19
ENDBRANCH  17  18
ENDBRANCH  16  17
ENDBRANCH  15  16
ENDBRANCH   1  15
TORSDOF 21
ENDMDL
MODEL 7
REMARK VINA RESULT:      -5.0      2.868      4.771
REMARK  Name = 
REMARK  23 active torsions:
REMARK  status: ('A' for Active; 'I' for Inactive)
REMARK    1  A    between atoms: C_1  and  C_2
REMARK    2  A    between atoms: C_2  and  C_3
REMARK    3  A    between atoms: C_3  and  C_4
REMARK    4  A    between atoms: C_4  and  C_5
REMARK    5  A    between atoms: C_5  and  C_6
REMARK    6  A    between atoms: C_6  and  C_7
REMARK    7  A    between atoms: C_7  and  C_8
REMARK    8  A    between atoms: C_8  and  C_9
REMARK    9  A    between atoms: C_9  and  C_10
REMARK   10  A    between atoms: C_10  and  C_11
REMARK   11  A    between atoms: C_11  and  C_12
REMARK   12  A    between atoms: C_12  and  C_13
REMARK   13  A    between atoms: C_13  and  C_14
REMARK   14  A    between atoms: C_14  and  C_15
REMARK   15  A    between atoms: C_15  and  C_16
REMARK   16  A    between atoms: C_16  and  O_17
REMARK   17  A    between atoms: O_17  and  C_18
REMARK   18  A    between atoms: C_18  and  C_19
REMARK   19  A    between atoms: C_19  and  C_20
REMARK   20  A    between atoms: C_19  and  O_22
REMARK   21  A    between atoms: C_20  and  O_21
REMARK   22  A    between atoms: O_22  and  C_23
REMARK   23  A    between atoms: C_23  and  C_24
REMARK                            x       y       z     vdW  Elec       q    Type
REMARK                         _______ _______ _______ _____ _____    ______ ____
ROOT
ATOM      1  C   UNL     1       7.488   5.755  18.628  0.00  0.00    +0.000 C 
ENDROOT
BRANCH   1   2
ATOM      2  C   UNL     1       7.359   6.518  17.325  0.00  0.00    +0.000 C 
BRANCH   2   3
ATOM      3  C   UNL     1       7.385   8.016  17.570  0.00  0.00    +0.000 C 
BRANCH   3   4
ATOM      4  C   UNL     1       8.523   8.347  18.520  0.00  0.00    +0.000 C 
BRANCH   4   5
ATOM      5  O   UNL     1       8.857   9.715  18.349  0.00  0.00    +0.000 OA
BRANCH   5   6
ATOM      6  C   UNL     1       9.272  10.320  19.575  0.00  0.00    +0.000 C 
BRANCH   6   7
ATOM      7  C   UNL     1      10.470  11.249  19.312  0.00  0.00    +0.000 C 
BRANCH   7   8
ATOM      8  O   UNL     1      10.415  12.399  20.239  0.00  0.00    +0.000 OA
BRANCH   8   9
ATOM      9  C   UNL     1      10.355  13.678  19.714  0.00  0.00    +0.000 C 
ATOM     10  C   UNL     1      11.704  14.369  19.626  0.00  0.00    +0.000 C 
ATOM     11  O   UNL     1       9.343  14.228  19.331  0.00  0.00    +0.000 OA
ENDBRANCH   8   9
ENDBRANCH   7   8
BRANCH   7  12
ATOM     12  C   UNL     1      10.399  11.774  17.848  0.00  0.00    +0.000 C 
BRANCH  12  13
ATOM     13  O   UNL     1      11.646  11.700  17.147  0.00  0.00    +0.000 OA
ATOM     14  H   UNL     1      12.167  10.982  17.547  0.00  0.00    +0.000 HD
ENDBRANCH  12  13
ENDBRANCH   7  12
ENDBRANCH   6   7
ENDBRANCH   5   6
ENDBRANCH   4   5
ENDBRANCH   3   4
ENDBRANCH   2   3
ENDBRANCH   1   2
BRANCH   1  15
ATOM     15  C   UNL     1       6.106   5.453  19.183  0.00  0.00    +0.000 C 
BRANCH  15  16
ATOM     16  C   UNL     1       5.322   4.617  18.191  0.00  0.00    +0.000 C 
BRANCH  16  17
ATOM     17  C   UNL     1       4.778   3.377  18.876  0.00  0.00    +0.000 C 
BRANCH  17  18
ATOM     18  C   UNL     1       3.745   2.709  17.987  0.00  0.00    +0.000 C 
BRANCH  18  19
ATOM     19  C   UNL     1       2.834   1.833  18.825  0.00  0.00    +0.000 C 
BRANCH  19  20
ATOM     20  C   UNL     1       1.578   2.601  19.193  0.00  0.00    +0.000 C 
BRANCH  20  21
ATOM     21  C   UNL     1       1.421   2.643  20.702  0.00  0.00    +0.000 C 
BRANCH  21  22
ATOM     22  C   UNL     1       2.024   3.924  21.249  0.00  0.00    +0.000 C 
BRANCH  22  23
ATOM     23  C   UNL     1       1.508   5.118  20.465  0.00  0.00    +0.000 C 
BRANCH  23  24
ATOM     24  C   UNL     1       2.597   6.171  20.342  0.00  0.00    +0.000 C 
BRANCH  24  26
ATOM     25  C   UNL     1       2.167   5.910  17.898  0.00  0.00    +0.000 C 
ATOM     26  C   UNL     1       2.490   6.893  19.006  0.00  0.00    +0.000 C 
ENDBRANCH  24  26
ENDBRANCH  23  24
ENDBRANCH  22  23
ENDBRANCH  21  22
ENDBRANCH  20  21
ENDBRANCH  19  20
ENDBRANCH  18  19
ENDBRANCH  17  18
ENDBRANCH  16  17
ENDBRANCH  15  16
ENDBRANCH   1  15
TORSDOF 21
ENDMDL
MODEL 8
REMARK VINA RESULT:      -5.0      4.364      7.235
REMARK  Name = 
REMARK  23 active torsions:
REMARK  status: ('A' for Active; 'I' for Inactive)
REMARK    1  A    between atoms: C_1  and  C_2
REMARK    2  A    between atoms: C_2  and  C_3
REMARK    3  A    between atoms: C_3  and  C_4
REMARK    4  A    between atoms: C_4  and  C_5
REMARK    5  A    between atoms: C_5  and  C_6
REMARK    6  A    between atoms: C_6  and  C_7
REMARK    7  A    between atoms: C_7  and  C_8
REMARK    8  A    between atoms: C_8  and  C_9
REMARK    9  A    between atoms: C_9  and  C_10
REMARK   10  A    between atoms: C_10  and  C_11
REMARK   11  A    between atoms: C_11  and  C_12
REMARK   12  A    between atoms: C_12  and  C_13
REMARK   13  A    between atoms: C_13  and  C_14
REMARK   14  A    between atoms: C_14  and  C_15
REMARK   15  A    between atoms: C_15  and  C_16
REMARK   16  A    between atoms: C_16  and  O_17
REMARK   17  A    between atoms: O_17  and  C_18
REMARK   18  A    between atoms: C_18  and  C_19
REMARK   19  A    between atoms: C_19  and  C_20
REMARK   20  A    between atoms: C_19  and  O_22
REMARK   21  A    between atoms: C_20  and  O_21
REMARK   22  A    between atoms: O_22  and  C_23
REMARK   23  A    between atoms: C_23  and  C_24
REMARK                            x       y       z     vdW  Elec       q    Type
REMARK                         _______ _______ _______ _____ _____    ______ ____
ROOT
ATOM      1  C   UNL     1       3.331   4.726  20.174  0.00  0.00    +0.000 C 
ENDROOT
BRANCH   1   2
ATOM      2  C   UNL     1       3.334   5.941  19.266  0.00  0.00    +0.000 C 
BRANCH   2   3
ATOM      3  C   UNL     1       2.417   7.022  19.807  0.00  0.00    +0.000 C 
BRANCH   3   4
ATOM      4  C   UNL     1       2.167   8.054  18.722  0.00  0.00    +0.000 C 
BRANCH   4   5
ATOM      5  O   UNL     1       1.376   9.094  19.274  0.00  0.00    +0.000 OA
BRANCH   5   6
ATOM      6  C   UNL     1       1.089   8.870  20.656  0.00  0.00    +0.000 C 
BRANCH   6   7
ATOM      7  C   UNL     1       0.203  10.009  21.189  0.00  0.00    +0.000 C 
BRANCH   7   8
ATOM      8  O   UNL     1       1.041  11.191  21.481  0.00  0.00    +0.000 OA
BRANCH   8   9
ATOM      9  C   UNL     1       0.934  12.304  20.665  0.00  0.00    +0.000 C 
ATOM     10  C   UNL     1       2.223  13.094  20.534  0.00  0.00    +0.000 C 
ATOM     11  O   UNL     1      -0.073  12.643  20.077  0.00  0.00    +0.000 OA
ENDBRANCH   8   9
ENDBRANCH   7   8
BRANCH   7  12
ATOM     12  C   UNL     1      -0.493   9.546  22.502  0.00  0.00    +0.000 C 
BRANCH  12  13
ATOM     13  O   UNL     1       0.089  10.096  23.690  0.00  0.00    +0.000 OA
ATOM     14  H   UNL     1      -0.636  10.310  24.302  0.00  0.00    +0.000 HD
ENDBRANCH  12  13
ENDBRANCH   7  12
ENDBRANCH   6   7
ENDBRANCH   5   6
ENDBRANCH   4   5
ENDBRANCH   3   4
ENDBRANCH   2   3
ENDBRANCH   1   2
BRANCH   1  15
ATOM     15  C   UNL     1       1.989   4.616  20.877  0.00  0.00    +0.000 C 
BRANCH  15  16
ATOM     16  C   UNL     1       1.298   3.328  20.474  0.00  0.00    +0.000 C 
BRANCH  16  17
ATOM     17  C   UNL     1       0.995   3.347  18.988  0.00  0.00    +0.000 C 
BRANCH  17  18
ATOM     18  C   UNL     1       1.894   2.361  18.266  0.00  0.00    +0.000 C 
BRANCH  18  19
ATOM     19  C   UNL     1       2.540   3.033  17.069  0.00  0.00    +0.000 C 
BRANCH  19  20
ATOM     20  C   UNL     1       4.050   2.935  17.176  0.00  0.00    +0.000 C 
BRANCH  20  21
ATOM     21  C   UNL     1       4.688   4.201  16.633  0.00  0.00    +0.000 C 
BRANCH  21  22
ATOM     22  C   UNL     1       5.816   3.845  15.681  0.00  0.00    +0.000 C 
BRANCH  22  23
ATOM     23  C   UNL     1       5.573   4.485  14.325  0.00  0.00    +0.000 C 
BRANCH  23  24
ATOM     24  C   UNL     1       6.262   3.678  13.236  0.00  0.00    +0.000 C 
BRANCH  24  26
ATOM     25  C   UNL     1       5.733   2.023  11.445  0.00  0.00    +0.000 C 
ATOM     26  C   UNL     1       5.263   3.274  12.161  0.00  0.00    +0.000 C 
ENDBRANCH  24  26
ENDBRANCH  23  24
ENDBRANCH  22  23
ENDBRANCH  21  22
ENDBRANCH  20  21
ENDBRANCH  19  20
ENDBRANCH  18  19
ENDBRANCH  17  18
ENDBRANCH  16  17
ENDBRANCH  15  16
ENDBRANCH   1  15
TORSDOF 21
ENDMDL
MODEL 9
REMARK VINA RESULT:      -4.9      2.581      5.133
REMARK  Name = 
REMARK  23 active torsions:
REMARK  status: ('A' for Active; 'I' for Inactive)
REMARK    1  A    between atoms: C_1  and  C_2
REMARK    2  A    between atoms: C_2  and  C_3
REMARK    3  A    between atoms: C_3  and  C_4
REMARK    4  A    between atoms: C_4  and  C_5
REMARK    5  A    between atoms: C_5  and  C_6
REMARK    6  A    between atoms: C_6  and  C_7
REMARK    7  A    between atoms: C_7  and  C_8
REMARK    8  A    between atoms: C_8  and  C_9
REMARK    9  A    between atoms: C_9  and  C_10
REMARK   10  A    between atoms: C_10  and  C_11
REMARK   11  A    between atoms: C_11  and  C_12
REMARK   12  A    between atoms: C_12  and  C_13
REMARK   13  A    between atoms: C_13  and  C_14
REMARK   14  A    between atoms: C_14  and  C_15
REMARK   15  A    between atoms: C_15  and  C_16
REMARK   16  A    between atoms: C_16  and  O_17
REMARK   17  A    between atoms: O_17  and  C_18
REMARK   18  A    between atoms: C_18  and  C_19
REMARK   19  A    between atoms: C_19  and  C_20
REMARK   20  A    between atoms: C_19  and  O_22
REMARK   21  A    between atoms: C_20  and  O_21
REMARK   22  A    between atoms: O_22  and  C_23
REMARK   23  A    between atoms: C_23  and  C_24
REMARK                            x       y       z     vdW  Elec       q    Type
REMARK                         _______ _______ _______ _____ _____    ______ ____
ROOT
ATOM      1  C   UNL     1       2.472   2.823  19.084  0.00  0.00    +0.000 C 
ENDROOT
BRANCH   1   2
ATOM      2  C   UNL     1       3.744   2.001  19.161  0.00  0.00    +0.000 C 
BRANCH   2   3
ATOM      3  C   UNL     1       4.853   2.783  19.841  0.00  0.00    +0.000 C 
BRANCH   3   4
ATOM      4  C   UNL     1       5.145   4.038  19.037  0.00  0.00    +0.000 C 
BRANCH   4   5
ATOM      5  O   UNL     1       6.497   3.986  18.612  0.00  0.00    +0.000 OA
BRANCH   5   6
ATOM      6  C   UNL     1       7.056   5.290  18.444  0.00  0.00    +0.000 C 
BRANCH   6   7
ATOM      7  C   UNL     1       6.507   5.924  17.155  0.00  0.00    +0.000 C 
BRANCH   7   8
ATOM      8  O   UNL     1       7.426   5.637  16.034  0.00  0.00    +0.000 OA
BRANCH   8   9
ATOM      9  C   UNL     1       6.918   5.054  14.886  0.00  0.00    +0.000 C 
ATOM     10  C   UNL     1       5.657   4.242  15.117  0.00  0.00    +0.000 C 
ATOM     11  O   UNL     1       7.396   5.169  13.776  0.00  0.00    +0.000 OA
ENDBRANCH   8   9
ENDBRANCH   7   8
BRANCH   7  12
ATOM     12  C   UNL     1       6.405   7.466  17.344  0.00  0.00    +0.000 C 
BRANCH  12  13
ATOM     13  O   UNL     1       7.665   8.142  17.265  0.00  0.00    +0.000 OA
ATOM     14  H   UNL     1       8.103   8.052  18.129  0.00  0.00    +0.000 HD
ENDBRANCH  12  13
ENDBRANCH   7  12
ENDBRANCH   6   7
ENDBRANCH   5   6
ENDBRANCH   4   5
ENDBRANCH   3   4
ENDBRANCH   2   3
ENDBRANCH   1   2
BRANCH   1  15
ATOM     15  C   UNL     1       2.045   2.970  17.634  0.00  0.00    +0.000 C 
BRANCH  15  16
ATOM     16  C   UNL     1       1.308   4.281  17.442  0.00  0.00    +0.000 C 
BRANCH  16  17
ATOM     17  C   UNL     1       1.840   5.320  18.411  0.00  0.00    +0.000 C 
BRANCH  17  18
ATOM     18  C   UNL     1       2.670   6.346  17.663  0.00  0.00    +0.000 C 
BRANCH  18  19
ATOM     19  C   UNL     1       2.814   7.602  18.500  0.00  0.00    +0.000 C 
BRANCH  19  20
ATOM     20  C   UNL     1       2.381   8.811  17.692  0.00  0.00    +0.000 C 
BRANCH  20  21
ATOM     21  C   UNL     1       1.026   9.296  18.176  0.00  0.00    +0.000 C 
BRANCH  21  22
ATOM     22  C   UNL     1       1.137  10.724  18.679  0.00  0.00    +0.000 C 
BRANCH  22  23
ATOM     23  C   UNL     1       0.209  10.932  19.863  0.00  0.00    +0.000 C 
BRANCH  23  24
ATOM     24  C   UNL     1       0.748  10.202  21.083  0.00  0.00    +0.000 C 
BRANCH  24  26
ATOM     25  C   UNL     1      -0.078   9.545  23.344  0.00  0.00    +0.000 C 
ATOM     26  C   UNL     1      -0.388   9.553  21.860  0.00  0.00    +0.000 C 
ENDBRANCH  24  26
ENDBRANCH  23  24
ENDBRANCH  22  23
ENDBRANCH  21  22
ENDBRANCH  20  21
ENDBRANCH  19  20
ENDBRANCH  18  19
ENDBRANCH  17  18
ENDBRANCH  16  17
ENDBRANCH  15  16
ENDBRANCH   1  15
TORSDOF 21
ENDMDL
