MODEL 1
REMARK VINA RESULT:      -7.2      0.000      0.000
REMARK  Name = 
REMARK  11 active torsions:
REMARK  status: ('A' for Active; 'I' for Inactive)
REMARK    1  A    between atoms: C_1  and  C_2
REMARK    2  A    between atoms: C_2  and  O_3
REMARK    3  A    between atoms: O_3  and  C_4
REMARK    4  A    between atoms: C_4  and  C_5
REMARK    5  A    between atoms: C_5  and  C_6
REMARK    6  A    between atoms: C_6  and  N_7
REMARK    7  A    between atoms: C_9  and  C_10
REMARK    8  A    between atoms: N_12  and  C_13
REMARK    9  A    between atoms: C_13  and  C_14
REMARK   10  A    between atoms: C_14  and  C_15
REMARK   11  A    between atoms: C_18  and  C_19
REMARK                            x       y       z     vdW  Elec       q    Type
REMARK                         _______ _______ _______ _____ _____    ______ ____
ROOT
ATOM      1  C   UNL     1       6.246   4.880  18.860  0.00  0.00    +0.000 C 
ATOM      2  O   UNL     1       5.977   5.619  19.803  0.00  0.00    +0.000 OA
ATOM      3  N   UNL     1       5.613   3.684  18.609  0.00  0.00    +0.000 N 
ATOM      4  H   UNL     1       5.948   3.095  17.856  0.00  0.00    +0.000 HD
ENDROOT
BRANCH   1   7
ATOM      5  N   UNL     1       6.300   4.910  15.778  0.00  0.00    +0.000 N 
ATOM      6  C   UNL     1       7.278   4.344  16.674  0.00  0.00    +0.000 C 
ATOM      7  C   UNL     1       7.294   5.301  17.849  0.00  0.00    +0.000 C 
ATOM      8  C   UNL     1       6.893   6.647  17.229  0.00  0.00    +0.000 C 
ATOM      9  C   UNL     1       6.011   6.236  16.073  0.00  0.00    +0.000 C 
ATOM     10  O   UNL     1       5.240   6.972  15.483  0.00  0.00    +0.000 OA
BRANCH   5  11
ATOM     11  C   UNL     1       5.578   4.120  14.795  0.00  0.00    +0.000 C 
BRANCH  11  12
ATOM     12  C   UNL     1       6.251   4.141  13.426  0.00  0.00    +0.000 C 
BRANCH  12  13
ATOM     13  C   UNL     1       5.713   3.037  12.525  0.00  0.00    +0.000 C 
BRANCH  13  14
ATOM     14  O   UNL     1       5.135   3.620  11.361  0.00  0.00    +0.000 OA
BRANCH  14  16
ATOM     15  C   UNL     1       3.179   3.975  10.044  0.00  0.00    +0.000 C 
ATOM     16  C   UNL     1       3.847   3.087  11.075  0.00  0.00    +0.000 C 
ENDBRANCH  14  16
ENDBRANCH  13  14
ENDBRANCH  12  13
ENDBRANCH  11  12
ENDBRANCH   5  11
ENDBRANCH   1   7
BRANCH   3  17
ATOM     17  C   UNL     1       4.585   3.098  19.485  0.00  0.00    +0.000 C 
BRANCH  17  18
ATOM     18  C   UNL     1       3.140   3.368  19.055  0.00  0.00    +0.000 C 
BRANCH  18  19
ATOM     19  C   UNL     1       2.703   4.800  19.108  0.00  0.00    +0.000 A 
ATOM     20  C   UNL     1       2.255   5.339  20.318  0.00  0.00    +0.000 A 
ATOM     21  C   UNL     1       1.905   6.684  20.399  0.00  0.00    +0.000 A 
ATOM     22  C   UNL     1       2.000   7.504  19.268  0.00  0.00    +0.000 A 
ATOM     23  C   UNL     1       1.594   8.943  19.333  0.00  0.00    +0.000 C 
ATOM     24  C   UNL     1       2.469   6.966  18.064  0.00  0.00    +0.000 A 
ATOM     25  C   UNL     1       2.821   5.619  17.983  0.00  0.00    +0.000 A 
ENDBRANCH  18  19
ENDBRANCH  17  18
ENDBRANCH   3  17
TORSDOF 9
ENDMDL
MODEL 2
REMARK VINA RESULT:      -7.1      4.560      7.828
REMARK  Name = 
REMARK  11 active torsions:
REMARK  status: ('A' for Active; 'I' for Inactive)
REMARK    1  A    between atoms: C_1  and  C_2
REMARK    2  A    between atoms: C_2  and  O_3
REMARK    3  A    between atoms: O_3  and  C_4
REMARK    4  A    between atoms: C_4  and  C_5
REMARK    5  A    between atoms: C_5  and  C_6
REMARK    6  A    between atoms: C_6  and  N_7
REMARK    7  A    between atoms: C_9  and  C_10
REMARK    8  A    between atoms: N_12  and  C_13
REMARK    9  A    between atoms: C_13  and  C_14
REMARK   10  A    between atoms: C_14  and  C_15
REMARK   11  A    between atoms: C_18  and  C_19
REMARK                            x       y       z     vdW  Elec       q    Type
REMARK                         _______ _______ _______ _____ _____    ______ ____
ROOT
ATOM      1  C   UNL     1       7.640   6.956  17.804  0.00  0.00    +0.000 C 
ATOM      2  O   UNL     1       7.175   7.237  16.701  0.00  0.00    +0.000 OA
ATOM      3  N   UNL     1       8.280   7.855  18.624  0.00  0.00    +0.000 N 
ATOM      4  H   UNL     1       8.704   7.526  19.483  0.00  0.00    +0.000 HD
ENDROOT
BRANCH   1   7
ATOM      5  N   UNL     1       5.296   4.954  17.755  0.00  0.00    +0.000 N 
ATOM      6  C   UNL     1       6.056   5.399  18.897  0.00  0.00    +0.000 C 
ATOM      7  C   UNL     1       7.464   5.557  18.360  0.00  0.00    +0.000 C 
ATOM      8  C   UNL     1       7.535   4.539  17.214  0.00  0.00    +0.000 C 
ATOM      9  C   UNL     1       6.105   4.475  16.732  0.00  0.00    +0.000 C 
ATOM     10  O   UNL     1       5.745   4.023  15.659  0.00  0.00    +0.000 OA
BRANCH   5  11
ATOM     11  C   UNL     1       3.863   5.154  17.633  0.00  0.00    +0.000 C 
BRANCH  11  12
ATOM     12  C   UNL     1       3.419   6.516  18.159  0.00  0.00    +0.000 C 
BRANCH  12  13
ATOM     13  C   UNL     1       2.606   6.380  19.439  0.00  0.00    +0.000 C 
BRANCH  13  14
ATOM     14  O   UNL     1       2.153   5.035  19.567  0.00  0.00    +0.000 OA
BRANCH  14  16
ATOM     15  C   UNL     1       1.409   3.337  21.068  0.00  0.00    +0.000 C 
ATOM     16  C   UNL     1       2.322   4.534  20.888  0.00  0.00    +0.000 C 
ENDBRANCH  14  16
ENDBRANCH  13  14
ENDBRANCH  12  13
ENDBRANCH  11  12
ENDBRANCH   5  11
ENDBRANCH   1   7
BRANCH   3  17
ATOM     17  C   UNL     1       8.562   9.252  18.253  0.00  0.00    +0.000 C 
BRANCH  17  18
ATOM     18  C   UNL     1       9.284  10.073  19.326  0.00  0.00    +0.000 C 
BRANCH  18  19
ATOM     19  C   UNL     1      10.099  11.225  18.824  0.00  0.00    +0.000 A 
ATOM     20  C   UNL     1       9.613  12.005  17.770  0.00  0.00    +0.000 A 
ATOM     21  C   UNL     1      10.327  13.117  17.332  0.00  0.00    +0.000 A 
ATOM     22  C   UNL     1      11.537  13.460  17.948  0.00  0.00    +0.000 A 
ATOM     23  C   UNL     1      12.333  14.633  17.465  0.00  0.00    +0.000 C 
ATOM     24  C   UNL     1      12.010  12.690  19.016  0.00  0.00    +0.000 A 
ATOM     25  C   UNL     1      11.294  11.577  19.456  0.00  0.00    +0.000 A 
ENDBRANCH  18  19
ENDBRANCH  17  18
ENDBRANCH   3  17
TORSDOF 9
ENDMDL
MODEL 3
REMARK VINA RESULT:      -7.0      4.635      7.790
REMARK  Name = 
REMARK  11 active torsions:
REMARK  status: ('A' for Active; 'I' for Inactive)
REMARK    1  A    between atoms: C_1  and  C_2
REMARK    2  A    between atoms: C_2  and  O_3
REMARK    3  A    between atoms: O_3  and  C_4
REMARK    4  A    between atoms: C_4  and  C_5
REMARK    5  A    between atoms: C_5  and  C_6
REMARK    6  A    between atoms: C_6  and  N_7
REMARK    7  A    between atoms: C_9  and  C_10
REMARK    8  A    between atoms: N_12  and  C_13
REMARK    9  A    between atoms: C_13  and  C_14
REMARK   10  A    between atoms: C_14  and  C_15
REMARK   11  A    between atoms: C_18  and  C_19
REMARK                            x       y       z     vdW  Elec       q    Type
REMARK                         _______ _______ _______ _____ _____    ______ ____
ROOT
ATOM      1  C   UNL     1       7.746   7.006  17.829  0.00  0.00    +0.000 C 
ATOM      2  O   UNL     1       7.326   7.185  16.689  0.00  0.00    +0.000 OA
ATOM      3  N   UNL     1       8.300   7.991  18.613  0.00  0.00    +0.000 N 
ATOM      4  H   UNL     1       8.694   7.745  19.513  0.00  0.00    +0.000 HD
ENDROOT
BRANCH   1   7
ATOM      5  N   UNL     1       5.417   4.995  18.020  0.00  0.00    +0.000 N 
ATOM      6  C   UNL     1       6.231   5.510  19.093  0.00  0.00    +0.000 C 
ATOM      7  C   UNL     1       7.609   5.642  18.476  0.00  0.00    +0.000 C 
ATOM      8  C   UNL     1       7.628   4.558  17.391  0.00  0.00    +0.000 C 
ATOM      9  C   UNL     1       6.176   4.459  16.987  0.00  0.00    +0.000 C 
ATOM     10  O   UNL     1       5.766   3.942  15.962  0.00  0.00    +0.000 OA
BRANCH   5  11
ATOM     11  C   UNL     1       3.978   5.181  17.959  0.00  0.00    +0.000 C 
BRANCH  11  12
ATOM     12  C   UNL     1       3.364   5.415  19.337  0.00  0.00    +0.000 C 
BRANCH  12  13
ATOM     13  C   UNL     1       3.184   4.106  20.094  0.00  0.00    +0.000 C 
BRANCH  13  14
ATOM     14  O   UNL     1       2.149   3.345  19.477  0.00  0.00    +0.000 OA
BRANCH  14  16
ATOM     15  C   UNL     1       1.371   2.641  21.618  0.00  0.00    +0.000 C 
ATOM     16  C   UNL     1       0.985   3.262  20.291  0.00  0.00    +0.000 C 
ENDBRANCH  14  16
ENDBRANCH  13  14
ENDBRANCH  12  13
ENDBRANCH  11  12
ENDBRANCH   5  11
ENDBRANCH   1   7
BRANCH   3  17
ATOM     17  C   UNL     1       8.534   9.371  18.156  0.00  0.00    +0.000 C 
BRANCH  17  18
ATOM     18  C   UNL     1       9.289  10.261  19.148  0.00  0.00    +0.000 C 
BRANCH  18  19
ATOM     19  C   UNL     1       9.809  11.554  18.596  0.00  0.00    +0.000 A 
ATOM     20  C   UNL     1      11.087  11.597  18.031  0.00  0.00    +0.000 A 
ATOM     21  C   UNL     1      11.561  12.773  17.457  0.00  0.00    +0.000 A 
ATOM     22  C   UNL     1      10.758  13.920  17.443  0.00  0.00    +0.000 A 
ATOM     23  C   UNL     1      11.268  15.201  16.860  0.00  0.00    +0.000 C 
ATOM     24  C   UNL     1       9.471  13.867  17.990  0.00  0.00    +0.000 A 
ATOM     25  C   UNL     1       8.995  12.689  18.563  0.00  0.00    +0.000 A 
ENDBRANCH  18  19
ENDBRANCH  17  18
ENDBRANCH   3  17
TORSDOF 9
ENDMDL
MODEL 4
REMARK VINA RESULT:      -6.9      4.059      7.280
REMARK  Name = 
REMARK  11 active torsions:
REMARK  status: ('A' for Active; 'I' for Inactive)
REMARK    1  A    between atoms: C_1  and  C_2
REMARK    2  A    between atoms: C_2  and  O_3
REMARK    3  A    between atoms: O_3  and  C_4
REMARK    4  A    between atoms: C_4  and  C_5
REMARK    5  A    between atoms: C_5  and  C_6
REMARK    6  A    between atoms: C_6  and  N_7
REMARK    7  A    between atoms: C_9  and  C_10
REMARK    8  A    between atoms: N_12  and  C_13
REMARK    9  A    between atoms: C_13  and  C_14
REMARK   10  A    between atoms: C_14  and  C_15
REMARK   11  A    between atoms: C_18  and  C_19
REMARK                            x       y       z     vdW  Elec       q    Type
REMARK                         _______ _______ _______ _____ _____    ______ ____
ROOT
ATOM      1  C   UNL     1       7.450   5.760  18.785  0.00  0.00    +0.000 C 
ATOM      2  O   UNL     1       7.572   5.561  19.991  0.00  0.00    +0.000 OA
ATOM      3  N   UNL     1       7.921   6.876  18.134  0.00  0.00    +0.000 N 
ATOM      4  H   UNL     1       7.710   7.002  17.151  0.00  0.00    +0.000 HD
ENDROOT
BRANCH   1   7
ATOM      5  N   UNL     1       4.717   5.602  17.368  0.00  0.00    +0.000 N 
ATOM      6  C   UNL     1       5.321   4.622  18.236  0.00  0.00    +0.000 C 
ATOM      7  C   UNL     1       6.798   4.706  17.911  0.00  0.00    +0.000 C 
ATOM      8  C   UNL     1       6.825   5.169  16.448  0.00  0.00    +0.000 C 
ATOM      9  C   UNL     1       5.558   5.982  16.329  0.00  0.00    +0.000 C 
ATOM     10  O   UNL     1       5.315   6.778  15.438  0.00  0.00    +0.000 OA
BRANCH   5  11
ATOM     11  C   UNL     1       3.444   6.238  17.658  0.00  0.00    +0.000 C 
BRANCH  11  12
ATOM     12  C   UNL     1       2.363   5.230  18.038  0.00  0.00    +0.000 C 
BRANCH  12  13
ATOM     13  C   UNL     1       2.014   5.320  19.517  0.00  0.00    +0.000 C 
BRANCH  13  14
ATOM     14  O   UNL     1       1.629   4.032  19.988  0.00  0.00    +0.000 OA
BRANCH  14  16
ATOM     15  C   UNL     1       1.524   2.510  21.821  0.00  0.00    +0.000 C 
ATOM     16  C   UNL     1       2.237   3.712  21.234  0.00  0.00    +0.000 C 
ENDBRANCH  14  16
ENDBRANCH  13  14
ENDBRANCH  12  13
ENDBRANCH  11  12
ENDBRANCH   5  11
ENDBRANCH   1   7
BRANCH   3  17
ATOM     17  C   UNL     1       8.564   8.014  18.812  0.00  0.00    +0.000 C 
BRANCH  17  18
ATOM     18  C   UNL     1       8.340   9.374  18.144  0.00  0.00    +0.000 C 
BRANCH  18  19
ATOM     19  C   UNL     1       9.199  10.494  18.647  0.00  0.00    +0.000 A 
ATOM     20  C   UNL     1       9.679  11.451  17.748  0.00  0.00    +0.000 A 
ATOM     21  C   UNL     1      10.425  12.533  18.207  0.00  0.00    +0.000 A 
ATOM     22  C   UNL     1      10.699  12.666  19.574  0.00  0.00    +0.000 A 
ATOM     23  C   UNL     1      11.530  13.806  20.077  0.00  0.00    +0.000 C 
ATOM     24  C   UNL     1      10.200  11.718  20.473  0.00  0.00    +0.000 A 
ATOM     25  C   UNL     1       9.450  10.636  20.014  0.00  0.00    +0.000 A 
ENDBRANCH  18  19
ENDBRANCH  17  18
ENDBRANCH   3  17
TORSDOF 9
ENDMDL
MODEL 5
REMARK VINA RESULT:      -6.9      2.830      5.289
REMARK  Name = 
REMARK  11 active torsions:
REMARK  status: ('A' for Active; 'I' for Inactive)
REMARK    1  A    between atoms: C_1  and  C_2
REMARK    2  A    between atoms: C_2  and  O_3
REMARK    3  A    between atoms: O_3  and  C_4
REMARK    4  A    between atoms: C_4  and  C_5
REMARK    5  A    between atoms: C_5  and  C_6
REMARK    6  A    between atoms: C_6  and  N_7
REMARK    7  A    between atoms: C_9  and  C_10
REMARK    8  A    between atoms: N_12  and  C_13
REMARK    9  A    between atoms: C_13  and  C_14
REMARK   10  A    between atoms: C_14  and  C_15
REMARK   11  A    between atoms: C_18  and  C_19
REMARK                            x       y       z     vdW  Elec       q    Type
REMARK                         _______ _______ _______ _____ _____    ______ ____
ROOT
ATOM      1  C   UNL     1       2.395   5.932  18.957  0.00  0.00    +0.000 C 
ATOM      2  O   UNL     1       2.820   6.190  20.081  0.00  0.00    +0.000 OA
ATOM      3  N   UNL     1       2.261   6.860  17.950  0.00  0.00    +0.000 N 
ATOM      4  H   UNL     1       1.829   6.583  17.077  0.00  0.00    +0.000 HD
ENDROOT
BRANCH   1   7
ATOM      5  N   UNL     1       4.004   3.628  17.691  0.00  0.00    +0.000 N 
ATOM      6  C   UNL     1       2.714   4.132  17.289  0.00  0.00    +0.000 C 
ATOM      7  C   UNL     1       2.043   4.503  18.595  0.00  0.00    +0.000 C 
ATOM      8  C   UNL     1       2.676   3.548  19.616  0.00  0.00    +0.000 C 
ATOM      9  C   UNL     1       4.051   3.304  19.041  0.00  0.00    +0.000 C 
ATOM     10  O   UNL     1       4.998   2.845  19.656  0.00  0.00    +0.000 OA
BRANCH   5  11
ATOM     11  C   UNL     1       5.163   3.632  16.814  0.00  0.00    +0.000 C 
BRANCH  11  12
ATOM     12  C   UNL     1       5.490   5.027  16.291  0.00  0.00    +0.000 C 
BRANCH  12  13
ATOM     13  C   UNL     1       6.864   5.066  15.635  0.00  0.00    +0.000 C 
BRANCH  13  14
ATOM     14  O   UNL     1       7.538   6.258  16.027  0.00  0.00    +0.000 OA
BRANCH  14  16
ATOM     15  C   UNL     1       7.825   8.006  17.624  0.00  0.00    +0.000 C 
ATOM     16  C   UNL     1       7.219   6.642  17.360  0.00  0.00    +0.000 C 
ENDBRANCH  14  16
ENDBRANCH  13  14
ENDBRANCH  12  13
ENDBRANCH  11  12
ENDBRANCH   5  11
ENDBRANCH   1   7
BRANCH   3  17
ATOM     17  C   UNL     1       2.534   8.297  18.114  0.00  0.00    +0.000 C 
BRANCH  17  18
ATOM     18  C   UNL     1       1.304   9.204  18.012  0.00  0.00    +0.000 C 
BRANCH  18  19
ATOM     19  C   UNL     1       0.726   9.663  19.316  0.00  0.00    +0.000 A 
ATOM     20  C   UNL     1      -0.188  10.722  19.330  0.00  0.00    +0.000 A 
ATOM     21  C   UNL     1      -0.782  11.120  20.524  0.00  0.00    +0.000 A 
ATOM     22  C   UNL     1      -0.467  10.461  21.719  0.00  0.00    +0.000 A 
ATOM     23  C   UNL     1      -1.072  10.901  23.015  0.00  0.00    +0.000 C 
ATOM     24  C   UNL     1       0.432   9.388  21.698  0.00  0.00    +0.000 A 
ATOM     25  C   UNL     1       1.025   8.988  20.502  0.00  0.00    +0.000 A 
ENDBRANCH  18  19
ENDBRANCH  17  18
ENDBRANCH   3  17
TORSDOF 9
ENDMDL
MODEL 6
REMARK VINA RESULT:      -6.9      2.109      6.582
REMARK  Name = 
REMARK  11 active torsions:
REMARK  status: ('A' for Active; 'I' for Inactive)
REMARK    1  A    between atoms: C_1  and  C_2
REMARK    2  A    between atoms: C_2  and  O_3
REMARK    3  A    between atoms: O_3  and  C_4
REMARK    4  A    between atoms: C_4  and  C_5
REMARK    5  A    between atoms: C_5  and  C_6
REMARK    6  A    between atoms: C_6  and  N_7
REMARK    7  A    between atoms: C_9  and  C_10
REMARK    8  A    between atoms: N_12  and  C_13
REMARK    9  A    between atoms: C_13  and  C_14
REMARK   10  A    between atoms: C_14  and  C_15
REMARK   11  A    between atoms: C_18  and  C_19
REMARK                            x       y       z     vdW  Elec       q    Type
REMARK                         _______ _______ _______ _____ _____    ______ ____
ROOT
ATOM      1  C   UNL     1       5.314   4.147  18.992  0.00  0.00    +0.000 C 
ATOM      2  O   UNL     1       4.975   5.187  19.550  0.00  0.00    +0.000 OA
ATOM      3  N   UNL     1       6.443   4.020  18.215  0.00  0.00    +0.000 N 
ATOM      4  H   UNL     1       6.610   3.149  17.725  0.00  0.00    +0.000 HD
ENDROOT
BRANCH   1   7
ATOM      5  N   UNL     1       2.302   3.627  19.386  0.00  0.00    +0.000 N 
ATOM      6  C   UNL     1       3.395   3.149  20.195  0.00  0.00    +0.000 C 
ATOM      7  C   UNL     1       4.502   2.884  19.195  0.00  0.00    +0.000 C 
ATOM      8  C   UNL     1       3.751   2.546  17.900  0.00  0.00    +0.000 C 
ATOM      9  C   UNL     1       2.470   3.335  18.039  0.00  0.00    +0.000 C 
ATOM     10  O   UNL     1       1.707   3.601  17.126  0.00  0.00    +0.000 OA
BRANCH   5  11
ATOM     11  C   UNL     1       1.240   4.470  19.909  0.00  0.00    +0.000 C 
BRANCH  11  12
ATOM     12  C   UNL     1       1.763   5.529  20.876  0.00  0.00    +0.000 C 
BRANCH  12  13
ATOM     13  C   UNL     1       1.554   6.934  20.326  0.00  0.00    +0.000 C 
BRANCH  13  14
ATOM     14  O   UNL     1       2.686   7.306  19.546  0.00  0.00    +0.000 OA
BRANCH  14  16
ATOM     15  C   UNL     1       2.107   8.909  17.878  0.00  0.00    +0.000 C 
ATOM     16  C   UNL     1       2.366   7.444  18.166  0.00  0.00    +0.000 C 
ENDBRANCH  14  16
ENDBRANCH  13  14
ENDBRANCH  12  13
ENDBRANCH  11  12
ENDBRANCH   5  11
ENDBRANCH   1   7
BRANCH   3  17
ATOM     17  C   UNL     1       7.346   5.135  17.887  0.00  0.00    +0.000 C 
BRANCH  17  18
ATOM     18  C   UNL     1       6.938   5.958  16.662  0.00  0.00    +0.000 C 
BRANCH  18  19
ATOM     19  C   UNL     1       6.596   5.170  15.434  0.00  0.00    +0.000 A 
ATOM     20  C   UNL     1       5.320   4.615  15.305  0.00  0.00    +0.000 A 
ATOM     21  C   UNL     1       4.965   3.934  14.143  0.00  0.00    +0.000 A 
ATOM     22  C   UNL     1       5.887   3.802  13.098  0.00  0.00    +0.000 A 
ATOM     23  C   UNL     1       5.531   3.043  11.858  0.00  0.00    +0.000 C 
ATOM     24  C   UNL     1       7.158   4.377  13.222  0.00  0.00    +0.000 A 
ATOM     25  C   UNL     1       7.512   5.061  14.384  0.00  0.00    +0.000 A 
ENDBRANCH  18  19
ENDBRANCH  17  18
ENDBRANCH   3  17
TORSDOF 9
ENDMDL
MODEL 7
REMARK VINA RESULT:      -6.8      4.588      7.618
REMARK  Name = 
REMARK  11 active torsions:
REMARK  status: ('A' for Active; 'I' for Inactive)
REMARK    1  A    between atoms: C_1  and  C_2
REMARK    2  A    between atoms: C_2  and  O_3
REMARK    3  A    between atoms: O_3  and  C_4
REMARK    4  A    between atoms: C_4  and  C_5
REMARK    5  A    between atoms: C_5  and  C_6
REMARK    6  A    between atoms: C_6  and  N_7
REMARK    7  A    between atoms: C_9  and  C_10
REMARK    8  A    between atoms: N_12  and  C_13
REMARK    9  A    between atoms: C_13  and  C_14
REMARK   10  A    between atoms: C_14  and  C_15
REMARK   11  A    between atoms: C_18  and  C_19
REMARK                            x       y       z     vdW  Elec       q    Type
REMARK                         _______ _______ _______ _____ _____    ______ ____
ROOT
ATOM      1  C   UNL     1       7.627   6.973  17.767  0.00  0.00    +0.000 C 
ATOM      2  O   UNL     1       7.110   7.341  16.715  0.00  0.00    +0.000 OA
ATOM      3  N   UNL     1       8.313   7.804  18.623  0.00  0.00    +0.000 N 
ATOM      4  H   UNL     1       8.777   7.407  19.431  0.00  0.00    +0.000 HD
ENDROOT
BRANCH   1   7
ATOM      5  N   UNL     1       5.243   5.020  17.775  0.00  0.00    +0.000 N 
ATOM      6  C   UNL     1       6.116   5.354  18.873  0.00  0.00    +0.000 C 
ATOM      7  C   UNL     1       7.471   5.535  18.220  0.00  0.00    +0.000 C 
ATOM      8  C   UNL     1       7.411   4.617  16.992  0.00  0.00    +0.000 C 
ATOM      9  C   UNL     1       5.941   4.616  16.644  0.00  0.00    +0.000 C 
ATOM     10  O   UNL     1       5.472   4.262  15.576  0.00  0.00    +0.000 OA
BRANCH   5  11
ATOM     11  C   UNL     1       3.809   5.251  17.806  0.00  0.00    +0.000 C 
BRANCH  11  12
ATOM     12  C   UNL     1       3.402   6.223  18.910  0.00  0.00    +0.000 C 
BRANCH  12  13
ATOM     13  C   UNL     1       2.602   5.523  20.000  0.00  0.00    +0.000 C 
BRANCH  13  14
ATOM     14  O   UNL     1       2.378   4.168  19.620  0.00  0.00    +0.000 OA
BRANCH  14  16
ATOM     15  C   UNL     1       0.851   2.397  19.152  0.00  0.00    +0.000 C 
ATOM     16  C   UNL     1       0.994   3.833  19.615  0.00  0.00    +0.000 C 
ENDBRANCH  14  16
ENDBRANCH  13  14
ENDBRANCH  12  13
ENDBRANCH  11  12
ENDBRANCH   5  11
ENDBRANCH   1   7
BRANCH   3  17
ATOM     17  C   UNL     1       8.584   9.224  18.349  0.00  0.00    +0.000 C 
BRANCH  17  18
ATOM     18  C   UNL     1       9.203  10.001  19.515  0.00  0.00    +0.000 C 
BRANCH  18  19
ATOM     19  C   UNL     1       9.966  11.235  19.142  0.00  0.00    +0.000 A 
ATOM     20  C   UNL     1      10.566  12.004  20.145  0.00  0.00    +0.000 A 
ATOM     21  C   UNL     1      11.331  13.118  19.811  0.00  0.00    +0.000 A 
ATOM     22  C   UNL     1      11.504  13.473  18.469  0.00  0.00    +0.000 A 
ATOM     23  C   UNL     1      12.296  14.688  18.097  0.00  0.00    +0.000 C 
ATOM     24  C   UNL     1      10.921  12.690  17.466  0.00  0.00    +0.000 A 
ATOM     25  C   UNL     1      10.156  11.573  17.800  0.00  0.00    +0.000 A 
ENDBRANCH  18  19
ENDBRANCH  17  18
ENDBRANCH   3  17
TORSDOF 9
ENDMDL
MODEL 8
REMARK VINA RESULT:      -6.8      1.122      1.146
REMARK  Name = 
REMARK  11 active torsions:
REMARK  status: ('A' for Active; 'I' for Inactive)
REMARK    1  A    between atoms: C_1  and  C_2
REMARK    2  A    between atoms: C_2  and  O_3
REMARK    3  A    between atoms: O_3  and  C_4
REMARK    4  A    between atoms: C_4  and  C_5
REMARK    5  A    between atoms: C_5  and  C_6
REMARK    6  A    between atoms: C_6  and  N_7
REMARK    7  A    between atoms: C_9  and  C_10
REMARK    8  A    between atoms: N_12  and  C_13
REMARK    9  A    between atoms: C_13  and  C_14
REMARK   10  A    between atoms: C_14  and  C_15
REMARK   11  A    between atoms: C_18  and  C_19
REMARK                            x       y       z     vdW  Elec       q    Type
REMARK                         _______ _______ _______ _____ _____    ______ ____
ROOT
ATOM      1  C   UNL     1       5.251   3.919  18.173  0.00  0.00    +0.000 C 
ATOM      2  O   UNL     1       4.919   3.312  17.158  0.00  0.00    +0.000 OA
ATOM      3  N   UNL     1       4.696   3.711  19.415  0.00  0.00    +0.000 N 
ATOM      4  H   UNL     1       4.971   4.308  20.185  0.00  0.00    +0.000 HD
ENDROOT
BRANCH   1   7
ATOM      5  N   UNL     1       6.761   5.243  15.834  0.00  0.00    +0.000 N 
ATOM      6  C   UNL     1       7.320   4.564  16.977  0.00  0.00    +0.000 C 
ATOM      7  C   UNL     1       6.383   4.925  18.111  0.00  0.00    +0.000 C 
ATOM      8  C   UNL     1       5.827   6.295  17.704  0.00  0.00    +0.000 C 
ATOM      9  C   UNL     1       5.861   6.237  16.195  0.00  0.00    +0.000 C 
ATOM     10  O   UNL     1       5.247   6.980  15.449  0.00  0.00    +0.000 OA
BRANCH   5  11
ATOM     11  C   UNL     1       6.989   4.808  14.467  0.00  0.00    +0.000 C 
BRANCH  11  12
ATOM     12  C   UNL     1       5.785   4.074  13.883  0.00  0.00    +0.000 C 
BRANCH  12  13
ATOM     13  C   UNL     1       6.151   3.339  12.601  0.00  0.00    +0.000 C 
BRANCH  13  14
ATOM     14  O   UNL     1       5.337   3.820  11.535  0.00  0.00    +0.000 OA
BRANCH  14  16
ATOM     15  C   UNL     1       3.342   3.639  10.240  0.00  0.00    +0.000 C 
ATOM     16  C   UNL     1       4.099   3.122  11.447  0.00  0.00    +0.000 C 
ENDBRANCH  14  16
ENDBRANCH  13  14
ENDBRANCH  12  13
ENDBRANCH  11  12
ENDBRANCH   5  11
ENDBRANCH   1   7
BRANCH   3  17
ATOM     17  C   UNL     1       3.576   2.791  19.671  0.00  0.00    +0.000 C 
BRANCH  17  18
ATOM     18  C   UNL     1       2.198   3.456  19.747  0.00  0.00    +0.000 C 
BRANCH  18  19
ATOM     19  C   UNL     1       2.144   4.890  19.319  0.00  0.00    +0.000 A 
ATOM     20  C   UNL     1       2.217   5.900  20.283  0.00  0.00    +0.000 A 
ATOM     21  C   UNL     1       2.231   7.238  19.898  0.00  0.00    +0.000 A 
ATOM     22  C   UNL     1       2.174   7.578  18.541  0.00  0.00    +0.000 A 
ATOM     23  C   UNL     1       2.154   9.013  18.115  0.00  0.00    +0.000 C 
ATOM     24  C   UNL     1       2.123   6.564  17.577  0.00  0.00    +0.000 A 
ATOM     25  C   UNL     1       2.110   5.225  17.963  0.00  0.00    +0.000 A 
ENDBRANCH  18  19
ENDBRANCH  17  18
ENDBRANCH   3  17
TORSDOF 9
ENDMDL
MODEL 9
REMARK VINA RESULT:      -6.8      3.150      5.714
REMARK  Name = 
REMARK  11 active torsions:
REMARK  status: ('A' for Active; 'I' for Inactive)
REMARK    1  A    between atoms: C_1  and  C_2
REMARK    2  A    between atoms: C_2  and  O_3
REMARK    3  A    between atoms: O_3  and  C_4
REMARK    4  A    between atoms: C_4  and  C_5
REMARK    5  A    between atoms: C_5  and  C_6
REMARK    6  A    between atoms: C_6  and  N_7
REMARK    7  A    between atoms: C_9  and  C_10
REMARK    8  A    between atoms: N_12  and  C_13
REMARK    9  A    between atoms: C_13  and  C_14
REMARK   10  A    between atoms: C_14  and  C_15
REMARK   11  A    between atoms: C_18  and  C_19
REMARK                            x       y       z     vdW  Elec       q    Type
REMARK                         _______ _______ _______ _____ _____    ______ ____
ROOT
ATOM      1  C   UNL     1       1.719   4.558  20.086  0.00  0.00    +0.000 C 
ATOM      2  O   UNL     1       1.356   4.138  21.182  0.00  0.00    +0.000 OA
ATOM      3  N   UNL     1       1.968   5.883  19.809  0.00  0.00    +0.000 N 
ATOM      4  H   UNL     1       2.187   6.157  18.859  0.00  0.00    +0.000 HD
ENDROOT
BRANCH   1   7
ATOM      5  N   UNL     1       4.290   3.648  18.649  0.00  0.00    +0.000 N 
ATOM      6  C   UNL     1       3.069   4.132  18.055  0.00  0.00    +0.000 C 
ATOM      7  C   UNL     1       1.981   3.583  18.955  0.00  0.00    +0.000 C 
ATOM      8  C   UNL     1       2.592   2.295  19.523  0.00  0.00    +0.000 C 
ATOM      9  C   UNL     1       4.071   2.602  19.537  0.00  0.00    +0.000 C 
ATOM     10  O   UNL     1       4.910   1.988  20.174  0.00  0.00    +0.000 OA
BRANCH   5  11
ATOM     11  C   UNL     1       5.573   4.303  18.465  0.00  0.00    +0.000 C 
BRANCH  11  12
ATOM     12  C   UNL     1       5.893   4.552  16.994  0.00  0.00    +0.000 C 
BRANCH  12  13
ATOM     13  C   UNL     1       7.363   4.896  16.795  0.00  0.00    +0.000 C 
BRANCH  13  14
ATOM     14  O   UNL     1       7.499   6.306  16.649  0.00  0.00    +0.000 OA
BRANCH  14  16
ATOM     15  C   UNL     1       7.827   8.448  17.645  0.00  0.00    +0.000 C 
ATOM     16  C   UNL     1       7.712   6.958  17.896  0.00  0.00    +0.000 C 
ENDBRANCH  14  16
ENDBRANCH  13  14
ENDBRANCH  12  13
ENDBRANCH  11  12
ENDBRANCH   5  11
ENDBRANCH   1   7
BRANCH   3  17
ATOM     17  C   UNL     1       1.754   6.978  20.769  0.00  0.00    +0.000 C 
BRANCH  17  18
ATOM     18  C   UNL     1       1.563   8.361  20.140  0.00  0.00    +0.000 C 
BRANCH  18  19
ATOM     19  C   UNL     1       0.707   9.315  20.916  0.00  0.00    +0.000 A 
ATOM     20  C   UNL     1       0.199   8.930  22.160  0.00  0.00    +0.000 A 
ATOM     21  C   UNL     1      -0.545   9.826  22.922  0.00  0.00    +0.000 A 
ATOM     22  C   UNL     1      -0.789  11.119  22.445  0.00  0.00    +0.000 A 
ATOM     23  C   UNL     1      -1.617  12.082  23.238  0.00  0.00    +0.000 C 
ATOM     24  C   UNL     1      -0.262  11.509  21.208  0.00  0.00    +0.000 A 
ATOM     25  C   UNL     1       0.485  10.612  20.446  0.00  0.00    +0.000 A 
ENDBRANCH  18  19
ENDBRANCH  17  18
ENDBRANCH   3  17
TORSDOF 9
ENDMDL
