MODEL 1
REMARK VINA RESULT:      -6.6      0.000      0.000
REMARK  Name = 
REMARK  5 active torsions:
REMARK  status: ('A' for Active; 'I' for Inactive)
REMARK    1  A    between atoms: N_1  and  S_2
REMARK    2  A    between atoms: S_2  and  C_5
REMARK    3  A    between atoms: C_8  and  N_9
REMARK    4  A    between atoms: C_10  and  C_12
REMARK    5  A    between atoms: C_12  and  C_13
REMARK                            x       y       z     vdW  Elec       q    Type
REMARK                         _______ _______ _______ _____ _____    ______ ____
ROOT
ATOM      1  C   UNL     1       3.047   4.030  19.507  0.00  0.00    +0.000 A 
ATOM      2  C   UNL     1       2.679   3.334  18.358  0.00  0.00    +0.000 A 
ATOM      3  C   UNL     1       3.567   3.255  17.285  0.00  0.00    +0.000 A 
ATOM      4  C   UNL     1       4.829   3.859  17.362  0.00  0.00    +0.000 A 
ATOM      5  C   UNL     1       5.207   4.505  18.552  0.00  0.00    +0.000 A 
ATOM      6 BR   UNL     1       6.892   5.372  18.705  0.00  0.00    +0.000 Br
ATOM      7  C   UNL     1       4.315   4.608  19.622  0.00  0.00    +0.000 A 
ENDROOT
BRANCH   4   8
ATOM      8  N   UNL     1       5.721   3.820  16.264  0.00  0.00    +0.000 N 
ATOM      9  C   UNL     1       5.808   4.845  15.332  0.00  0.00    +0.000 C 
ATOM     10  O   UNL     1       5.163   5.890  15.376  0.00  0.00    +0.000 OA
ATOM     11  H   UNL     1       6.569   3.278  16.400  0.00  0.00    +0.000 HD
BRANCH   9  12
ATOM     12  C   UNL     1       6.801   4.574  14.216  0.00  0.00    +0.000 C 
BRANCH  12  13
ATOM     13  C   UNL     1       6.162   3.840  13.075  0.00  0.00    +0.000 A 
ATOM     14  C   UNL     1       4.823   3.773  12.740  0.00  0.00    +0.000 A 
ATOM     15  C   UNL     1       4.582   2.905  11.635  0.00  0.00    +0.000 A 
ATOM     16  C   UNL     1       5.744   2.344  11.156  0.00  0.00    +0.000 A 
ATOM     17  S   UNL     1       7.117   2.872  12.029  0.00  0.00    +0.000 S 
ENDBRANCH  12  13
ENDBRANCH   9  12
ENDBRANCH   4   8
BRANCH   1  18
ATOM     18  S   UNL     1       1.873   4.255  20.813  0.00  0.00    +0.000 S 
ATOM     19  O   UNL     1       1.492   5.646  20.854  0.00  0.00    +0.000 OA
ATOM     20  O   UNL     1       2.308   3.525  21.980  0.00  0.00    +0.000 OA
BRANCH  18  21
ATOM     21  N   UNL     1       0.544   3.410  20.230  0.00  0.00    +0.000 NA
ATOM     22  H   UNL     1       0.683   2.407  20.365  0.00  0.00    +0.000 HD
ATOM     23  H   UNL     1       0.353   3.672  19.261  0.00  0.00    +0.000 HD
ENDBRANCH  18  21
ENDBRANCH   1  18
TORSDOF 5
ENDMDL
MODEL 2
REMARK VINA RESULT:      -6.4      0.845      1.066
REMARK  Name = 
REMARK  5 active torsions:
REMARK  status: ('A' for Active; 'I' for Inactive)
REMARK    1  A    between atoms: N_1  and  S_2
REMARK    2  A    between atoms: S_2  and  C_5
REMARK    3  A    between atoms: C_8  and  N_9
REMARK    4  A    between atoms: C_10  and  C_12
REMARK    5  A    between atoms: C_12  and  C_13
REMARK                            x       y       z     vdW  Elec       q    Type
REMARK                         _______ _______ _______ _____ _____    ______ ____
ROOT
ATOM      1  C   UNL     1       3.112   4.164  19.309  0.00  0.00    +0.000 A 
ATOM      2  C   UNL     1       2.690   3.523  18.146  0.00  0.00    +0.000 A 
ATOM      3  C   UNL     1       3.559   3.421  17.060  0.00  0.00    +0.000 A 
ATOM      4  C   UNL     1       4.856   3.947  17.137  0.00  0.00    +0.000 A 
ATOM      5  C   UNL     1       5.286   4.536  18.338  0.00  0.00    +0.000 A 
ATOM      6 BR   UNL     1       7.021   5.297  18.493  0.00  0.00    +0.000 Br
ATOM      7  C   UNL     1       4.414   4.662  19.423  0.00  0.00    +0.000 A 
ENDROOT
BRANCH   4   8
ATOM      8  N   UNL     1       5.731   3.885  16.026  0.00  0.00    +0.000 N 
ATOM      9  C   UNL     1       5.895   4.941  15.141  0.00  0.00    +0.000 C 
ATOM     10  O   UNL     1       5.339   6.033  15.241  0.00  0.00    +0.000 OA
ATOM     11  H   UNL     1       6.533   3.269  16.126  0.00  0.00    +0.000 HD
BRANCH   9  12
ATOM     12  C   UNL     1       6.850   4.641  14.001  0.00  0.00    +0.000 C 
BRANCH  12  13
ATOM     13  C   UNL     1       6.191   3.829  12.927  0.00  0.00    +0.000 A 
ATOM     14  C   UNL     1       4.858   3.804  12.565  0.00  0.00    +0.000 A 
ATOM     15  C   UNL     1       4.587   2.839  11.552  0.00  0.00    +0.000 A 
ATOM     16  C   UNL     1       5.722   2.164  11.165  0.00  0.00    +0.000 A 
ATOM     17  S   UNL     1       7.107   2.701  12.013  0.00  0.00    +0.000 S 
ENDBRANCH  12  13
ENDBRANCH   9  12
ENDBRANCH   4   8
BRANCH   1  18
ATOM     18  S   UNL     1       1.969   4.422  20.636  0.00  0.00    +0.000 S 
ATOM     19  O   UNL     1       2.497   3.802  21.826  0.00  0.00    +0.000 OA
ATOM     20  O   UNL     1       0.624   4.192  20.161  0.00  0.00    +0.000 OA
BRANCH  18  21
ATOM     21  N   UNL     1       2.081   6.082  20.868  0.00  0.00    +0.000 NA
ATOM     22  H   UNL     1       2.486   6.522  20.039  0.00  0.00    +0.000 HD
ATOM     23  H   UNL     1       2.586   6.286  21.731  0.00  0.00    +0.000 HD
ENDBRANCH  18  21
ENDBRANCH   1  18
TORSDOF 5
ENDMDL
MODEL 3
REMARK VINA RESULT:      -6.3      5.466      8.780
REMARK  Name = 
REMARK  5 active torsions:
REMARK  status: ('A' for Active; 'I' for Inactive)
REMARK    1  A    between atoms: N_1  and  S_2
REMARK    2  A    between atoms: S_2  and  C_5
REMARK    3  A    between atoms: C_8  and  N_9
REMARK    4  A    between atoms: C_10  and  C_12
REMARK    5  A    between atoms: C_12  and  C_13
REMARK                            x       y       z     vdW  Elec       q    Type
REMARK                         _______ _______ _______ _____ _____    ______ ____
ROOT
ATOM      1  C   UNL     1       2.225   4.278  18.939  0.00  0.00    +0.000 A 
ATOM      2  C   UNL     1       1.894   4.276  20.292  0.00  0.00    +0.000 A 
ATOM      3  C   UNL     1       1.765   5.486  20.973  0.00  0.00    +0.000 A 
ATOM      4  C   UNL     1       1.955   6.702  20.303  0.00  0.00    +0.000 A 
ATOM      5  C   UNL     1       2.228   6.687  18.924  0.00  0.00    +0.000 A 
ATOM      6 BR   UNL     1       2.529   8.302  17.967  0.00  0.00    +0.000 Br
ATOM      7  C   UNL     1       2.380   5.479  18.240  0.00  0.00    +0.000 A 
ENDROOT
BRANCH   4   8
ATOM      8  N   UNL     1       1.868   7.934  20.994  0.00  0.00    +0.000 N 
ATOM      9  C   UNL     1       0.663   8.462  21.438  0.00  0.00    +0.000 C 
ATOM     10  O   UNL     1      -0.431   7.914  21.314  0.00  0.00    +0.000 OA
ATOM     11  H   UNL     1       2.687   8.199  21.533  0.00  0.00    +0.000 HD
BRANCH   9  12
ATOM     12  C   UNL     1       0.800   9.811  22.118  0.00  0.00    +0.000 C 
BRANCH  12  13
ATOM     13  C   UNL     1      -0.291  10.752  21.701  0.00  0.00    +0.000 A 
ATOM     14  C   UNL     1      -0.575  11.231  20.436  0.00  0.00    +0.000 A 
ATOM     15  C   UNL     1      -1.639  12.179  20.439  0.00  0.00    +0.000 A 
ATOM     16  C   UNL     1      -2.139  12.389  21.704  0.00  0.00    +0.000 A 
ATOM     17  S   UNL     1      -1.336  11.437  22.877  0.00  0.00    +0.000 S 
ENDBRANCH  12  13
ENDBRANCH   9  12
ENDBRANCH   4   8
BRANCH   1  18
ATOM     18  S   UNL     1       2.529   2.747  18.105  0.00  0.00    +0.000 S 
ATOM     19  O   UNL     1       3.719   2.149  18.660  0.00  0.00    +0.000 OA
ATOM     20  O   UNL     1       2.329   2.925  16.686  0.00  0.00    +0.000 OA
BRANCH  18  21
ATOM     21  N   UNL     1       1.234   1.810  18.622  0.00  0.00    +0.000 NA
ATOM     22  H   UNL     1       1.280   0.886  18.191  0.00  0.00    +0.000 HD
ATOM     23  H   UNL     1       0.353   2.299  18.454  0.00  0.00    +0.000 HD
ENDBRANCH  18  21
ENDBRANCH   1  18
TORSDOF 5
ENDMDL
MODEL 4
REMARK VINA RESULT:      -6.3      5.479      8.803
REMARK  Name = 
REMARK  5 active torsions:
REMARK  status: ('A' for Active; 'I' for Inactive)
REMARK    1  A    between atoms: N_1  and  S_2
REMARK    2  A    between atoms: S_2  and  C_5
REMARK    3  A    between atoms: C_8  and  N_9
REMARK    4  A    between atoms: C_10  and  C_12
REMARK    5  A    between atoms: C_12  and  C_13
REMARK                            x       y       z     vdW  Elec       q    Type
REMARK                         _______ _______ _______ _____ _____    ______ ____
ROOT
ATOM      1  C   UNL     1       2.294   4.372  18.928  0.00  0.00    +0.000 A 
ATOM      2  C   UNL     1       1.990   4.340  20.287  0.00  0.00    +0.000 A 
ATOM      3  C   UNL     1       1.816   5.536  20.983  0.00  0.00    +0.000 A 
ATOM      4  C   UNL     1       1.932   6.766  20.322  0.00  0.00    +0.000 A 
ATOM      5  C   UNL     1       2.179   6.778  18.939  0.00  0.00    +0.000 A 
ATOM      6 BR   UNL     1       2.382   8.415  17.992  0.00  0.00    +0.000 Br
ATOM      7  C   UNL     1       2.377   5.585  18.238  0.00  0.00    +0.000 A 
ENDROOT
BRANCH   4   8
ATOM      8  N   UNL     1       1.799   7.985  21.028  0.00  0.00    +0.000 N 
ATOM      9  C   UNL     1       0.583   8.436  21.524  0.00  0.00    +0.000 C 
ATOM     10  O   UNL     1      -0.480   7.823  21.438  0.00  0.00    +0.000 OA
ATOM     11  H   UNL     1       2.621   8.297  21.536  0.00  0.00    +0.000 HD
BRANCH   9  12
ATOM     12  C   UNL     1       0.665   9.786  22.211  0.00  0.00    +0.000 C 
BRANCH  12  13
ATOM     13  C   UNL     1      -0.389  10.727  21.706  0.00  0.00    +0.000 A 
ATOM     14  C   UNL     1      -0.652  11.101  20.402  0.00  0.00    +0.000 A 
ATOM     15  C   UNL     1      -1.679  12.085  20.316  0.00  0.00    +0.000 A 
ATOM     16  C   UNL     1      -2.174  12.425  21.554  0.00  0.00    +0.000 A 
ATOM     17  S   UNL     1      -1.409  11.552  22.811  0.00  0.00    +0.000 S 
ENDBRANCH  12  13
ENDBRANCH   9  12
ENDBRANCH   4   8
BRANCH   1  18
ATOM     18  S   UNL     1       2.656   2.865  18.072  0.00  0.00    +0.000 S 
ATOM     19  O   UNL     1       2.295   3.025  16.684  0.00  0.00    +0.000 OA
ATOM     20  O   UNL     1       2.223   1.743  18.871  0.00  0.00    +0.000 OA
BRANCH  18  21
ATOM     21  N   UNL     1       4.334   2.831  18.131  0.00  0.00    +0.000 NA
ATOM     22  H   UNL     1       4.661   1.864  18.173  0.00  0.00    +0.000 HD
ATOM     23  H   UNL     1       4.674   3.414  18.898  0.00  0.00    +0.000 HD
ENDBRANCH  18  21
ENDBRANCH   1  18
TORSDOF 5
ENDMDL
MODEL 5
REMARK VINA RESULT:      -6.2      5.136      7.948
REMARK  Name = 
REMARK  5 active torsions:
REMARK  status: ('A' for Active; 'I' for Inactive)
REMARK    1  A    between atoms: N_1  and  S_2
REMARK    2  A    between atoms: S_2  and  C_5
REMARK    3  A    between atoms: C_8  and  N_9
REMARK    4  A    between atoms: C_10  and  C_12
REMARK    5  A    between atoms: C_12  and  C_13
REMARK                            x       y       z     vdW  Elec       q    Type
REMARK                         _______ _______ _______ _____ _____    ______ ____
ROOT
ATOM      1  C   UNL     1       5.008   5.351  16.401  0.00  0.00    +0.000 A 
ATOM      2  C   UNL     1       5.152   6.733  16.508  0.00  0.00    +0.000 A 
ATOM      3  C   UNL     1       4.293   7.454  17.337  0.00  0.00    +0.000 A 
ATOM      4  C   UNL     1       3.297   6.796  18.071  0.00  0.00    +0.000 A 
ATOM      5  C   UNL     1       3.205   5.396  17.998  0.00  0.00    +0.000 A 
ATOM      6 BR   UNL     1       1.854   4.450  18.944  0.00  0.00    +0.000 Br
ATOM      7  C   UNL     1       4.047   4.669  17.153  0.00  0.00    +0.000 A 
ENDROOT
BRANCH   4   8
ATOM      8  N   UNL     1       2.394   7.523  18.883  0.00  0.00    +0.000 N 
ATOM      9  C   UNL     1       1.840   8.734  18.490  0.00  0.00    +0.000 C 
ATOM     10  O   UNL     1       2.039   9.277  17.405  0.00  0.00    +0.000 OA
ATOM     11  H   UNL     1       1.833   6.973  19.526  0.00  0.00    +0.000 HD
BRANCH   9  12
ATOM     12  C   UNL     1       0.932   9.358  19.533  0.00  0.00    +0.000 C 
BRANCH  12  13
ATOM     13  C   UNL     1      -0.032  10.327  18.916  0.00  0.00    +0.000 A 
ATOM     14  C   UNL     1      -1.167  10.056  18.177  0.00  0.00    +0.000 A 
ATOM     15  C   UNL     1      -1.788  11.239  17.679  0.00  0.00    +0.000 A 
ATOM     16  C   UNL     1      -1.113  12.376  18.062  0.00  0.00    +0.000 A 
ATOM     17  S   UNL     1       0.255  12.016  19.025  0.00  0.00    +0.000 S 
ENDBRANCH  12  13
ENDBRANCH   9  12
ENDBRANCH   4   8
BRANCH   1  18
ATOM     18  S   UNL     1       6.000   4.451  15.243  0.00  0.00    +0.000 S 
ATOM     19  O   UNL     1       7.376   4.850  15.407  0.00  0.00    +0.000 OA
ATOM     20  O   UNL     1       5.337   4.427  13.961  0.00  0.00    +0.000 OA
BRANCH  18  21
ATOM     21  N   UNL     1       5.881   2.883  15.835  0.00  0.00    +0.000 NA
ATOM     22  H   UNL     1       6.752   2.380  15.662  0.00  0.00    +0.000 HD
ATOM     23  H   UNL     1       5.055   2.421  15.451  0.00  0.00    +0.000 HD
ENDBRANCH  18  21
ENDBRANCH   1  18
TORSDOF 5
ENDMDL
MODEL 6
REMARK VINA RESULT:      -6.2      5.174      8.045
REMARK  Name = 
REMARK  5 active torsions:
REMARK  status: ('A' for Active; 'I' for Inactive)
REMARK    1  A    between atoms: N_1  and  S_2
REMARK    2  A    between atoms: S_2  and  C_5
REMARK    3  A    between atoms: C_8  and  N_9
REMARK    4  A    between atoms: C_10  and  C_12
REMARK    5  A    between atoms: C_12  and  C_13
REMARK                            x       y       z     vdW  Elec       q    Type
REMARK                         _______ _______ _______ _____ _____    ______ ____
ROOT
ATOM      1  C   UNL     1       5.330   5.456  16.551  0.00  0.00    +0.000 A 
ATOM      2  C   UNL     1       5.507   6.801  16.867  0.00  0.00    +0.000 A 
ATOM      3  C   UNL     1       4.553   7.458  17.644  0.00  0.00    +0.000 A 
ATOM      4  C   UNL     1       3.428   6.771  18.118  0.00  0.00    +0.000 A 
ATOM      5  C   UNL     1       3.297   5.400  17.842  0.00  0.00    +0.000 A 
ATOM      6 BR   UNL     1       1.776   4.421  18.429  0.00  0.00    +0.000 Br
ATOM      7  C   UNL     1       4.236   4.739  17.045  0.00  0.00    +0.000 A 
ENDROOT
BRANCH   4   8
ATOM      8  N   UNL     1       2.434   7.439  18.873  0.00  0.00    +0.000 N 
ATOM      9  C   UNL     1       1.844   8.624  18.454  0.00  0.00    +0.000 C 
ATOM     10  O   UNL     1       2.088   9.191  17.390  0.00  0.00    +0.000 OA
ATOM     11  H   UNL     1       1.860   6.852  19.470  0.00  0.00    +0.000 HD
BRANCH   9  12
ATOM     12  C   UNL     1       0.835   9.186  19.437  0.00  0.00    +0.000 C 
BRANCH  12  13
ATOM     13  C   UNL     1       0.239  10.471  18.943  0.00  0.00    +0.000 A 
ATOM     14  C   UNL     1       0.737  11.753  19.072  0.00  0.00    +0.000 A 
ATOM     15  C   UNL     1      -0.152  12.737  18.548  0.00  0.00    +0.000 A 
ATOM     16  C   UNL     1      -1.295  12.174  18.028  0.00  0.00    +0.000 A 
ATOM     17  S   UNL     1      -1.288  10.469  18.162  0.00  0.00    +0.000 S 
ENDBRANCH  12  13
ENDBRANCH   9  12
ENDBRANCH   4   8
BRANCH   1  18
ATOM     18  S   UNL     1       6.461   4.655  15.449  0.00  0.00    +0.000 S 
ATOM     19  O   UNL     1       6.842   5.592  14.420  0.00  0.00    +0.000 OA
ATOM     20  O   UNL     1       5.986   3.323  15.160  0.00  0.00    +0.000 OA
BRANCH  18  21
ATOM     21  N   UNL     1       7.807   4.444  16.430  0.00  0.00    +0.000 NA
ATOM     22  H   UNL     1       8.656   4.457  15.863  0.00  0.00    +0.000 HD
ATOM     23  H   UNL     1       7.704   3.601  16.997  0.00  0.00    +0.000 HD
ENDBRANCH  18  21
ENDBRANCH   1  18
TORSDOF 5
ENDMDL
MODEL 7
REMARK VINA RESULT:      -6.1      3.951      4.738
REMARK  Name = 
REMARK  5 active torsions:
REMARK  status: ('A' for Active; 'I' for Inactive)
REMARK    1  A    between atoms: N_1  and  S_2
REMARK    2  A    between atoms: S_2  and  C_5
REMARK    3  A    between atoms: C_8  and  N_9
REMARK    4  A    between atoms: C_10  and  C_12
REMARK    5  A    between atoms: C_12  and  C_13
REMARK                            x       y       z     vdW  Elec       q    Type
REMARK                         _______ _______ _______ _____ _____    ______ ____
ROOT
ATOM      1  C   UNL     1       1.374   8.497  20.227  0.00  0.00    +0.000 A 
ATOM      2  C   UNL     1       1.916   8.667  18.955  0.00  0.00    +0.000 A 
ATOM      3  C   UNL     1       2.500   7.581  18.303  0.00  0.00    +0.000 A 
ATOM      4  C   UNL     1       2.533   6.321  18.914  0.00  0.00    +0.000 A 
ATOM      5  C   UNL     1       1.927   6.153  20.171  0.00  0.00    +0.000 A 
ATOM      6 BR   UNL     1       1.969   4.476  21.065  0.00  0.00    +0.000 Br
ATOM      7  C   UNL     1       1.360   7.241  20.840  0.00  0.00    +0.000 A 
ENDROOT
BRANCH   4   8
ATOM      8  N   UNL     1       3.160   5.222  18.279  0.00  0.00    +0.000 N 
ATOM      9  C   UNL     1       4.466   4.841  18.555  0.00  0.00    +0.000 C 
ATOM     10  O   UNL     1       5.193   5.380  19.388  0.00  0.00    +0.000 OA
ATOM     11  H   UNL     1       2.543   4.477  17.968  0.00  0.00    +0.000 HD
BRANCH   9  12
ATOM     12  C   UNL     1       4.948   3.663  17.729  0.00  0.00    +0.000 C 
BRANCH  12  13
ATOM     13  C   UNL     1       5.609   4.113  16.460  0.00  0.00    +0.000 A 
ATOM     14  C   UNL     1       5.134   4.024  15.166  0.00  0.00    +0.000 A 
ATOM     15  C   UNL     1       6.083   4.480  14.205  0.00  0.00    +0.000 A 
ATOM     16  C   UNL     1       7.249   4.911  14.796  0.00  0.00    +0.000 A 
ATOM     17  S   UNL     1       7.192   4.775  16.500  0.00  0.00    +0.000 S 
ENDBRANCH  12  13
ENDBRANCH   9  12
ENDBRANCH   4   8
BRANCH   1  18
ATOM     18  S   UNL     1       0.761   9.900  21.116  0.00  0.00    +0.000 S 
ATOM     19  O   UNL     1       1.555  10.072  22.309  0.00  0.00    +0.000 OA
ATOM     20  O   UNL     1      -0.683   9.864  21.133  0.00  0.00    +0.000 OA
BRANCH  18  21
ATOM     21  N   UNL     1       1.162  11.163  20.085  0.00  0.00    +0.000 NA
ATOM     22  H   UNL     1       2.143  11.088  19.810  0.00  0.00    +0.000 HD
ATOM     23  H   UNL     1       0.922  12.059  20.512  0.00  0.00    +0.000 HD
ENDBRANCH  18  21
ENDBRANCH   1  18
TORSDOF 5
ENDMDL
MODEL 8
REMARK VINA RESULT:      -6.1      5.363      8.271
REMARK  Name = 
REMARK  5 active torsions:
REMARK  status: ('A' for Active; 'I' for Inactive)
REMARK    1  A    between atoms: N_1  and  S_2
REMARK    2  A    between atoms: S_2  and  C_5
REMARK    3  A    between atoms: C_8  and  N_9
REMARK    4  A    between atoms: C_10  and  C_12
REMARK    5  A    between atoms: C_12  and  C_13
REMARK                            x       y       z     vdW  Elec       q    Type
REMARK                         _______ _______ _______ _____ _____    ______ ____
ROOT
ATOM      1  C   UNL     1       2.248   4.366  18.949  0.00  0.00    +0.000 A 
ATOM      2  C   UNL     1       1.885   4.414  20.293  0.00  0.00    +0.000 A 
ATOM      3  C   UNL     1       1.720   5.650  20.918  0.00  0.00    +0.000 A 
ATOM      4  C   UNL     1       1.905   6.839  20.201  0.00  0.00    +0.000 A 
ATOM      5  C   UNL     1       2.211   6.772  18.831  0.00  0.00    +0.000 A 
ATOM      6 BR   UNL     1       2.506   8.349  17.812  0.00  0.00    +0.000 Br
ATOM      7  C   UNL     1       2.399   5.538  18.202  0.00  0.00    +0.000 A 
ENDROOT
BRANCH   4   8
ATOM      8  N   UNL     1       1.780   8.097  20.837  0.00  0.00    +0.000 N 
ATOM      9  C   UNL     1       0.577   8.565  21.346  0.00  0.00    +0.000 C 
ATOM     10  O   UNL     1      -0.481   7.939  21.333  0.00  0.00    +0.000 OA
ATOM     11  H   UNL     1       2.616   8.446  21.298  0.00  0.00    +0.000 HD
BRANCH   9  12
ATOM     12  C   UNL     1       0.666   9.955  21.948  0.00  0.00    +0.000 C 
BRANCH  12  13
ATOM     13  C   UNL     1       0.276  11.012  20.957  0.00  0.00    +0.000 A 
ATOM     14  C   UNL     1      -0.842  11.059  20.148  0.00  0.00    +0.000 A 
ATOM     15  C   UNL     1      -0.830  12.181  19.268  0.00  0.00    +0.000 A 
ATOM     16  C   UNL     1       0.292  12.959  19.440  0.00  0.00    +0.000 A 
ATOM     17  S   UNL     1       1.317  12.344  20.663  0.00  0.00    +0.000 S 
ENDBRANCH  12  13
ENDBRANCH   9  12
ENDBRANCH   4   8
BRANCH   1  18
ATOM     18  S   UNL     1       2.597   2.806  18.188  0.00  0.00    +0.000 S 
ATOM     19  O   UNL     1       3.804   2.270  18.770  0.00  0.00    +0.000 OA
ATOM     20  O   UNL     1       2.394   2.911  16.762  0.00  0.00    +0.000 OA
BRANCH  18  21
ATOM     21  N   UNL     1       1.330   1.857  18.749  0.00  0.00    +0.000 NA
ATOM     22  H   UNL     1       0.472   2.410  18.785  0.00  0.00    +0.000 HD
ATOM     23  H   UNL     1       1.579   1.424  19.640  0.00  0.00    +0.000 HD
ENDBRANCH  18  21
ENDBRANCH   1  18
TORSDOF 5
ENDMDL
MODEL 9
REMARK VINA RESULT:      -6.1      4.138      4.956
REMARK  Name = 
REMARK  5 active torsions:
REMARK  status: ('A' for Active; 'I' for Inactive)
REMARK    1  A    between atoms: N_1  and  S_2
REMARK    2  A    between atoms: S_2  and  C_5
REMARK    3  A    between atoms: C_8  and  N_9
REMARK    4  A    between atoms: C_10  and  C_12
REMARK    5  A    between atoms: C_12  and  C_13
REMARK                            x       y       z     vdW  Elec       q    Type
REMARK                         _______ _______ _______ _____ _____    ______ ____
ROOT
ATOM      1  C   UNL     1       1.320   8.952  19.685  0.00  0.00    +0.000 A 
ATOM      2  C   UNL     1       1.915   9.042  18.429  0.00  0.00    +0.000 A 
ATOM      3  C   UNL     1       2.644   7.961  17.932  0.00  0.00    +0.000 A 
ATOM      4  C   UNL     1       2.770   6.785  18.683  0.00  0.00    +0.000 A 
ATOM      5  C   UNL     1       2.113   6.690  19.921  0.00  0.00    +0.000 A 
ATOM      6 BR   UNL     1       2.275   5.133  21.001  0.00  0.00    +0.000 Br
ATOM      7  C   UNL     1       1.399   7.775  20.436  0.00  0.00    +0.000 A 
ENDROOT
BRANCH   4   8
ATOM      8  N   UNL     1       3.543   5.699  18.206  0.00  0.00    +0.000 N 
ATOM      9  C   UNL     1       2.976   4.572  17.628  0.00  0.00    +0.000 C 
ATOM     10  O   UNL     1       1.771   4.411  17.439  0.00  0.00    +0.000 OA
ATOM     11  H   UNL     1       4.482   5.926  17.893  0.00  0.00    +0.000 HD
BRANCH   9  12
ATOM     12  C   UNL     1       3.988   3.515  17.227  0.00  0.00    +0.000 C 
BRANCH  12  13
ATOM     13  C   UNL     1       5.116   4.104  16.434  0.00  0.00    +0.000 A 
ATOM     14  C   UNL     1       5.182   4.335  15.074  0.00  0.00    +0.000 A 
ATOM     15  C   UNL     1       6.454   4.831  14.666  0.00  0.00    +0.000 A 
ATOM     16  C   UNL     1       7.317   4.972  15.729  0.00  0.00    +0.000 A 
ATOM     17  S   UNL     1       6.590   4.518  17.210  0.00  0.00    +0.000 S 
ENDBRANCH  12  13
ENDBRANCH   9  12
ENDBRANCH   4   8
BRANCH   1  18
ATOM     18  S   UNL     1       0.515  10.367  20.381  0.00  0.00    +0.000 S 
ATOM     19  O   UNL     1       1.261  11.547  20.014  0.00  0.00    +0.000 OA
ATOM     20  O   UNL     1       0.124  10.077  21.740  0.00  0.00    +0.000 OA
BRANCH  18  21
ATOM     21  N   UNL     1      -0.918  10.413  19.506  0.00  0.00    +0.000 NA
ATOM     22  H   UNL     1      -0.790   9.949  18.606  0.00  0.00    +0.000 HD
ATOM     23  H   UNL     1      -1.257  11.374  19.430  0.00  0.00    +0.000 HD
ENDBRANCH  18  21
ENDBRANCH   1  18
TORSDOF 5
ENDMDL
