MODEL 1
REMARK VINA RESULT:      -8.1      0.000      0.000
REMARK  Name = 
REMARK  3 active torsions:
REMARK  status: ('A' for Active; 'I' for Inactive)
REMARK    1  A    between atoms: C_1  and  C_2
REMARK    2  A    between atoms: N_5  and  S_6
REMARK    3  A    between atoms: S_6  and  C_9
REMARK                            x       y       z     vdW  Elec       q    Type
REMARK                         _______ _______ _______ _____ _____    ______ ____
ROOT
ATOM      1  S   UNL     1       4.132   3.511  18.225  0.00  0.00    +0.000 S 
ATOM      2  O   UNL     1       3.805   3.956  16.887  0.00  0.00    +0.000 OA
ATOM      3  O   UNL     1       3.730   2.212  18.716  0.00  0.00    +0.000 OA
ENDROOT
BRANCH   1   4
ATOM      4  C   UNL     1       3.308   4.653  19.233  0.00  0.00    +0.000 A 
ATOM      5  C   UNL     1       2.794   4.404  20.495  0.00  0.00    +0.000 A 
ATOM      6  N   UNL     1       2.184   5.548  20.934  0.00  0.00    +0.000 N 
ATOM      7  C   UNL     1       2.286   6.522  19.980  0.00  0.00    +0.000 A 
ATOM      8  N   UNL     1       1.766   7.754  20.114  0.00  0.00    +0.000 NA
ATOM      9  C   UNL     1       1.974   8.538  19.030  0.00  0.00    +0.000 A 
ATOM     10  C   UNL     1       2.647   8.154  17.879  0.00  0.00    +0.000 A 
ATOM     11  C   UNL     1       3.162   6.857  17.789  0.00  0.00    +0.000 A 
ATOM     12  C   UNL     1       2.983   5.999  18.890  0.00  0.00    +0.000 A 
ATOM     13  H   UNL     1       1.695   5.677  21.808  0.00  0.00    +0.000 HD
ENDBRANCH   1   4
BRANCH   1  18
ATOM     14  C   UNL     1       7.885   8.145  17.593  0.00  0.00    +0.000 C 
ATOM     15  C   UNL     1       7.303   6.790  17.579  0.00  0.00    +0.000 A 
ATOM     16  C   UNL     1       6.605   6.039  18.491  0.00  0.00    +0.000 A 
ATOM     17  C   UNL     1       6.385   4.815  17.832  0.00  0.00    +0.000 A 
ATOM     18  N   UNL     1       5.804   3.683  18.387  0.00  0.00    +0.000 N 
ATOM     19  N   UNL     1       6.941   4.795  16.622  0.00  0.00    +0.000 NA
ATOM     20  O   UNL     1       7.484   6.059  16.444  0.00  0.00    +0.000 OA
ATOM     21  H   UNL     1       6.237   2.826  18.056  0.00  0.00    +0.000 HD
ENDBRANCH   1  18
TORSDOF 2
ENDMDL
MODEL 2
REMARK VINA RESULT:      -7.9      2.947      3.858
REMARK  Name = 
REMARK  3 active torsions:
REMARK  status: ('A' for Active; 'I' for Inactive)
REMARK    1  A    between atoms: C_1  and  C_2
REMARK    2  A    between atoms: N_5  and  S_6
REMARK    3  A    between atoms: S_6  and  C_9
REMARK                            x       y       z     vdW  Elec       q    Type
REMARK                         _______ _______ _______ _____ _____    ______ ____
ROOT
ATOM      1  S   UNL     1       5.572   4.966  18.505  0.00  0.00    +0.000 S 
ATOM      2  O   UNL     1       6.771   4.161  18.402  0.00  0.00    +0.000 OA
ATOM      3  O   UNL     1       5.300   5.784  19.665  0.00  0.00    +0.000 OA
ENDROOT
BRANCH   1   4
ATOM      4  C   UNL     1       4.304   3.788  18.472  0.00  0.00    +0.000 A 
ATOM      5  C   UNL     1       4.257   2.665  17.662  0.00  0.00    +0.000 A 
ATOM      6  N   UNL     1       3.074   2.018  17.907  0.00  0.00    +0.000 N 
ATOM      7  C   UNL     1       2.359   2.706  18.848  0.00  0.00    +0.000 A 
ATOM      8  N   UNL     1       1.145   2.328  19.284  0.00  0.00    +0.000 NA
ATOM      9  C   UNL     1       0.623   3.176  20.200  0.00  0.00    +0.000 A 
ATOM     10  C   UNL     1       1.237   4.327  20.670  0.00  0.00    +0.000 A 
ATOM     11  C   UNL     1       2.498   4.678  20.178  0.00  0.00    +0.000 A 
ATOM     12  C   UNL     1       3.094   3.828  19.228  0.00  0.00    +0.000 A 
ATOM     13  H   UNL     1       2.737   1.180  17.457  0.00  0.00    +0.000 HD
ENDBRANCH   1   4
BRANCH   1  18
ATOM     14  C   UNL     1       6.632   3.876  12.704  0.00  0.00    +0.000 C 
ATOM     15  C   UNL     1       6.552   4.527  14.025  0.00  0.00    +0.000 A 
ATOM     16  C   UNL     1       5.567   4.653  14.973  0.00  0.00    +0.000 A 
ATOM     17  C   UNL     1       6.160   5.435  15.982  0.00  0.00    +0.000 A 
ATOM     18  N   UNL     1       5.523   5.922  17.115  0.00  0.00    +0.000 N 
ATOM     19  N   UNL     1       7.401   5.800  15.664  0.00  0.00    +0.000 NA
ATOM     20  O   UNL     1       7.665   5.190  14.446  0.00  0.00    +0.000 OA
ATOM     21  H   UNL     1       5.844   6.852  17.367  0.00  0.00    +0.000 HD
ENDBRANCH   1  18
TORSDOF 2
ENDMDL
MODEL 3
REMARK VINA RESULT:      -7.8      3.150      5.897
REMARK  Name = 
REMARK  3 active torsions:
REMARK  status: ('A' for Active; 'I' for Inactive)
REMARK    1  A    between atoms: C_1  and  C_2
REMARK    2  A    between atoms: N_5  and  S_6
REMARK    3  A    between atoms: S_6  and  C_9
REMARK                            x       y       z     vdW  Elec       q    Type
REMARK                         _______ _______ _______ _____ _____    ______ ____
ROOT
ATOM      1  S   UNL     1       5.883   4.977  19.238  0.00  0.00    +0.000 S 
ATOM      2  O   UNL     1       4.657   5.746  19.272  0.00  0.00    +0.000 OA
ATOM      3  O   UNL     1       6.905   5.127  20.250  0.00  0.00    +0.000 OA
ENDROOT
BRANCH   1   4
ATOM      4  C   UNL     1       6.628   5.489  17.761  0.00  0.00    +0.000 A 
ATOM      5  C   UNL     1       7.452   6.591  17.604  0.00  0.00    +0.000 A 
ATOM      6  N   UNL     1       7.796   6.674  16.281  0.00  0.00    +0.000 N 
ATOM      7  C   UNL     1       7.204   5.657  15.585  0.00  0.00    +0.000 A 
ATOM      8  N   UNL     1       7.339   5.484  14.259  0.00  0.00    +0.000 NA
ATOM      9  C   UNL     1       6.643   4.423  13.789  0.00  0.00    +0.000 A 
ATOM     10  C   UNL     1       5.858   3.575  14.556  0.00  0.00    +0.000 A 
ATOM     11  C   UNL     1       5.747   3.804  15.931  0.00  0.00    +0.000 A 
ATOM     12  C   UNL     1       6.456   4.890  16.477  0.00  0.00    +0.000 A 
ATOM     13  H   UNL     1       8.369   7.383  15.847  0.00  0.00    +0.000 HD
ENDBRANCH   1   4
BRANCH   1  18
ATOM     14  C   UNL     1       0.585   2.212  18.746  0.00  0.00    +0.000 C 
ATOM     15  C   UNL     1       1.975   2.540  19.111  0.00  0.00    +0.000 A 
ATOM     16  C   UNL     1       3.070   2.983  18.411  0.00  0.00    +0.000 A 
ATOM     17  C   UNL     1       4.090   3.055  19.377  0.00  0.00    +0.000 A 
ATOM     18  N   UNL     1       5.423   3.357  19.135  0.00  0.00    +0.000 N 
ATOM     19  N   UNL     1       3.671   2.646  20.574  0.00  0.00    +0.000 NA
ATOM     20  O   UNL     1       2.322   2.363  20.416  0.00  0.00    +0.000 OA
ATOM     21  H   UNL     1       6.053   2.817  19.722  0.00  0.00    +0.000 HD
ENDBRANCH   1  18
TORSDOF 2
ENDMDL
MODEL 4
REMARK VINA RESULT:      -7.6      2.979      3.727
REMARK  Name = 
REMARK  3 active torsions:
REMARK  status: ('A' for Active; 'I' for Inactive)
REMARK    1  A    between atoms: C_1  and  C_2
REMARK    2  A    between atoms: N_5  and  S_6
REMARK    3  A    between atoms: S_6  and  C_9
REMARK                            x       y       z     vdW  Elec       q    Type
REMARK                         _______ _______ _______ _____ _____    ______ ____
ROOT
ATOM      1  S   UNL     1       6.196   4.999  18.641  0.00  0.00    +0.000 S 
ATOM      2  O   UNL     1       7.305   4.139  18.286  0.00  0.00    +0.000 OA
ATOM      3  O   UNL     1       6.264   5.906  19.765  0.00  0.00    +0.000 OA
ENDROOT
BRANCH   1   4
ATOM      4  C   UNL     1       4.939   3.876  19.038  0.00  0.00    +0.000 A 
ATOM      5  C   UNL     1       5.091   2.710  19.771  0.00  0.00    +0.000 A 
ATOM      6  N   UNL     1       3.874   2.085  19.825  0.00  0.00    +0.000 N 
ATOM      7  C   UNL     1       2.948   2.819  19.137  0.00  0.00    +0.000 A 
ATOM      8  N   UNL     1       1.662   2.452  18.996  0.00  0.00    +0.000 NA
ATOM      9  C   UNL     1       0.940   3.325  18.255  0.00  0.00    +0.000 A 
ATOM     10  C   UNL     1       1.431   4.488  17.681  0.00  0.00    +0.000 A 
ATOM     11  C   UNL     1       2.779   4.819  17.854  0.00  0.00    +0.000 A 
ATOM     12  C   UNL     1       3.577   3.952  18.622  0.00  0.00    +0.000 A 
ATOM     13  H   UNL     1       3.665   1.202  20.268  0.00  0.00    +0.000 HD
ENDBRANCH   1   4
BRANCH   1  18
ATOM     14  C   UNL     1       6.283   3.653  12.798  0.00  0.00    +0.000 C 
ATOM     15  C   UNL     1       6.381   4.375  14.080  0.00  0.00    +0.000 A 
ATOM     16  C   UNL     1       5.578   4.468  15.190  0.00  0.00    +0.000 A 
ATOM     17  C   UNL     1       6.262   5.362  16.035  0.00  0.00    +0.000 A 
ATOM     18  N   UNL     1       5.797   5.859  17.244  0.00  0.00    +0.000 N 
ATOM     19  N   UNL     1       7.380   5.820  15.473  0.00  0.00    +0.000 NA
ATOM     20  O   UNL     1       7.478   5.162  14.256  0.00  0.00    +0.000 OA
ATOM     21  H   UNL     1       6.062   6.828  17.391  0.00  0.00    +0.000 HD
ENDBRANCH   1  18
TORSDOF 2
ENDMDL
MODEL 5
REMARK VINA RESULT:      -7.6      3.273      4.646
REMARK  Name = 
REMARK  3 active torsions:
REMARK  status: ('A' for Active; 'I' for Inactive)
REMARK    1  A    between atoms: C_1  and  C_2
REMARK    2  A    between atoms: N_5  and  S_6
REMARK    3  A    between atoms: S_6  and  C_9
REMARK                            x       y       z     vdW  Elec       q    Type
REMARK                         _______ _______ _______ _____ _____    ______ ____
ROOT
ATOM      1  S   UNL     1       7.039   5.543  16.484  0.00  0.00    +0.000 S 
ATOM      2  O   UNL     1       7.716   4.273  16.328  0.00  0.00    +0.000 OA
ATOM      3  O   UNL     1       7.747   6.742  16.874  0.00  0.00    +0.000 OA
ENDROOT
BRANCH   1   4
ATOM      4  C   UNL     1       5.922   5.237  17.771  0.00  0.00    +0.000 A 
ATOM      5  C   UNL     1       6.080   5.617  19.094  0.00  0.00    +0.000 A 
ATOM      6  N   UNL     1       5.001   5.149  19.798  0.00  0.00    +0.000 N 
ATOM      7  C   UNL     1       4.161   4.472  18.959  0.00  0.00    +0.000 A 
ATOM      8  N   UNL     1       3.023   3.881  19.361  0.00  0.00    +0.000 NA
ATOM      9  C   UNL     1       2.368   3.252  18.358  0.00  0.00    +0.000 A 
ATOM     10  C   UNL     1       2.788   3.196  17.037  0.00  0.00    +0.000 A 
ATOM     11  C   UNL     1       3.984   3.822  16.673  0.00  0.00    +0.000 A 
ATOM     12  C   UNL     1       4.704   4.499  17.674  0.00  0.00    +0.000 A 
ATOM     13  H   UNL     1       4.837   5.244  20.790  0.00  0.00    +0.000 HD
ENDBRANCH   1   4
BRANCH   1  18
ATOM     14  C   UNL     1       6.073   2.229  11.580  0.00  0.00    +0.000 C 
ATOM     15  C   UNL     1       6.328   3.363  12.488  0.00  0.00    +0.000 A 
ATOM     16  C   UNL     1       5.781   3.780  13.677  0.00  0.00    +0.000 A 
ATOM     17  C   UNL     1       6.477   4.965  13.978  0.00  0.00    +0.000 A 
ATOM     18  N   UNL     1       6.211   5.819  15.040  0.00  0.00    +0.000 N 
ATOM     19  N   UNL     1       7.357   5.281  13.029  0.00  0.00    +0.000 NA
ATOM     20  O   UNL     1       7.294   4.245  12.108  0.00  0.00    +0.000 OA
ATOM     21  H   UNL     1       6.341   6.796  14.790  0.00  0.00    +0.000 HD
ENDBRANCH   1  18
TORSDOF 2
ENDMDL
MODEL 6
REMARK VINA RESULT:      -7.5      2.914      3.972
REMARK  Name = 
REMARK  3 active torsions:
REMARK  status: ('A' for Active; 'I' for Inactive)
REMARK    1  A    between atoms: C_1  and  C_2
REMARK    2  A    between atoms: N_5  and  S_6
REMARK    3  A    between atoms: S_6  and  C_9
REMARK                            x       y       z     vdW  Elec       q    Type
REMARK                         _______ _______ _______ _____ _____    ______ ____
ROOT
ATOM      1  S   UNL     1       7.000   5.616  16.857  0.00  0.00    +0.000 S 
ATOM      2  O   UNL     1       7.675   4.350  16.665  0.00  0.00    +0.000 OA
ATOM      3  O   UNL     1       7.672   6.760  17.429  0.00  0.00    +0.000 OA
ENDROOT
BRANCH   1   4
ATOM      4  C   UNL     1       5.738   5.223  17.976  0.00  0.00    +0.000 A 
ATOM      5  C   UNL     1       5.685   4.096  18.780  0.00  0.00    +0.000 A 
ATOM      6  N   UNL     1       4.511   4.136  19.484  0.00  0.00    +0.000 N 
ATOM      7  C   UNL     1       3.807   5.258  19.144  0.00  0.00    +0.000 A 
ATOM      8  N   UNL     1       2.603   5.566  19.656  0.00  0.00    +0.000 NA
ATOM      9  C   UNL     1       2.090   6.713  19.153  0.00  0.00    +0.000 A 
ATOM     10  C   UNL     1       2.705   7.519  18.207  0.00  0.00    +0.000 A 
ATOM     11  C   UNL     1       3.955   7.149  17.702  0.00  0.00    +0.000 A 
ATOM     12  C   UNL     1       4.541   5.968  18.195  0.00  0.00    +0.000 A 
ATOM     13  H   UNL     1       4.172   3.445  20.137  0.00  0.00    +0.000 HD
ENDBRANCH   1   4
BRANCH   1  18
ATOM     14  C   UNL     1       5.732   2.507  11.888  0.00  0.00    +0.000 C 
ATOM     15  C   UNL     1       6.145   3.577  12.815  0.00  0.00    +0.000 A 
ATOM     16  C   UNL     1       5.612   4.108  13.963  0.00  0.00    +0.000 A 
ATOM     17  C   UNL     1       6.509   5.134  14.316  0.00  0.00    +0.000 A 
ATOM     18  N   UNL     1       6.346   6.036  15.358  0.00  0.00    +0.000 N 
ATOM     19  N   UNL     1       7.498   5.256  13.431  0.00  0.00    +0.000 NA
ATOM     20  O   UNL     1       7.292   4.243  12.505  0.00  0.00    +0.000 OA
ATOM     21  H   UNL     1       6.685   6.964  15.121  0.00  0.00    +0.000 HD
ENDBRANCH   1  18
TORSDOF 2
ENDMDL
MODEL 7
REMARK VINA RESULT:      -7.5      2.811      3.969
REMARK  Name = 
REMARK  3 active torsions:
REMARK  status: ('A' for Active; 'I' for Inactive)
REMARK    1  A    between atoms: C_1  and  C_2
REMARK    2  A    between atoms: N_5  and  S_6
REMARK    3  A    between atoms: S_6  and  C_9
REMARK                            x       y       z     vdW  Elec       q    Type
REMARK                         _______ _______ _______ _____ _____    ______ ____
ROOT
ATOM      1  S   UNL     1       6.133   5.484  18.318  0.00  0.00    +0.000 S 
ATOM      2  O   UNL     1       6.369   5.156  19.708  0.00  0.00    +0.000 OA
ATOM      3  O   UNL     1       6.433   6.792  17.782  0.00  0.00    +0.000 OA
ENDROOT
BRANCH   1   4
ATOM      4  C   UNL     1       4.418   5.310  18.158  0.00  0.00    +0.000 A 
ATOM      5  C   UNL     1       3.510   6.337  17.960  0.00  0.00    +0.000 A 
ATOM      6  N   UNL     1       2.255   5.790  17.931  0.00  0.00    +0.000 N 
ATOM      7  C   UNL     1       2.336   4.438  18.114  0.00  0.00    +0.000 A 
ATOM      8  N   UNL     1       1.266   3.625  18.153  0.00  0.00    +0.000 NA
ATOM      9  C   UNL     1       1.592   2.329  18.367  0.00  0.00    +0.000 A 
ATOM     10  C   UNL     1       2.880   1.843  18.536  0.00  0.00    +0.000 A 
ATOM     11  C   UNL     1       3.957   2.733  18.494  0.00  0.00    +0.000 A 
ATOM     12  C   UNL     1       3.679   4.093  18.265  0.00  0.00    +0.000 A 
ATOM     13  H   UNL     1       1.380   6.284  17.825  0.00  0.00    +0.000 HD
ENDBRANCH   1   4
BRANCH   1  18
ATOM     14  C   UNL     1       7.357   4.893  12.477  0.00  0.00    +0.000 C 
ATOM     15  C   UNL     1       7.011   4.605  13.881  0.00  0.00    +0.000 A 
ATOM     16  C   UNL     1       7.525   4.995  15.093  0.00  0.00    +0.000 A 
ATOM     17  C   UNL     1       6.734   4.314  16.037  0.00  0.00    +0.000 A 
ATOM     18  N   UNL     1       6.931   4.305  17.411  0.00  0.00    +0.000 N 
ATOM     19  N   UNL     1       5.828   3.530  15.454  0.00  0.00    +0.000 NA
ATOM     20  O   UNL     1       5.974   3.747  14.092  0.00  0.00    +0.000 OA
ATOM     21  H   UNL     1       6.720   3.401  17.824  0.00  0.00    +0.000 HD
ENDBRANCH   1  18
TORSDOF 2
ENDMDL
MODEL 8
REMARK VINA RESULT:      -7.5      2.191      2.550
REMARK  Name = 
REMARK  3 active torsions:
REMARK  status: ('A' for Active; 'I' for Inactive)
REMARK    1  A    between atoms: C_1  and  C_2
REMARK    2  A    between atoms: N_5  and  S_6
REMARK    3  A    between atoms: S_6  and  C_9
REMARK                            x       y       z     vdW  Elec       q    Type
REMARK                         _______ _______ _______ _____ _____    ______ ____
ROOT
ATOM      1  S   UNL     1       4.340   4.779  17.668  0.00  0.00    +0.000 S 
ATOM      2  O   UNL     1       3.375   3.860  17.100  0.00  0.00    +0.000 OA
ATOM      3  O   UNL     1       5.521   4.313  18.359  0.00  0.00    +0.000 OA
ENDROOT
BRANCH   1   4
ATOM      4  C   UNL     1       3.419   5.627  18.864  0.00  0.00    +0.000 A 
ATOM      5  C   UNL     1       3.076   5.149  20.118  0.00  0.00    +0.000 A 
ATOM      6  N   UNL     1       2.312   6.102  20.737  0.00  0.00    +0.000 N 
ATOM      7  C   UNL     1       2.149   7.175  19.906  0.00  0.00    +0.000 A 
ATOM      8  N   UNL     1       1.431   8.264  20.228  0.00  0.00    +0.000 NA
ATOM      9  C   UNL     1       1.394   9.187  19.239  0.00  0.00    +0.000 A 
ATOM     10  C   UNL     1       2.017   9.065  18.005  0.00  0.00    +0.000 A 
ATOM     11  C   UNL     1       2.747   7.908  17.719  0.00  0.00    +0.000 A 
ATOM     12  C   UNL     1       2.826   6.916  18.715  0.00  0.00    +0.000 A 
ATOM     13  H   UNL     1       1.890   6.040  21.653  0.00  0.00    +0.000 HD
ENDBRANCH   1   4
BRANCH   1  18
ATOM     14  C   UNL     1       7.210   4.000  12.460  0.00  0.00    +0.000 C 
ATOM     15  C   UNL     1       6.725   4.568  13.731  0.00  0.00    +0.000 A 
ATOM     16  C   UNL     1       5.488   4.695  14.314  0.00  0.00    +0.000 A 
ATOM     17  C   UNL     1       5.745   5.370  15.522  0.00  0.00    +0.000 A 
ATOM     18  N   UNL     1       4.790   5.824  16.421  0.00  0.00    +0.000 N 
ATOM     19  N   UNL     1       7.035   5.675  15.657  0.00  0.00    +0.000 NA
ATOM     20  O   UNL     1       7.661   5.130  14.546  0.00  0.00    +0.000 OA
ATOM     21  H   UNL     1       5.046   6.713  16.840  0.00  0.00    +0.000 HD
ENDBRANCH   1  18
TORSDOF 2
ENDMDL
MODEL 9
REMARK VINA RESULT:      -7.5      2.641      3.851
REMARK  Name = 
REMARK  3 active torsions:
REMARK  status: ('A' for Active; 'I' for Inactive)
REMARK    1  A    between atoms: C_1  and  C_2
REMARK    2  A    between atoms: N_5  and  S_6
REMARK    3  A    between atoms: S_6  and  C_9
REMARK                            x       y       z     vdW  Elec       q    Type
REMARK                         _______ _______ _______ _____ _____    ______ ____
ROOT
ATOM      1  S   UNL     1       5.225   5.036  18.433  0.00  0.00    +0.000 S 
ATOM      2  O   UNL     1       5.952   3.819  18.138  0.00  0.00    +0.000 OA
ATOM      3  O   UNL     1       5.450   5.783  19.650  0.00  0.00    +0.000 OA
ENDROOT
BRANCH   1   4
ATOM      4  C   UNL     1       3.581   4.498  18.528  0.00  0.00    +0.000 A 
ATOM      5  C   UNL     1       2.604   4.695  17.567  0.00  0.00    +0.000 A 
ATOM      6  N   UNL     1       1.435   4.158  18.038  0.00  0.00    +0.000 N 
ATOM      7  C   UNL     1       1.639   3.630  19.283  0.00  0.00    +0.000 A 
ATOM      8  N   UNL     1       0.673   3.047  20.013  0.00  0.00    +0.000 NA
ATOM      9  C   UNL     1       1.106   2.618  21.221  0.00  0.00    +0.000 A 
ATOM     10  C   UNL     1       2.401   2.745  21.700  0.00  0.00    +0.000 A 
ATOM     11  C   UNL     1       3.367   3.366  20.902  0.00  0.00    +0.000 A 
ATOM     12  C   UNL     1       2.976   3.825  19.631  0.00  0.00    +0.000 A 
ATOM     13  H   UNL     1       0.536   4.164  17.579  0.00  0.00    +0.000 HD
ENDBRANCH   1   4
BRANCH   1  18
ATOM     14  C   UNL     1       6.805   4.079  12.728  0.00  0.00    +0.000 C 
ATOM     15  C   UNL     1       6.649   4.679  14.066  0.00  0.00    +0.000 A 
ATOM     16  C   UNL     1       5.583   4.875  14.909  0.00  0.00    +0.000 A 
ATOM     17  C   UNL     1       6.139   5.541  16.017  0.00  0.00    +0.000 A 
ATOM     18  N   UNL     1       5.436   6.049  17.100  0.00  0.00    +0.000 N 
ATOM     19  N   UNL     1       7.441   5.776  15.854  0.00  0.00    +0.000 NA
ATOM     20  O   UNL     1       7.772   5.193  14.640  0.00  0.00    +0.000 OA
ATOM     21  H   UNL     1       5.826   6.925  17.436  0.00  0.00    +0.000 HD
ENDBRANCH   1  18
TORSDOF 2
ENDMDL
