MODEL 1
REMARK VINA RESULT:      -5.9      0.000      0.000
REMARK  Name = 
REMARK  2 active torsions:
REMARK  status: ('A' for Active; 'I' for Inactive)
REMARK    1  A    between atoms: C_2  and  C_3
REMARK    2  A    between atoms: C_9  and  C_11
REMARK                            x       y       z     vdW  Elec       q    Type
REMARK                         _______ _______ _______ _____ _____    ______ ____
ROOT
ATOM      1  C   UNL     1       6.034   5.485  18.035  0.00  0.00    +0.000 C 
ATOM      2  C   UNL     1       5.853   6.914  17.485  0.00  0.00    +0.000 C 
ATOM      3  C   UNL     1       4.447   6.927  16.927  0.00  0.00    +0.000 C 
ATOM      4  C   UNL     1       3.250   7.168  17.809  0.00  0.00    +0.000 C 
ATOM      5  C   UNL     1       3.714   5.769  17.560  0.00  0.00    +0.000 C 
ATOM      6  N   UNL     1       4.638   5.074  18.404  0.00  0.00    +0.000 N 
ATOM      7  C   UNL     1       4.327   4.011  19.255  0.00  0.00    +0.000 C 
ATOM      8  O   UNL     1       5.246   3.318  19.715  0.00  0.00    +0.000 OA
ENDROOT
BRANCH   7   9
ATOM      9  C   UNL     1       2.841   3.719  19.678  0.00  0.00    +0.000 C 
ATOM     10  C   UNL     1       2.259   4.586  20.815  0.00  0.00    +0.000 C 
ATOM     11  C   UNL     1       1.510   3.320  21.246  0.00  0.00    +0.000 C 
ATOM     12  N   UNL     1       2.529   2.527  20.525  0.00  0.00    +0.000 NA
ATOM     13  H   UNL     1       2.157   1.733  20.004  0.00  0.00    +0.000 HD
ENDBRANCH   7   9
BRANCH   1  15
ATOM     14  N   UNL     1       7.841   5.327  20.142  0.00  0.00    +0.000 NA
ATOM     15  C   UNL     1       7.022   5.399  19.187  0.00  0.00    +0.000 C 
ENDBRANCH   1  15
TORSDOF 2
ENDMDL
MODEL 2
REMARK VINA RESULT:      -5.8      2.015      4.545
REMARK  Name = 
REMARK  2 active torsions:
REMARK  status: ('A' for Active; 'I' for Inactive)
REMARK    1  A    between atoms: C_2  and  C_3
REMARK    2  A    between atoms: C_9  and  C_11
REMARK                            x       y       z     vdW  Elec       q    Type
REMARK                         _______ _______ _______ _____ _____    ______ ____
ROOT
ATOM      1  C   UNL     1       3.466   3.499  20.120  0.00  0.00    +0.000 C 
ATOM      2  C   UNL     1       1.995   3.070  19.956  0.00  0.00    +0.000 C 
ATOM      3  C   UNL     1       1.395   4.123  19.051  0.00  0.00    +0.000 C 
ATOM      4  C   UNL     1       1.534   4.048  17.552  0.00  0.00    +0.000 C 
ATOM      5  C   UNL     1       2.545   4.805  18.350  0.00  0.00    +0.000 C 
ATOM      6  N   UNL     1       3.761   4.232  18.844  0.00  0.00    +0.000 N 
ATOM      7  C   UNL     1       5.046   4.508  18.370  0.00  0.00    +0.000 C 
ATOM      8  O   UNL     1       6.025   4.172  19.052  0.00  0.00    +0.000 OA
ENDROOT
BRANCH   7   9
ATOM      9  C   UNL     1       5.266   5.182  16.967  0.00  0.00    +0.000 C 
ATOM     10  C   UNL     1       5.215   4.254  15.735  0.00  0.00    +0.000 C 
ATOM     11  C   UNL     1       6.311   5.155  15.152  0.00  0.00    +0.000 C 
ATOM     12  N   UNL     1       6.644   5.566  16.533  0.00  0.00    +0.000 NA
ATOM     13  H   UNL     1       6.852   6.559  16.641  0.00  0.00    +0.000 HD
ENDBRANCH   7   9
BRANCH   1  15
ATOM     14  N   UNL     1       5.193   1.375  20.615  0.00  0.00    +0.000 NA
ATOM     15  C   UNL     1       4.410   2.338  20.391  0.00  0.00    +0.000 C 
ENDBRANCH   1  15
TORSDOF 2
ENDMDL
MODEL 3
REMARK VINA RESULT:      -5.7      2.851      4.822
REMARK  Name = 
REMARK  2 active torsions:
REMARK  status: ('A' for Active; 'I' for Inactive)
REMARK    1  A    between atoms: C_2  and  C_3
REMARK    2  A    between atoms: C_9  and  C_11
REMARK                            x       y       z     vdW  Elec       q    Type
REMARK                         _______ _______ _______ _____ _____    ______ ____
ROOT
ATOM      1  C   UNL     1       5.604   5.827  18.766  0.00  0.00    +0.000 C 
ATOM      2  C   UNL     1       4.499   5.016  19.469  0.00  0.00    +0.000 C 
ATOM      3  C   UNL     1       3.394   4.914  18.441  0.00  0.00    +0.000 C 
ATOM      4  C   UNL     1       3.413   3.861  17.364  0.00  0.00    +0.000 C 
ATOM      5  C   UNL     1       4.019   5.201  17.097  0.00  0.00    +0.000 C 
ATOM      6  N   UNL     1       5.401   5.507  17.313  0.00  0.00    +0.000 N 
ATOM      7  C   UNL     1       6.356   5.721  16.316  0.00  0.00    +0.000 C 
ATOM      8  O   UNL     1       7.436   6.249  16.620  0.00  0.00    +0.000 OA
ENDROOT
BRANCH   7   9
ATOM      9  C   UNL     1       6.104   5.253  14.837  0.00  0.00    +0.000 C 
ATOM     10  C   UNL     1       6.002   3.732  14.598  0.00  0.00    +0.000 C 
ATOM     11  C   UNL     1       6.706   4.008  13.264  0.00  0.00    +0.000 C 
ATOM     12  N   UNL     1       7.227   5.261  13.851  0.00  0.00    +0.000 NA
ATOM     13  H   UNL     1       7.219   6.061  13.218  0.00  0.00    +0.000 HD
ENDBRANCH   7   9
BRANCH   1  15
ATOM     14  N   UNL     1       8.162   5.253  19.691  0.00  0.00    +0.000 NA
ATOM     15  C   UNL     1       7.002   5.514  19.272  0.00  0.00    +0.000 C 
ENDBRANCH   1  15
TORSDOF 2
ENDMDL
MODEL 4
REMARK VINA RESULT:      -5.6      1.957      2.238
REMARK  Name = 
REMARK  2 active torsions:
REMARK  status: ('A' for Active; 'I' for Inactive)
REMARK    1  A    between atoms: C_2  and  C_3
REMARK    2  A    between atoms: C_9  and  C_11
REMARK                            x       y       z     vdW  Elec       q    Type
REMARK                         _______ _______ _______ _____ _____    ______ ____
ROOT
ATOM      1  C   UNL     1       7.071   4.532  17.520  0.00  0.00    +0.000 C 
ATOM      2  C   UNL     1       7.472   5.474  16.369  0.00  0.00    +0.000 C 
ATOM      3  C   UNL     1       6.591   5.054  15.213  0.00  0.00    +0.000 C 
ATOM      4  C   UNL     1       5.180   5.562  15.072  0.00  0.00    +0.000 C 
ATOM      5  C   UNL     1       5.434   4.283  15.802  0.00  0.00    +0.000 C 
ATOM      6  N   UNL     1       5.638   4.202  17.217  0.00  0.00    +0.000 N 
ATOM      7  C   UNL     1       4.738   3.668  18.142  0.00  0.00    +0.000 C 
ATOM      8  O   UNL     1       5.136   3.398  19.286  0.00  0.00    +0.000 OA
ENDROOT
BRANCH   7   9
ATOM      9  C   UNL     1       3.224   3.457  17.774  0.00  0.00    +0.000 C 
ATOM     10  C   UNL     1       2.280   4.656  18.005  0.00  0.00    +0.000 C 
ATOM     11  C   UNL     1       1.230   3.609  18.396  0.00  0.00    +0.000 C 
ATOM     12  N   UNL     1       2.337   2.673  18.687  0.00  0.00    +0.000 NA
ATOM     13  H   UNL     1       2.172   1.714  18.383  0.00  0.00    +0.000 HD
ENDBRANCH   7   9
BRANCH   1  15
ATOM     14  N   UNL     1       7.456   5.634  20.044  0.00  0.00    +0.000 NA
ATOM     15  C   UNL     1       7.281   5.134  18.899  0.00  0.00    +0.000 C 
ENDBRANCH   1  15
TORSDOF 2
ENDMDL
MODEL 5
REMARK VINA RESULT:      -5.6      2.123      4.888
REMARK  Name = 
REMARK  2 active torsions:
REMARK  status: ('A' for Active; 'I' for Inactive)
REMARK    1  A    between atoms: C_2  and  C_3
REMARK    2  A    between atoms: C_9  and  C_11
REMARK                            x       y       z     vdW  Elec       q    Type
REMARK                         _______ _______ _______ _____ _____    ______ ____
ROOT
ATOM      1  C   UNL     1       1.909   3.632  19.901  0.00  0.00    +0.000 C 
ATOM      2  C   UNL     1       1.100   4.820  20.457  0.00  0.00    +0.000 C 
ATOM      3  C   UNL     1       2.121   5.923  20.629  0.00  0.00    +0.000 C 
ATOM      4  C   UNL     1       2.532   6.804  19.478  0.00  0.00    +0.000 C 
ATOM      5  C   UNL     1       3.307   5.560  19.767  0.00  0.00    +0.000 C 
ATOM      6  N   UNL     1       3.035   4.292  19.159  0.00  0.00    +0.000 N 
ATOM      7  C   UNL     1       3.830   3.657  18.203  0.00  0.00    +0.000 C 
ATOM      8  O   UNL     1       3.642   2.455  17.964  0.00  0.00    +0.000 OA
ENDROOT
BRANCH   7   9
ATOM      9  C   UNL     1       4.916   4.454  17.392  0.00  0.00    +0.000 C 
ATOM     10  C   UNL     1       5.079   4.085  15.902  0.00  0.00    +0.000 C 
ATOM     11  C   UNL     1       6.572   4.356  16.114  0.00  0.00    +0.000 C 
ATOM     12  N   UNL     1       6.363   4.121  17.558  0.00  0.00    +0.000 NA
ATOM     13  H   UNL     1       6.870   4.762  18.170  0.00  0.00    +0.000 HD
ENDBRANCH   7   9
BRANCH   1  15
ATOM     14  N   UNL     1       0.400   1.899  18.334  0.00  0.00    +0.000 NA
ATOM     15  C   UNL     1       1.084   2.685  19.044  0.00  0.00    +0.000 C 
ENDBRANCH   1  15
TORSDOF 2
ENDMDL
MODEL 6
REMARK VINA RESULT:      -5.6      1.146      1.342
REMARK  Name = 
REMARK  2 active torsions:
REMARK  status: ('A' for Active; 'I' for Inactive)
REMARK    1  A    between atoms: C_2  and  C_3
REMARK    2  A    between atoms: C_9  and  C_11
REMARK                            x       y       z     vdW  Elec       q    Type
REMARK                         _______ _______ _______ _____ _____    ______ ____
ROOT
ATOM      1  C   UNL     1       4.658   5.522  17.407  0.00  0.00    +0.000 C 
ATOM      2  C   UNL     1       4.616   7.062  17.412  0.00  0.00    +0.000 C 
ATOM      3  C   UNL     1       3.149   7.399  17.570  0.00  0.00    +0.000 C 
ATOM      4  C   UNL     1       2.488   7.425  18.924  0.00  0.00    +0.000 C 
ATOM      5  C   UNL     1       2.475   6.165  18.120  0.00  0.00    +0.000 C 
ATOM      6  N   UNL     1       3.465   5.137  18.234  0.00  0.00    +0.000 N 
ATOM      7  C   UNL     1       3.274   3.878  18.805  0.00  0.00    +0.000 C 
ATOM      8  O   UNL     1       4.110   2.986  18.595  0.00  0.00    +0.000 OA
ENDROOT
BRANCH   7   9
ATOM      9  C   UNL     1       2.050   3.593  19.751  0.00  0.00    +0.000 C 
ATOM     10  C   UNL     1       2.198   4.023  21.226  0.00  0.00    +0.000 C 
ATOM     11  C   UNL     1       1.385   2.766  21.556  0.00  0.00    +0.000 C 
ATOM     12  N   UNL     1       1.804   2.207  20.254  0.00  0.00    +0.000 NA
ATOM     13  H   UNL     1       1.071   1.707  19.751  0.00  0.00    +0.000 HD
ENDBRANCH   7   9
BRANCH   1  15
ATOM     14  N   UNL     1       7.056   4.474  18.346  0.00  0.00    +0.000 NA
ATOM     15  C   UNL     1       5.969   4.949  17.920  0.00  0.00    +0.000 C 
ENDBRANCH   1  15
TORSDOF 2
ENDMDL
MODEL 7
REMARK VINA RESULT:      -5.5      2.059      3.085
REMARK  Name = 
REMARK  2 active torsions:
REMARK  status: ('A' for Active; 'I' for Inactive)
REMARK    1  A    between atoms: C_2  and  C_3
REMARK    2  A    between atoms: C_9  and  C_11
REMARK                            x       y       z     vdW  Elec       q    Type
REMARK                         _______ _______ _______ _____ _____    ______ ____
ROOT
ATOM      1  C   UNL     1       4.235   6.901  17.764  0.00  0.00    +0.000 C 
ATOM      2  C   UNL     1       4.840   6.472  16.414  0.00  0.00    +0.000 C 
ATOM      3  C   UNL     1       5.416   5.098  16.680  0.00  0.00    +0.000 C 
ATOM      4  C   UNL     1       4.558   3.860  16.633  0.00  0.00    +0.000 C 
ATOM      5  C   UNL     1       4.748   4.578  17.930  0.00  0.00    +0.000 C 
ATOM      6  N   UNL     1       3.867   5.598  18.412  0.00  0.00    +0.000 N 
ATOM      7  C   UNL     1       2.980   5.472  19.484  0.00  0.00    +0.000 C 
ATOM      8  O   UNL     1       2.482   6.495  19.979  0.00  0.00    +0.000 OA
ENDROOT
BRANCH   7   9
ATOM      9  C   UNL     1       2.564   4.058  20.031  0.00  0.00    +0.000 C 
ATOM     10  C   UNL     1       1.101   3.625  19.794  0.00  0.00    +0.000 C 
ATOM     11  C   UNL     1       1.197   2.950  21.167  0.00  0.00    +0.000 C 
ATOM     12  N   UNL     1       2.308   3.870  21.491  0.00  0.00    +0.000 NA
ATOM     13  H   UNL     1       3.082   3.439  21.997  0.00  0.00    +0.000 HD
ENDBRANCH   7   9
BRANCH   1  15
ATOM     14  N   UNL     1       2.101   8.667  17.511  0.00  0.00    +0.000 NA
ATOM     15  C   UNL     1       3.068   7.866  17.625  0.00  0.00    +0.000 C 
ENDBRANCH   1  15
TORSDOF 2
ENDMDL
MODEL 8
REMARK VINA RESULT:      -5.4      1.570      4.410
REMARK  Name = 
REMARK  2 active torsions:
REMARK  status: ('A' for Active; 'I' for Inactive)
REMARK    1  A    between atoms: C_2  and  C_3
REMARK    2  A    between atoms: C_9  and  C_11
REMARK                            x       y       z     vdW  Elec       q    Type
REMARK                         _______ _______ _______ _____ _____    ______ ____
ROOT
ATOM      1  C   UNL     1       2.796   4.550  20.336  0.00  0.00    +0.000 C 
ATOM      2  C   UNL     1       1.631   5.552  20.226  0.00  0.00    +0.000 C 
ATOM      3  C   UNL     1       2.285   6.845  19.791  0.00  0.00    +0.000 C 
ATOM      4  C   UNL     1       2.597   7.123  18.344  0.00  0.00    +0.000 C 
ATOM      5  C   UNL     1       3.630   6.481  19.211  0.00  0.00    +0.000 C 
ATOM      6  N   UNL     1       3.794   5.064  19.339  0.00  0.00    +0.000 N 
ATOM      7  C   UNL     1       4.854   4.314  18.823  0.00  0.00    +0.000 C 
ATOM      8  O   UNL     1       5.030   3.157  19.234  0.00  0.00    +0.000 OA
ENDROOT
BRANCH   7   9
ATOM      9  C   UNL     1       5.785   4.893  17.697  0.00  0.00    +0.000 C 
ATOM     10  C   UNL     1       5.353   4.636  16.238  0.00  0.00    +0.000 C 
ATOM     11  C   UNL     1       6.851   4.513  15.935  0.00  0.00    +0.000 C 
ATOM     12  N   UNL     1       7.068   4.203  17.364  0.00  0.00    +0.000 NA
ATOM     13  H   UNL     1       7.895   4.641  17.772  0.00  0.00    +0.000 HD
ENDBRANCH   7   9
BRANCH   1  15
ATOM     14  N   UNL     1       2.037   1.910  19.901  0.00  0.00    +0.000 NA
ATOM     15  C   UNL     1       2.381   3.107  20.098  0.00  0.00    +0.000 C 
ENDBRANCH   1  15
TORSDOF 2
ENDMDL
MODEL 9
REMARK VINA RESULT:      -5.4      2.035      4.924
REMARK  Name = 
REMARK  2 active torsions:
REMARK  status: ('A' for Active; 'I' for Inactive)
REMARK    1  A    between atoms: C_2  and  C_3
REMARK    2  A    between atoms: C_9  and  C_11
REMARK                            x       y       z     vdW  Elec       q    Type
REMARK                         _______ _______ _______ _____ _____    ______ ____
ROOT
ATOM      1  C   UNL     1       1.878   5.104  19.621  0.00  0.00    +0.000 C 
ATOM      2  C   UNL     1       1.261   4.152  20.663  0.00  0.00    +0.000 C 
ATOM      3  C   UNL     1       1.952   2.828  20.419  0.00  0.00    +0.000 C 
ATOM      4  C   UNL     1       3.303   2.521  21.011  0.00  0.00    +0.000 C 
ATOM      5  C   UNL     1       3.215   3.129  19.648  0.00  0.00    +0.000 C 
ATOM      6  N   UNL     1       3.252   4.538  19.401  0.00  0.00    +0.000 N 
ATOM      7  C   UNL     1       4.309   5.237  18.814  0.00  0.00    +0.000 C 
ATOM      8  O   UNL     1       4.114   6.390  18.400  0.00  0.00    +0.000 OA
ENDROOT
BRANCH   7   9
ATOM      9  C   UNL     1       5.747   4.608  18.723  0.00  0.00    +0.000 C 
ATOM     10  C   UNL     1       6.938   5.589  18.755  0.00  0.00    +0.000 C 
ATOM     11  C   UNL     1       7.612   4.626  17.771  0.00  0.00    +0.000 C 
ATOM     12  N   UNL     1       6.269   4.129  17.407  0.00  0.00    +0.000 NA
ATOM     13  H   UNL     1       6.211   3.119  17.279  0.00  0.00    +0.000 HD
ENDBRANCH   7   9
BRANCH   1  15
ATOM     14  N   UNL     1       1.881   7.769  20.417  0.00  0.00    +0.000 NA
ATOM     15  C   UNL     1       1.880   6.560  20.056  0.00  0.00    +0.000 C 
ENDBRANCH   1  15
TORSDOF 2
ENDMDL
