MODEL 1
REMARK VINA RESULT:      -6.5      0.000      0.000
REMARK  Name = 
REMARK  1 active torsions:
REMARK  status: ('A' for Active; 'I' for Inactive)
REMARK    1  A    between atoms: C_1  and  N_2
REMARK                            x       y       z     vdW  Elec       q    Type
REMARK                         _______ _______ _______ _____ _____    ______ ____
ROOT
ATOM      1  C   UNL     1       4.113   1.744  17.732  0.00  0.00    +0.000 C 
ATOM      2  N   UNL     1       4.040   3.205  17.685  0.00  0.00    +0.000 N 
ATOM      3  C   UNL     1       4.861   3.852  16.710  0.00  0.00    +0.000 A 
ATOM      4  C   UNL     1       5.439   3.188  15.609  0.00  0.00    +0.000 A 
ATOM      5  C   UNL     1       6.121   3.867  14.587  0.00  0.00    +0.000 A 
ATOM      6  C   UNL     1       6.267   5.248  14.632  0.00  0.00    +0.000 A 
ATOM      7  C   UNL     1       5.754   5.939  15.719  0.00  0.00    +0.000 A 
ATOM      8  C   UNL     1       5.072   5.247  16.739  0.00  0.00    +0.000 A 
ATOM      9  C   UNL     1       4.418   6.066  17.765  0.00  0.00    +0.000 C 
ATOM     10  O   UNL     1       4.421   7.293  17.698  0.00  0.00    +0.000 OA
ATOM     11  N   UNL     1       3.684   5.377  18.712  0.00  0.00    +0.000 N 
ATOM     12  C   UNL     1       2.374   6.042  19.044  0.00  0.00    +0.000 C 
ATOM     13  C   UNL     1       1.728   5.013  19.835  0.00  0.00    +0.000 C 
ATOM     14  C   UNL     1       0.854   4.184  20.655  0.00  0.00    +0.000 C 
ATOM     15  C   UNL     1       1.777   2.895  20.685  0.00  0.00    +0.000 C 
ATOM     16  C   UNL     1       3.352   3.066  20.270  0.00  0.00    +0.000 C 
ATOM     17  C   UNL     1       4.010   3.922  18.988  0.00  0.00    +0.000 C 
ENDROOT
TORSDOF 0
ENDMDL
MODEL 2
REMARK VINA RESULT:      -6.4      1.034      4.935
REMARK  Name = 
REMARK  1 active torsions:
REMARK  status: ('A' for Active; 'I' for Inactive)
REMARK    1  A    between atoms: C_1  and  N_2
REMARK                            x       y       z     vdW  Elec       q    Type
REMARK                         _______ _______ _______ _____ _____    ______ ____
ROOT
ATOM      1  C   UNL     1       4.177   1.846  17.539  0.00  0.00    +0.000 C 
ATOM      2  N   UNL     1       3.955   3.233  17.951  0.00  0.00    +0.000 N 
ATOM      3  C   UNL     1       2.912   3.454  18.905  0.00  0.00    +0.000 A 
ATOM      4  C   UNL     1       2.352   2.434  19.701  0.00  0.00    +0.000 A 
ATOM      5  C   UNL     1       1.433   2.696  20.730  0.00  0.00    +0.000 A 
ATOM      6  C   UNL     1       1.023   3.995  20.997  0.00  0.00    +0.000 A 
ATOM      7  C   UNL     1       1.514   5.026  20.210  0.00  0.00    +0.000 A 
ATOM      8  C   UNL     1       2.435   4.753  19.180  0.00  0.00    +0.000 A 
ATOM      9  C   UNL     1       3.030   5.911  18.506  0.00  0.00    +0.000 C 
ATOM     10  O   UNL     1       2.778   7.057  18.868  0.00  0.00    +0.000 OA
ATOM     11  N   UNL     1       3.993   5.629  17.555  0.00  0.00    +0.000 N 
ATOM     12  C   UNL     1       5.175   6.560  17.616  0.00  0.00    +0.000 C 
ATOM     13  C   UNL     1       6.100   5.898  16.717  0.00  0.00    +0.000 C 
ATOM     14  C   UNL     1       7.212   5.471  15.876  0.00  0.00    +0.000 C 
ATOM     15  C   UNL     1       6.572   4.108  15.382  0.00  0.00    +0.000 C 
ATOM     16  C   UNL     1       4.957   3.906  15.560  0.00  0.00    +0.000 C 
ATOM     17  C   UNL     1       3.995   4.269  16.884  0.00  0.00    +0.000 C 
ENDROOT
TORSDOF 0
ENDMDL
MODEL 3
REMARK VINA RESULT:      -6.3      1.680      5.587
REMARK  Name = 
REMARK  1 active torsions:
REMARK  status: ('A' for Active; 'I' for Inactive)
REMARK    1  A    between atoms: C_1  and  N_2
REMARK                            x       y       z     vdW  Elec       q    Type
REMARK                         _______ _______ _______ _____ _____    ______ ____
ROOT
ATOM      1  C   UNL     1       2.446   6.901  18.273  0.00  0.00    +0.000 C 
ATOM      2  N   UNL     1       3.090   5.593  18.407  0.00  0.00    +0.000 N 
ATOM      3  C   UNL     1       2.656   4.780  19.499  0.00  0.00    +0.000 A 
ATOM      4  C   UNL     1       1.457   4.997  20.208  0.00  0.00    +0.000 A 
ATOM      5  C   UNL     1       0.979   4.104  21.180  0.00  0.00    +0.000 A 
ATOM      6  C   UNL     1       1.694   2.956  21.497  0.00  0.00    +0.000 A 
ATOM      7  C   UNL     1       2.902   2.723  20.857  0.00  0.00    +0.000 A 
ATOM      8  C   UNL     1       3.372   3.626  19.884  0.00  0.00    +0.000 A 
ATOM      9  C   UNL     1       4.569   3.224  19.138  0.00  0.00    +0.000 C 
ATOM     10  O   UNL     1       5.094   2.129  19.319  0.00  0.00    +0.000 OA
ATOM     11  N   UNL     1       4.970   4.082  18.130  0.00  0.00    +0.000 N 
ATOM     12  C   UNL     1       5.405   3.362  16.880  0.00  0.00    +0.000 C 
ATOM     13  C   UNL     1       5.521   4.465  15.947  0.00  0.00    +0.000 C 
ATOM     14  C   UNL     1       5.726   5.357  14.812  0.00  0.00    +0.000 C 
ATOM     15  C   UNL     1       5.259   6.693  15.526  0.00  0.00    +0.000 C 
ATOM     16  C   UNL     1       5.184   6.707  17.162  0.00  0.00    +0.000 C 
ATOM     17  C   UNL     1       4.561   5.540  18.191  0.00  0.00    +0.000 C 
ENDROOT
TORSDOF 0
ENDMDL
MODEL 4
REMARK VINA RESULT:      -6.3      2.481      5.598
REMARK  Name = 
REMARK  1 active torsions:
REMARK  status: ('A' for Active; 'I' for Inactive)
REMARK    1  A    between atoms: C_1  and  N_2
REMARK                            x       y       z     vdW  Elec       q    Type
REMARK                         _______ _______ _______ _____ _____    ______ ____
ROOT
ATOM      1  C   UNL     1       2.107   5.027  20.831  0.00  0.00    +0.000 C 
ATOM      2  N   UNL     1       2.371   6.135  19.911  0.00  0.00    +0.000 N 
ATOM      3  C   UNL     1       1.698   7.366  20.188  0.00  0.00    +0.000 A 
ATOM      4  C   UNL     1       1.105   7.671  21.429  0.00  0.00    +0.000 A 
ATOM      5  C   UNL     1       0.576   8.937  21.725  0.00  0.00    +0.000 A 
ATOM      6  C   UNL     1       0.606   9.954  20.779  0.00  0.00    +0.000 A 
ATOM      7  C   UNL     1       1.140   9.686  19.528  0.00  0.00    +0.000 A 
ATOM      8  C   UNL     1       1.667   8.412  19.242  0.00  0.00    +0.000 A 
ATOM      9  C   UNL     1       2.360   8.261  17.958  0.00  0.00    +0.000 C 
ATOM     10  O   UNL     1       2.520   9.217  17.204  0.00  0.00    +0.000 OA
ATOM     11  N   UNL     1       2.944   7.028  17.727  0.00  0.00    +0.000 N 
ATOM     12  C   UNL     1       4.307   7.129  17.095  0.00  0.00    +0.000 C 
ATOM     13  C   UNL     1       4.767   5.759  17.200  0.00  0.00    +0.000 C 
ATOM     14  C   UNL     1       5.479   4.487  17.163  0.00  0.00    +0.000 C 
ATOM     15  C   UNL     1       4.397   3.634  17.948  0.00  0.00    +0.000 C 
ATOM     16  C   UNL     1       2.884   4.245  18.083  0.00  0.00    +0.000 C 
ATOM     17  C   UNL     1       2.417   5.810  18.460  0.00  0.00    +0.000 C 
ENDROOT
TORSDOF 0
ENDMDL
MODEL 5
REMARK VINA RESULT:      -6.3      2.137      3.815
REMARK  Name = 
REMARK  1 active torsions:
REMARK  status: ('A' for Active; 'I' for Inactive)
REMARK    1  A    between atoms: C_1  and  N_2
REMARK                            x       y       z     vdW  Elec       q    Type
REMARK                         _______ _______ _______ _____ _____    ______ ____
ROOT
ATOM      1  C   UNL     1       1.121   4.886  20.559  0.00  0.00    +0.000 C 
ATOM      2  N   UNL     1       1.873   5.517  19.473  0.00  0.00    +0.000 N 
ATOM      3  C   UNL     1       2.713   4.656  18.699  0.00  0.00    +0.000 A 
ATOM      4  C   UNL     1       2.596   3.252  18.688  0.00  0.00    +0.000 A 
ATOM      5  C   UNL     1       3.333   2.437  17.814  0.00  0.00    +0.000 A 
ATOM      6  C   UNL     1       4.236   2.997  16.919  0.00  0.00    +0.000 A 
ATOM      7  C   UNL     1       4.417   4.372  16.925  0.00  0.00    +0.000 A 
ATOM      8  C   UNL     1       3.673   5.179  17.806  0.00  0.00    +0.000 A 
ATOM      9  C   UNL     1       3.801   6.630  17.635  0.00  0.00    +0.000 C 
ATOM     10  O   UNL     1       4.479   7.107  16.729  0.00  0.00    +0.000 OA
ATOM     11  N   UNL     1       3.001   7.409  18.452  0.00  0.00    +0.000 N 
ATOM     12  C   UNL     1       2.384   8.579  17.733  0.00  0.00    +0.000 C 
ATOM     13  C   UNL     1       1.436   9.049  18.724  0.00  0.00    +0.000 C 
ATOM     14  C   UNL     1       0.421   9.737  19.512  0.00  0.00    +0.000 C 
ATOM     15  C   UNL     1       0.446   8.760  20.760  0.00  0.00    +0.000 C 
ATOM     16  C   UNL     1       1.732   7.760  20.930  0.00  0.00    +0.000 C 
ATOM     17  C   UNL     1       2.500   6.835  19.762  0.00  0.00    +0.000 C 
ENDROOT
TORSDOF 0
ENDMDL
MODEL 6
REMARK VINA RESULT:      -6.3      1.516      1.535
REMARK  Name = 
REMARK  1 active torsions:
REMARK  status: ('A' for Active; 'I' for Inactive)
REMARK    1  A    between atoms: C_1  and  N_2
REMARK                            x       y       z     vdW  Elec       q    Type
REMARK                         _______ _______ _______ _____ _____    ______ ____
ROOT
ATOM      1  C   UNL     1       2.912   2.638  16.298  0.00  0.00    +0.000 C 
ATOM      2  N   UNL     1       3.684   3.521  17.175  0.00  0.00    +0.000 N 
ATOM      3  C   UNL     1       4.959   3.945  16.687  0.00  0.00    +0.000 A 
ATOM      4  C   UNL     1       5.348   3.860  15.335  0.00  0.00    +0.000 A 
ATOM      5  C   UNL     1       6.545   4.413  14.855  0.00  0.00    +0.000 A 
ATOM      6  C   UNL     1       7.418   5.065  15.717  0.00  0.00    +0.000 A 
ATOM      7  C   UNL     1       7.099   5.133  17.064  0.00  0.00    +0.000 A 
ATOM      8  C   UNL     1       5.895   4.575  17.535  0.00  0.00    +0.000 A 
ATOM      9  C   UNL     1       5.554   4.834  18.938  0.00  0.00    +0.000 C 
ATOM     10  O   UNL     1       6.259   5.552  19.642  0.00  0.00    +0.000 OA
ATOM     11  N   UNL     1       4.330   4.350  19.363  0.00  0.00    +0.000 N 
ATOM     12  C   UNL     1       3.586   5.318  20.245  0.00  0.00    +0.000 C 
ATOM     13  C   UNL     1       2.286   4.681  20.326  0.00  0.00    +0.000 C 
ATOM     14  C   UNL     1       0.911   4.277  20.590  0.00  0.00    +0.000 C 
ATOM     15  C   UNL     1       0.904   2.989  19.666  0.00  0.00    +0.000 C 
ATOM     16  C   UNL     1       2.346   2.373  19.192  0.00  0.00    +0.000 C 
ATOM     17  C   UNL     1       3.696   3.188  18.625  0.00  0.00    +0.000 C 
ENDROOT
TORSDOF 0
ENDMDL
MODEL 7
REMARK VINA RESULT:      -6.2      1.642      3.015
REMARK  Name = 
REMARK  1 active torsions:
REMARK  status: ('A' for Active; 'I' for Inactive)
REMARK    1  A    between atoms: C_1  and  N_2
REMARK                            x       y       z     vdW  Elec       q    Type
REMARK                         _______ _______ _______ _____ _____    ______ ____
ROOT
ATOM      1  C   UNL     1       2.613   6.710  18.937  0.00  0.00    +0.000 C 
ATOM      2  N   UNL     1       3.235   5.453  18.518  0.00  0.00    +0.000 N 
ATOM      3  C   UNL     1       4.015   5.498  17.320  0.00  0.00    +0.000 A 
ATOM      4  C   UNL     1       4.493   6.692  16.742  0.00  0.00    +0.000 A 
ATOM      5  C   UNL     1       5.375   6.705  15.651  0.00  0.00    +0.000 A 
ATOM      6  C   UNL     1       5.807   5.516  15.078  0.00  0.00    +0.000 A 
ATOM      7  C   UNL     1       5.329   4.317  15.585  0.00  0.00    +0.000 A 
ATOM      8  C   UNL     1       4.443   4.316  16.680  0.00  0.00    +0.000 A 
ATOM      9  C   UNL     1       4.116   3.009  17.259  0.00  0.00    +0.000 C 
ATOM     10  O   UNL     1       4.638   1.978  16.841  0.00  0.00    +0.000 OA
ATOM     11  N   UNL     1       3.312   3.030  18.384  0.00  0.00    +0.000 N 
ATOM     12  C   UNL     1       3.755   2.056  19.445  0.00  0.00    +0.000 C 
ATOM     13  C   UNL     1       2.923   2.460  20.561  0.00  0.00    +0.000 C 
ATOM     14  C   UNL     1       2.225   2.635  21.829  0.00  0.00    +0.000 C 
ATOM     15  C   UNL     1       1.377   3.908  21.412  0.00  0.00    +0.000 C 
ATOM     16  C   UNL     1       1.227   4.245  19.817  0.00  0.00    +0.000 C 
ATOM     17  C   UNL     1       2.407   4.221  18.626  0.00  0.00    +0.000 C 
ENDROOT
TORSDOF 0
ENDMDL
MODEL 8
REMARK VINA RESULT:      -6.1      6.687      9.766
REMARK  Name = 
REMARK  1 active torsions:
REMARK  status: ('A' for Active; 'I' for Inactive)
REMARK    1  A    between atoms: C_1  and  N_2
REMARK                            x       y       z     vdW  Elec       q    Type
REMARK                         _______ _______ _______ _____ _____    ______ ____
ROOT
ATOM      1  C   UNL     1      -1.105  12.033  18.383  0.00  0.00    +0.000 C 
ATOM      2  N   UNL     1      -0.835  11.372  19.661  0.00  0.00    +0.000 N 
ATOM      3  C   UNL     1      -1.590  11.830  20.786  0.00  0.00    +0.000 A 
ATOM      4  C   UNL     1      -2.770  12.593  20.678  0.00  0.00    +0.000 A 
ATOM      5  C   UNL     1      -3.572  12.909  21.786  0.00  0.00    +0.000 A 
ATOM      6  C   UNL     1      -3.215  12.484  23.060  0.00  0.00    +0.000 A 
ATOM      7  C   UNL     1      -2.038  11.769  23.220  0.00  0.00    +0.000 A 
ATOM      8  C   UNL     1      -1.241  11.458  22.102  0.00  0.00    +0.000 A 
ATOM      9  C   UNL     1      -0.105  10.561  22.333  0.00  0.00    +0.000 C 
ATOM     10  O   UNL     1       0.099  10.064  23.438  0.00  0.00    +0.000 OA
ATOM     11  N   UNL     1       0.619  10.199  21.212  0.00  0.00    +0.000 N 
ATOM     12  C   UNL     1       1.003   8.742  21.201  0.00  0.00    +0.000 C 
ATOM     13  C   UNL     1       1.506   8.595  19.850  0.00  0.00    +0.000 C 
ATOM     14  C   UNL     1       2.066   8.157  18.577  0.00  0.00    +0.000 C 
ATOM     15  C   UNL     1       1.872   9.524  17.797  0.00  0.00    +0.000 C 
ATOM     16  C   UNL     1       1.607  10.881  18.675  0.00  0.00    +0.000 C 
ATOM     17  C   UNL     1       0.589  11.095  19.990  0.00  0.00    +0.000 C 
ENDROOT
TORSDOF 0
ENDMDL
MODEL 9
REMARK VINA RESULT:      -6.1      1.135      4.965
REMARK  Name = 
REMARK  1 active torsions:
REMARK  status: ('A' for Active; 'I' for Inactive)
REMARK    1  A    between atoms: C_1  and  N_2
REMARK                            x       y       z     vdW  Elec       q    Type
REMARK                         _______ _______ _______ _____ _____    ______ ____
ROOT
ATOM      1  C   UNL     1       4.001   2.465  18.059  0.00  0.00    +0.000 C 
ATOM      2  N   UNL     1       3.997   3.928  18.090  0.00  0.00    +0.000 N 
ATOM      3  C   UNL     1       3.068   4.543  18.986  0.00  0.00    +0.000 A 
ATOM      4  C   UNL     1       2.437   3.862  20.047  0.00  0.00    +0.000 A 
ATOM      5  C   UNL     1       1.641   4.516  21.000  0.00  0.00    +0.000 A 
ATOM      6  C   UNL     1       1.429   5.887  20.923  0.00  0.00    +0.000 A 
ATOM      7  C   UNL     1       1.993   6.591  19.870  0.00  0.00    +0.000 A 
ATOM      8  C   UNL     1       2.790   5.925  18.919  0.00  0.00    +0.000 A 
ATOM      9  C   UNL     1       3.482   6.765  17.936  0.00  0.00    +0.000 C 
ATOM     10  O   UNL     1       3.413   7.990  17.985  0.00  0.00    +0.000 OA
ATOM     11  N   UNL     1       4.325   6.104  17.062  0.00  0.00    +0.000 N 
ATOM     12  C   UNL     1       5.622   6.832  16.827  0.00  0.00    +0.000 C 
ATOM     13  C   UNL     1       6.381   5.829  16.105  0.00  0.00    +0.000 C 
ATOM     14  C   UNL     1       7.359   5.037  15.371  0.00  0.00    +0.000 C 
ATOM     15  C   UNL     1       6.508   3.702  15.286  0.00  0.00    +0.000 C 
ATOM     16  C   UNL     1       4.898   3.796  15.570  0.00  0.00    +0.000 C 
ATOM     17  C   UNL     1       4.095   4.632  16.782  0.00  0.00    +0.000 C 
ENDROOT
TORSDOF 0
ENDMDL
