MODEL 1
REMARK VINA RESULT:      -8.2      0.000      0.000
REMARK  Name = 
REMARK  8 active torsions:
REMARK  status: ('A' for Active; 'I' for Inactive)
REMARK    1  A    between atoms: C_1  and  C_2
REMARK    2  A    between atoms: C_5  and  C_6
REMARK    3  A    between atoms: C_11  and  C_12
REMARK    4  A    between atoms: C_12  and  C_13
REMARK    5  A    between atoms: C_13  and  N_14
REMARK    6  A    between atoms: N_14  and  S_15
REMARK    7  A    between atoms: S_15  and  C_18
REMARK    8  A    between atoms: C_20  and  N_21
REMARK                            x       y       z     vdW  Elec       q    Type
REMARK                         _______ _______ _______ _____ _____    ______ ____
ROOT
ATOM      1  N   UNL     1       2.249   4.887  21.323  0.00  0.00    +0.000 NA
ATOM      2  H   UNL     1       1.896   4.794  22.277  0.00  0.00    +0.000 HD
ENDROOT
BRANCH   1   3
ATOM      3  S   UNL     1       2.469   3.361  20.635  0.00  0.00    +0.000 S 
ATOM      4  O   UNL     1       3.045   2.511  21.652  0.00  0.00    +0.000 OA
ATOM      5  O   UNL     1       1.235   2.992  19.981  0.00  0.00    +0.000 OA
BRANCH   3   6
ATOM      6  C   UNL     1       3.698   3.627  19.384  0.00  0.00    +0.000 A 
ATOM      7  C   UNL     1       4.826   4.396  19.727  0.00  0.00    +0.000 A 
ATOM      8  C   UNL     1       5.735   4.780  18.732  0.00  0.00    +0.000 A 
ATOM      9  C   UNL     1       5.533   4.390  17.403  0.00  0.00    +0.000 A 
ATOM     10  C   UNL     1       4.432   3.590  17.081  0.00  0.00    +0.000 A 
ATOM     11  C   UNL     1       3.509   3.206  18.065  0.00  0.00    +0.000 A 
ATOM     12 CL   UNL     1       2.205   2.203  17.547  0.00  0.00    +0.000 Cl
BRANCH   8  13
ATOM     13  N   UNL     1       6.889   5.619  19.077  0.00  0.00    +0.000 N 
ATOM     14  O   UNL     1       7.215   6.508  18.278  0.00  0.00    +0.000 OA
ATOM     15  O   UNL     1       7.468   5.388  20.149  0.00  0.00    +0.000 OA
ENDBRANCH   8  13
ENDBRANCH   3   6
ENDBRANCH   1   3
BRANCH   1  16
ATOM     16  C   UNL     1       1.616   5.899  20.461  0.00  0.00    +0.000 C 
BRANCH  16  17
ATOM     17  C   UNL     1       2.440   7.186  20.402  0.00  0.00    +0.000 C 
BRANCH  17  28
ATOM     18  C   UNL     1       1.954   8.761  17.621  0.00  0.00    +0.000 C 
ATOM     19  C   UNL     1       1.364   9.022  18.960  0.00  0.00    +0.000 A 
ATOM     20  N   UNL     1       0.513  10.074  19.185  0.00  0.00    +0.000 N 
ATOM     21  C   UNL     1       0.134  10.128  20.509  0.00  0.00    +0.000 A 
ATOM     22  C   UNL     1      -0.705  11.040  21.179  0.00  0.00    +0.000 A 
ATOM     23  C   UNL     1      -1.405  12.194  20.524  0.00  0.00    +0.000 C 
ATOM     24  C   UNL     1      -0.882  10.826  22.559  0.00  0.00    +0.000 A 
ATOM     25  C   UNL     1      -0.259   9.775  23.225  0.00  0.00    +0.000 A 
ATOM     26  C   UNL     1       0.570   8.888  22.533  0.00  0.00    +0.000 A 
ATOM     27  C   UNL     1       0.768   9.061  21.148  0.00  0.00    +0.000 A 
ATOM     28  C   UNL     1       1.540   8.361  20.165  0.00  0.00    +0.000 A 
ATOM     29  H   UNL     1       0.218  10.739  18.484  0.00  0.00    +0.000 HD
ENDBRANCH  17  28
ENDBRANCH  16  17
ENDBRANCH   1  16
TORSDOF 6
ENDMDL
MODEL 2
REMARK VINA RESULT:      -8.0      4.694      8.470
REMARK  Name = 
REMARK  8 active torsions:
REMARK  status: ('A' for Active; 'I' for Inactive)
REMARK    1  A    between atoms: C_1  and  C_2
REMARK    2  A    between atoms: C_5  and  C_6
REMARK    3  A    between atoms: C_11  and  C_12
REMARK    4  A    between atoms: C_12  and  C_13
REMARK    5  A    between atoms: C_13  and  N_14
REMARK    6  A    between atoms: N_14  and  S_15
REMARK    7  A    between atoms: S_15  and  C_18
REMARK    8  A    between atoms: C_20  and  N_21
REMARK                            x       y       z     vdW  Elec       q    Type
REMARK                         _______ _______ _______ _____ _____    ______ ____
ROOT
ATOM      1  N   UNL     1       1.441   9.718  17.743  0.00  0.00    +0.000 NA
ATOM      2  H   UNL     1       0.953  10.116  16.938  0.00  0.00    +0.000 HD
ENDROOT
BRANCH   1   3
ATOM      3  S   UNL     1       0.797  10.338  19.175  0.00  0.00    +0.000 S 
ATOM      4  O   UNL     1       0.772   9.259  20.136  0.00  0.00    +0.000 OA
ATOM      5  O   UNL     1       1.492  11.570  19.472  0.00  0.00    +0.000 OA
BRANCH   3   6
ATOM      6  C   UNL     1      -0.879  10.738  18.756  0.00  0.00    +0.000 A 
ATOM      7  C   UNL     1      -1.337  10.378  17.475  0.00  0.00    +0.000 A 
ATOM      8  C   UNL     1      -2.590  10.825  17.034  0.00  0.00    +0.000 A 
ATOM      9  C   UNL     1      -3.393  11.612  17.868  0.00  0.00    +0.000 A 
ATOM     10  C   UNL     1      -2.946  11.927  19.155  0.00  0.00    +0.000 A 
ATOM     11  C   UNL     1      -1.690  11.495  19.606  0.00  0.00    +0.000 A 
ATOM     12 CL   UNL     1      -1.261  11.931  21.219  0.00  0.00    +0.000 Cl
BRANCH   8  13
ATOM     13  N   UNL     1      -3.054  10.489  15.682  0.00  0.00    +0.000 N 
ATOM     14  O   UNL     1      -2.904   9.321  15.295  0.00  0.00    +0.000 OA
ATOM     15  O   UNL     1      -3.570  11.393  15.010  0.00  0.00    +0.000 OA
ENDBRANCH   8  13
ENDBRANCH   3   6
ENDBRANCH   1   3
BRANCH   1  16
ATOM     16  C   UNL     1       1.706   8.270  17.728  0.00  0.00    +0.000 C 
BRANCH  16  17
ATOM     17  C   UNL     1       3.112   7.948  18.240  0.00  0.00    +0.000 C 
BRANCH  17  28
ATOM     18  C   UNL     1       5.023   6.449  16.107  0.00  0.00    +0.000 C 
ATOM     19  C   UNL     1       4.190   5.864  17.190  0.00  0.00    +0.000 A 
ATOM     20  N   UNL     1       4.104   4.510  17.387  0.00  0.00    +0.000 N 
ATOM     21  C   UNL     1       3.242   4.215  18.421  0.00  0.00    +0.000 A 
ATOM     22  C   UNL     1       2.846   2.970  18.949  0.00  0.00    +0.000 A 
ATOM     23  C   UNL     1       3.338   1.640  18.460  0.00  0.00    +0.000 C 
ATOM     24  C   UNL     1       1.925   3.010  20.014  0.00  0.00    +0.000 A 
ATOM     25  C   UNL     1       1.429   4.211  20.512  0.00  0.00    +0.000 A 
ATOM     26  C   UNL     1       1.839   5.429  19.964  0.00  0.00    +0.000 A 
ATOM     27  C   UNL     1       2.767   5.437  18.903  0.00  0.00    +0.000 A 
ATOM     28  C   UNL     1       3.373   6.477  18.127  0.00  0.00    +0.000 A 
ATOM     29  H   UNL     1       4.585   3.814  16.835  0.00  0.00    +0.000 HD
ENDBRANCH  17  28
ENDBRANCH  16  17
ENDBRANCH   1  16
TORSDOF 6
ENDMDL
MODEL 3
REMARK VINA RESULT:      -8.0      3.025      7.545
REMARK  Name = 
REMARK  8 active torsions:
REMARK  status: ('A' for Active; 'I' for Inactive)
REMARK    1  A    between atoms: C_1  and  C_2
REMARK    2  A    between atoms: C_5  and  C_6
REMARK    3  A    between atoms: C_11  and  C_12
REMARK    4  A    between atoms: C_12  and  C_13
REMARK    5  A    between atoms: C_13  and  N_14
REMARK    6  A    between atoms: N_14  and  S_15
REMARK    7  A    between atoms: S_15  and  C_18
REMARK    8  A    between atoms: C_20  and  N_21
REMARK                            x       y       z     vdW  Elec       q    Type
REMARK                         _______ _______ _______ _____ _____    ______ ____
ROOT
ATOM      1  N   UNL     1       1.925   5.408  18.272  0.00  0.00    +0.000 NA
ATOM      2  H   UNL     1       1.440   6.150  17.765  0.00  0.00    +0.000 HD
ENDROOT
BRANCH   1   3
ATOM      3  S   UNL     1       2.302   5.924  19.835  0.00  0.00    +0.000 S 
ATOM      4  O   UNL     1       1.417   5.228  20.741  0.00  0.00    +0.000 OA
ATOM      5  O   UNL     1       3.736   5.832  19.994  0.00  0.00    +0.000 OA
BRANCH   3   6
ATOM      6  C   UNL     1       1.855   7.640  19.841  0.00  0.00    +0.000 A 
ATOM      7  C   UNL     1       1.188   8.138  20.976  0.00  0.00    +0.000 A 
ATOM      8  C   UNL     1       0.661   9.437  20.958  0.00  0.00    +0.000 A 
ATOM      9  C   UNL     1       0.808  10.243  19.824  0.00  0.00    +0.000 A 
ATOM     10  C   UNL     1       1.511   9.752  18.718  0.00  0.00    +0.000 A 
ATOM     11  C   UNL     1       2.036   8.452  18.718  0.00  0.00    +0.000 A 
ATOM     12 CL   UNL     1       2.899   7.970  17.304  0.00  0.00    +0.000 Cl
BRANCH   8  13
ATOM     13  N   UNL     1      -0.074   9.946  22.123  0.00  0.00    +0.000 N 
ATOM     14  O   UNL     1      -0.705   9.128  22.808  0.00  0.00    +0.000 OA
ATOM     15  O   UNL     1      -0.018  11.162  22.352  0.00  0.00    +0.000 OA
ENDBRANCH   8  13
ENDBRANCH   3   6
ENDBRANCH   1   3
BRANCH   1  16
ATOM     16  C   UNL     1       1.388   4.042  18.155  0.00  0.00    +0.000 C 
BRANCH  16  17
ATOM     17  C   UNL     1       2.343   3.122  17.394  0.00  0.00    +0.000 C 
BRANCH  17  28
ATOM     18  C   UNL     1       3.723   2.180  20.161  0.00  0.00    +0.000 C 
ATOM     19  C   UNL     1       4.311   2.959  19.041  0.00  0.00    +0.000 A 
ATOM     20  N   UNL     1       5.595   3.438  19.086  0.00  0.00    +0.000 N 
ATOM     21  C   UNL     1       5.893   4.159  17.950  0.00  0.00    +0.000 A 
ATOM     22  C   UNL     1       7.074   4.835  17.585  0.00  0.00    +0.000 A 
ATOM     23  C   UNL     1       8.321   4.883  18.417  0.00  0.00    +0.000 C 
ATOM     24  C   UNL     1       7.053   5.500  16.344  0.00  0.00    +0.000 A 
ATOM     25  C   UNL     1       5.926   5.495  15.527  0.00  0.00    +0.000 A 
ATOM     26  C   UNL     1       4.769   4.817  15.919  0.00  0.00    +0.000 A 
ATOM     27  C   UNL     1       4.749   4.131  17.149  0.00  0.00    +0.000 A 
ATOM     28  C   UNL     1       3.753   3.366  17.839  0.00  0.00    +0.000 A 
ATOM     29  H   UNL     1       6.234   3.304  19.856  0.00  0.00    +0.000 HD
ENDBRANCH  17  28
ENDBRANCH  16  17
ENDBRANCH   1  16
TORSDOF 6
ENDMDL
MODEL 4
REMARK VINA RESULT:      -7.9      0.857      1.051
REMARK  Name = 
REMARK  8 active torsions:
REMARK  status: ('A' for Active; 'I' for Inactive)
REMARK    1  A    between atoms: C_1  and  C_2
REMARK    2  A    between atoms: C_5  and  C_6
REMARK    3  A    between atoms: C_11  and  C_12
REMARK    4  A    between atoms: C_12  and  C_13
REMARK    5  A    between atoms: C_13  and  N_14
REMARK    6  A    between atoms: N_14  and  S_15
REMARK    7  A    between atoms: S_15  and  C_18
REMARK    8  A    between atoms: C_20  and  N_21
REMARK                            x       y       z     vdW  Elec       q    Type
REMARK                         _______ _______ _______ _____ _____    ______ ____
ROOT
ATOM      1  N   UNL     1       2.109   4.145  20.817  0.00  0.00    +0.000 NA
ATOM      2  H   UNL     1       1.317   3.753  21.328  0.00  0.00    +0.000 HD
ENDROOT
BRANCH   1   3
ATOM      3  S   UNL     1       3.014   2.907  20.111  0.00  0.00    +0.000 S 
ATOM      4  O   UNL     1       3.832   2.328  21.151  0.00  0.00    +0.000 OA
ATOM      5  O   UNL     1       2.107   2.082  19.345  0.00  0.00    +0.000 OA
BRANCH   3   6
ATOM      6  C   UNL     1       4.085   3.750  18.976  0.00  0.00    +0.000 A 
ATOM      7  C   UNL     1       5.279   4.295  19.485  0.00  0.00    +0.000 A 
ATOM      8  C   UNL     1       6.070   5.117  18.671  0.00  0.00    +0.000 A 
ATOM      9  C   UNL     1       5.685   5.385  17.352  0.00  0.00    +0.000 A 
ATOM     10  C   UNL     1       4.520   4.803  16.844  0.00  0.00    +0.000 A 
ATOM     11  C   UNL     1       3.713   3.986  17.649  0.00  0.00    +0.000 A 
ATOM     12 CL   UNL     1       2.312   3.311  16.902  0.00  0.00    +0.000 Cl
BRANCH   8  13
ATOM     13  N   UNL     1       7.293   5.724  19.210  0.00  0.00    +0.000 N 
ATOM     14  O   UNL     1       7.674   5.353  20.329  0.00  0.00    +0.000 OA
ATOM     15  O   UNL     1       7.873   6.569  18.512  0.00  0.00    +0.000 OA
ENDBRANCH   8  13
ENDBRANCH   3   6
ENDBRANCH   1   3
BRANCH   1  16
ATOM     16  C   UNL     1       1.856   5.323  19.971  0.00  0.00    +0.000 C 
BRANCH  16  17
ATOM     17  C   UNL     1       2.551   6.572  20.517  0.00  0.00    +0.000 C 
BRANCH  17  28
ATOM     18  C   UNL     1       2.720   7.910  17.579  0.00  0.00    +0.000 C 
ATOM     19  C   UNL     1       1.952   8.359  18.769  0.00  0.00    +0.000 A 
ATOM     20  N   UNL     1       1.204   9.509  18.758  0.00  0.00    +0.000 N 
ATOM     21  C   UNL     1       0.620   9.730  19.986  0.00  0.00    +0.000 A 
ATOM     22  C   UNL     1      -0.205  10.784  20.425  0.00  0.00    +0.000 A 
ATOM     23  C   UNL     1      -0.647  11.934  19.569  0.00  0.00    +0.000 C 
ATOM     24  C   UNL     1      -0.633  10.724  21.765  0.00  0.00    +0.000 A 
ATOM     25  C   UNL     1      -0.256   9.684  22.611  0.00  0.00    +0.000 A 
ATOM     26  C   UNL     1       0.566   8.655  22.146  0.00  0.00    +0.000 A 
ATOM     27  C   UNL     1       1.010   8.670  20.808  0.00  0.00    +0.000 A 
ATOM     28  C   UNL     1       1.846   7.803  20.033  0.00  0.00    +0.000 A 
ATOM     29  H   UNL     1       1.110  10.129  17.966  0.00  0.00    +0.000 HD
ENDBRANCH  17  28
ENDBRANCH  16  17
ENDBRANCH   1  16
TORSDOF 6
ENDMDL
MODEL 5
REMARK VINA RESULT:      -7.9      1.947      2.309
REMARK  Name = 
REMARK  8 active torsions:
REMARK  status: ('A' for Active; 'I' for Inactive)
REMARK    1  A    between atoms: C_1  and  C_2
REMARK    2  A    between atoms: C_5  and  C_6
REMARK    3  A    between atoms: C_11  and  C_12
REMARK    4  A    between atoms: C_12  and  C_13
REMARK    5  A    between atoms: C_13  and  N_14
REMARK    6  A    between atoms: N_14  and  S_15
REMARK    7  A    between atoms: S_15  and  C_18
REMARK    8  A    between atoms: C_20  and  N_21
REMARK                            x       y       z     vdW  Elec       q    Type
REMARK                         _______ _______ _______ _____ _____    ______ ____
ROOT
ATOM      1  N   UNL     1       3.212   3.682  19.210  0.00  0.00    +0.000 NA
ATOM      2  H   UNL     1       3.075   2.869  19.812  0.00  0.00    +0.000 HD
ENDROOT
BRANCH   1   3
ATOM      3  S   UNL     1       3.567   3.186  17.636  0.00  0.00    +0.000 S 
ATOM      4  O   UNL     1       3.864   1.773  17.689  0.00  0.00    +0.000 OA
ATOM      5  O   UNL     1       2.521   3.685  16.772  0.00  0.00    +0.000 OA
BRANCH   3   6
ATOM      6  C   UNL     1       5.066   4.048  17.241  0.00  0.00    +0.000 A 
ATOM      7  C   UNL     1       5.824   4.566  18.308  0.00  0.00    +0.000 A 
ATOM      8  C   UNL     1       6.918   5.401  18.042  0.00  0.00    +0.000 A 
ATOM      9  C   UNL     1       7.268   5.707  16.722  0.00  0.00    +0.000 A 
ATOM     10  C   UNL     1       6.534   5.151  15.669  0.00  0.00    +0.000 A 
ATOM     11  C   UNL     1       5.431   4.322  15.920  0.00  0.00    +0.000 A 
ATOM     12 CL   UNL     1       4.620   3.683  14.538  0.00  0.00    +0.000 Cl
BRANCH   8  13
ATOM     13  N   UNL     1       7.685   5.979  19.152  0.00  0.00    +0.000 N 
ATOM     14  O   UNL     1       8.352   6.997  18.922  0.00  0.00    +0.000 OA
ATOM     15  O   UNL     1       7.617   5.415  20.254  0.00  0.00    +0.000 OA
ENDBRANCH   8  13
ENDBRANCH   3   6
ENDBRANCH   1   3
BRANCH   1  16
ATOM     16  C   UNL     1       2.251   4.791  19.337  0.00  0.00    +0.000 C 
BRANCH  16  17
ATOM     17  C   UNL     1       2.856   5.981  20.084  0.00  0.00    +0.000 C 
BRANCH  17  28
ATOM     18  C   UNL     1       3.584   7.367  17.256  0.00  0.00    +0.000 C 
ATOM     19  C   UNL     1       2.657   7.838  18.317  0.00  0.00    +0.000 A 
ATOM     20  N   UNL     1       1.989   9.032  18.220  0.00  0.00    +0.000 N 
ATOM     21  C   UNL     1       1.224   9.263  19.342  0.00  0.00    +0.000 A 
ATOM     22  C   UNL     1       0.399  10.356  19.673  0.00  0.00    +0.000 A 
ATOM     23  C   UNL     1       0.171  11.549  18.792  0.00  0.00    +0.000 C 
ATOM     24  C   UNL     1      -0.246  10.295  20.922  0.00  0.00    +0.000 A 
ATOM     25  C   UNL     1      -0.074   9.217  21.786  0.00  0.00    +0.000 A 
ATOM     26  C   UNL     1       0.753   8.148  21.430  0.00  0.00    +0.000 A 
ATOM     27  C   UNL     1       1.411   8.164  20.184  0.00  0.00    +0.000 A 
ATOM     28  C   UNL     1       2.313   7.263  19.530  0.00  0.00    +0.000 A 
ATOM     29  H   UNL     1       2.062   9.673  17.442  0.00  0.00    +0.000 HD
ENDBRANCH  17  28
ENDBRANCH  16  17
ENDBRANCH   1  16
TORSDOF 6
ENDMDL
MODEL 6
REMARK VINA RESULT:      -7.9      0.768      1.067
REMARK  Name = 
REMARK  8 active torsions:
REMARK  status: ('A' for Active; 'I' for Inactive)
REMARK    1  A    between atoms: C_1  and  C_2
REMARK    2  A    between atoms: C_5  and  C_6
REMARK    3  A    between atoms: C_11  and  C_12
REMARK    4  A    between atoms: C_12  and  C_13
REMARK    5  A    between atoms: C_13  and  N_14
REMARK    6  A    between atoms: N_14  and  S_15
REMARK    7  A    between atoms: S_15  and  C_18
REMARK    8  A    between atoms: C_20  and  N_21
REMARK                            x       y       z     vdW  Elec       q    Type
REMARK                         _______ _______ _______ _____ _____    ______ ____
ROOT
ATOM      1  N   UNL     1       2.307   5.318  21.117  0.00  0.00    +0.000 NA
ATOM      2  H   UNL     1       2.043   5.250  22.101  0.00  0.00    +0.000 HD
ENDROOT
BRANCH   1   3
ATOM      3  S   UNL     1       2.343   3.782  20.419  0.00  0.00    +0.000 S 
ATOM      4  O   UNL     1       2.718   2.848  21.457  0.00  0.00    +0.000 OA
ATOM      5  O   UNL     1       1.113   3.605  19.682  0.00  0.00    +0.000 OA
BRANCH   3   6
ATOM      6  C   UNL     1       3.677   3.870  19.253  0.00  0.00    +0.000 A 
ATOM      7  C   UNL     1       4.806   4.631  19.608  0.00  0.00    +0.000 A 
ATOM      8  C   UNL     1       5.806   4.875  18.657  0.00  0.00    +0.000 A 
ATOM      9  C   UNL     1       5.693   4.352  17.363  0.00  0.00    +0.000 A 
ATOM     10  C   UNL     1       4.588   3.561  17.036  0.00  0.00    +0.000 A 
ATOM     11  C   UNL     1       3.574   3.316  17.974  0.00  0.00    +0.000 A 
ATOM     12 CL   UNL     1       2.273   2.309  17.456  0.00  0.00    +0.000 Cl
BRANCH   8  13
ATOM     13  N   UNL     1       6.966   5.705  19.008  0.00  0.00    +0.000 N 
ATOM     14  O   UNL     1       7.333   6.557  18.187  0.00  0.00    +0.000 OA
ATOM     15  O   UNL     1       7.505   5.505  20.106  0.00  0.00    +0.000 OA
ENDBRANCH   8  13
ENDBRANCH   3   6
ENDBRANCH   1   3
BRANCH   1  16
ATOM     16  C   UNL     1       1.672   6.377  20.315  0.00  0.00    +0.000 C 
BRANCH  16  17
ATOM     17  C   UNL     1       1.920   7.764  20.911  0.00  0.00    +0.000 C 
BRANCH  17  28
ATOM     18  C   UNL     1       2.491   8.286  17.773  0.00  0.00    +0.000 C 
ATOM     19  C   UNL     1       1.585   9.021  18.694  0.00  0.00    +0.000 A 
ATOM     20  N   UNL     1       0.869  10.117  18.285  0.00  0.00    +0.000 N 
ATOM     21  C   UNL     1       0.138  10.644  19.327  0.00  0.00    +0.000 A 
ATOM     22  C   UNL     1      -0.716  11.765  19.364  0.00  0.00    +0.000 A 
ATOM     23  C   UNL     1      -1.021  12.644  18.187  0.00  0.00    +0.000 C 
ATOM     24  C   UNL     1      -1.313  12.053  20.606  0.00  0.00    +0.000 A 
ATOM     25  C   UNL     1      -1.068  11.277  21.736  0.00  0.00    +0.000 A 
ATOM     26  C   UNL     1      -0.215  10.174  21.668  0.00  0.00    +0.000 A 
ATOM     27  C   UNL     1       0.397   9.844  20.441  0.00  0.00    +0.000 A 
ATOM     28  C   UNL     1       1.308   8.815  20.036  0.00  0.00    +0.000 A 
ATOM     29  H   UNL     1       0.890  10.506  17.353  0.00  0.00    +0.000 HD
ENDBRANCH  17  28
ENDBRANCH  16  17
ENDBRANCH   1  16
TORSDOF 6
ENDMDL
MODEL 7
REMARK VINA RESULT:      -7.8      2.823      3.307
REMARK  Name = 
REMARK  8 active torsions:
REMARK  status: ('A' for Active; 'I' for Inactive)
REMARK    1  A    between atoms: C_1  and  C_2
REMARK    2  A    between atoms: C_5  and  C_6
REMARK    3  A    between atoms: C_11  and  C_12
REMARK    4  A    between atoms: C_12  and  C_13
REMARK    5  A    between atoms: C_13  and  N_14
REMARK    6  A    between atoms: N_14  and  S_15
REMARK    7  A    between atoms: S_15  and  C_18
REMARK    8  A    between atoms: C_20  and  N_21
REMARK                            x       y       z     vdW  Elec       q    Type
REMARK                         _______ _______ _______ _____ _____    ______ ____
ROOT
ATOM      1  N   UNL     1       2.520   4.347  18.212  0.00  0.00    +0.000 NA
ATOM      2  H   UNL     1       2.610   5.007  17.438  0.00  0.00    +0.000 HD
ENDROOT
BRANCH   1   3
ATOM      3  S   UNL     1       3.848   3.307  18.246  0.00  0.00    +0.000 S 
ATOM      4  O   UNL     1       4.353   3.300  19.600  0.00  0.00    +0.000 OA
ATOM      5  O   UNL     1       3.457   2.074  17.601  0.00  0.00    +0.000 OA
BRANCH   3   6
ATOM      6  C   UNL     1       5.050   4.109  17.217  0.00  0.00    +0.000 A 
ATOM      7  C   UNL     1       4.990   3.869  15.832  0.00  0.00    +0.000 A 
ATOM      8  C   UNL     1       6.017   4.337  15.000  0.00  0.00    +0.000 A 
ATOM      9  C   UNL     1       7.091   5.054  15.541  0.00  0.00    +0.000 A 
ATOM     10  C   UNL     1       7.117   5.324  16.912  0.00  0.00    +0.000 A 
ATOM     11  C   UNL     1       6.102   4.854  17.758  0.00  0.00    +0.000 A 
ATOM     12 CL   UNL     1       6.236   5.270  19.427  0.00  0.00    +0.000 Cl
BRANCH   8  13
ATOM     13  N   UNL     1       5.983   4.051  13.561  0.00  0.00    +0.000 N 
ATOM     14  O   UNL     1       7.027   4.221  12.915  0.00  0.00    +0.000 OA
ATOM     15  O   UNL     1       4.912   3.655  13.078  0.00  0.00    +0.000 OA
ENDBRANCH   8  13
ENDBRANCH   3   6
ENDBRANCH   1   3
BRANCH   1  16
ATOM     16  C   UNL     1       2.086   4.883  19.513  0.00  0.00    +0.000 C 
BRANCH  16  17
ATOM     17  C   UNL     1       2.940   6.075  19.948  0.00  0.00    +0.000 C 
BRANCH  17  28
ATOM     18  C   UNL     1       3.591   7.542  17.142  0.00  0.00    +0.000 C 
ATOM     19  C   UNL     1       2.658   7.959  18.221  0.00  0.00    +0.000 A 
ATOM     20  N   UNL     1       1.948   9.130  18.154  0.00  0.00    +0.000 N 
ATOM     21  C   UNL     1       1.187   9.311  19.288  0.00  0.00    +0.000 A 
ATOM     22  C   UNL     1       0.327  10.368  19.648  0.00  0.00    +0.000 A 
ATOM     23  C   UNL     1       0.049  11.570  18.794  0.00  0.00    +0.000 C 
ATOM     24  C   UNL     1      -0.303  10.259  20.902  0.00  0.00    +0.000 A 
ATOM     25  C   UNL     1      -0.085   9.170  21.742  0.00  0.00    +0.000 A 
ATOM     26  C   UNL     1       0.775   8.139  21.357  0.00  0.00    +0.000 A 
ATOM     27  C   UNL     1       1.420   8.204  20.106  0.00  0.00    +0.000 A 
ATOM     28  C   UNL     1       2.347   7.348  19.425  0.00  0.00    +0.000 A 
ATOM     29  H   UNL     1       1.991   9.789  17.390  0.00  0.00    +0.000 HD
ENDBRANCH  17  28
ENDBRANCH  16  17
ENDBRANCH   1  16
TORSDOF 6
ENDMDL
MODEL 8
REMARK VINA RESULT:      -7.7      1.514      2.009
REMARK  Name = 
REMARK  8 active torsions:
REMARK  status: ('A' for Active; 'I' for Inactive)
REMARK    1  A    between atoms: C_1  and  C_2
REMARK    2  A    between atoms: C_5  and  C_6
REMARK    3  A    between atoms: C_11  and  C_12
REMARK    4  A    between atoms: C_12  and  C_13
REMARK    5  A    between atoms: C_13  and  N_14
REMARK    6  A    between atoms: N_14  and  S_15
REMARK    7  A    between atoms: S_15  and  C_18
REMARK    8  A    between atoms: C_20  and  N_21
REMARK                            x       y       z     vdW  Elec       q    Type
REMARK                         _______ _______ _______ _____ _____    ______ ____
ROOT
ATOM      1  N   UNL     1       2.293   6.502  20.804  0.00  0.00    +0.000 NA
ATOM      2  H   UNL     1       3.058   6.641  21.465  0.00  0.00    +0.000 HD
ENDROOT
BRANCH   1   3
ATOM      3  S   UNL     1       2.035   4.853  20.552  0.00  0.00    +0.000 S 
ATOM      4  O   UNL     1       2.579   4.155  21.695  0.00  0.00    +0.000 OA
ATOM      5  O   UNL     1       0.651   4.677  20.174  0.00  0.00    +0.000 OA
BRANCH   3   6
ATOM      6  C   UNL     1       3.044   4.470  19.144  0.00  0.00    +0.000 A 
ATOM      7  C   UNL     1       3.850   5.497  18.618  0.00  0.00    +0.000 A 
ATOM      8  C   UNL     1       4.529   5.297  17.408  0.00  0.00    +0.000 A 
ATOM      9  C   UNL     1       4.420   4.076  16.731  0.00  0.00    +0.000 A 
ATOM     10  C   UNL     1       3.651   3.049  17.286  0.00  0.00    +0.000 A 
ATOM     11  C   UNL     1       2.959   3.237  18.491  0.00  0.00    +0.000 A 
ATOM     12 CL   UNL     1       2.061   1.888  19.083  0.00  0.00    +0.000 Cl
BRANCH   8  13
ATOM     13  N   UNL     1       5.336   6.380  16.832  0.00  0.00    +0.000 N 
ATOM     14  O   UNL     1       6.213   6.886  17.546  0.00  0.00    +0.000 OA
ATOM     15  O   UNL     1       5.093   6.720  15.666  0.00  0.00    +0.000 OA
ENDBRANCH   8  13
ENDBRANCH   3   6
ENDBRANCH   1   3
BRANCH   1  16
ATOM     16  C   UNL     1       1.085   7.325  20.981  0.00  0.00    +0.000 C 
BRANCH  16  17
ATOM     17  C   UNL     1       1.419   8.705  21.550  0.00  0.00    +0.000 C 
BRANCH  17  28
ATOM     18  C   UNL     1       1.363   9.736  18.487  0.00  0.00    +0.000 C 
ATOM     19  C   UNL     1       0.524  10.169  19.635  0.00  0.00    +0.000 A 
ATOM     20  N   UNL     1      -0.411  11.165  19.516  0.00  0.00    +0.000 N 
ATOM     21  C   UNL     1      -1.028  11.409  20.723  0.00  0.00    +0.000 A 
ATOM     22  C   UNL     1      -2.025  12.345  21.062  0.00  0.00    +0.000 A 
ATOM     23  C   UNL     1      -2.657  13.306  20.099  0.00  0.00    +0.000 C 
ATOM     24  C   UNL     1      -2.440  12.353  22.408  0.00  0.00    +0.000 A 
ATOM     25  C   UNL     1      -1.891  11.489  23.351  0.00  0.00    +0.000 A 
ATOM     26  C   UNL     1      -0.902  10.574  22.984  0.00  0.00    +0.000 A 
ATOM     27  C   UNL     1      -0.464  10.525  21.645  0.00  0.00    +0.000 A 
ATOM     28  C   UNL     1       0.513   9.739  20.952  0.00  0.00    +0.000 A 
ATOM     29  H   UNL     1      -0.608  11.673  18.665  0.00  0.00    +0.000 HD
ENDBRANCH  17  28
ENDBRANCH  16  17
ENDBRANCH   1  16
TORSDOF 6
ENDMDL
MODEL 9
REMARK VINA RESULT:      -7.7      3.297      5.837
REMARK  Name = 
REMARK  8 active torsions:
REMARK  status: ('A' for Active; 'I' for Inactive)
REMARK    1  A    between atoms: C_1  and  C_2
REMARK    2  A    between atoms: C_5  and  C_6
REMARK    3  A    between atoms: C_11  and  C_12
REMARK    4  A    between atoms: C_12  and  C_13
REMARK    5  A    between atoms: C_13  and  N_14
REMARK    6  A    between atoms: N_14  and  S_15
REMARK    7  A    between atoms: S_15  and  C_18
REMARK    8  A    between atoms: C_20  and  N_21
REMARK                            x       y       z     vdW  Elec       q    Type
REMARK                         _______ _______ _______ _____ _____    ______ ____
ROOT
ATOM      1  N   UNL     1       4.980   6.849  18.271  0.00  0.00    +0.000 NA
ATOM      2  H   UNL     1       4.710   6.112  18.925  0.00  0.00    +0.000 HD
ENDROOT
BRANCH   1   3
ATOM      3  S   UNL     1       6.604   6.678  17.842  0.00  0.00    +0.000 S 
ATOM      4  O   UNL     1       7.011   7.911  17.207  0.00  0.00    +0.000 OA
ATOM      5  O   UNL     1       7.313   6.179  18.998  0.00  0.00    +0.000 OA
BRANCH   3   6
ATOM      6  C   UNL     1       6.591   5.403  16.609  0.00  0.00    +0.000 A 
ATOM      7  C   UNL     1       7.181   5.691  15.364  0.00  0.00    +0.000 A 
ATOM      8  C   UNL     1       7.043   4.785  14.304  0.00  0.00    +0.000 A 
ATOM      9  C   UNL     1       6.335   3.591  14.483  0.00  0.00    +0.000 A 
ATOM     10  C   UNL     1       5.790   3.297  15.736  0.00  0.00    +0.000 A 
ATOM     11  C   UNL     1       5.912   4.197  16.804  0.00  0.00    +0.000 A 
ATOM     12 CL   UNL     1       5.215   3.711  18.305  0.00  0.00    +0.000 Cl
BRANCH   8  13
ATOM     13  N   UNL     1       7.619   5.101  12.990  0.00  0.00    +0.000 N 
ATOM     14  O   UNL     1       8.496   5.974  12.942  0.00  0.00    +0.000 OA
ATOM     15  O   UNL     1       7.195   4.472  12.010  0.00  0.00    +0.000 OA
ENDBRANCH   8  13
ENDBRANCH   3   6
ENDBRANCH   1   3
BRANCH   1  16
ATOM     16  C   UNL     1       4.050   7.155  17.171  0.00  0.00    +0.000 C 
BRANCH  16  17
ATOM     17  C   UNL     1       2.657   7.515  17.692  0.00  0.00    +0.000 C 
BRANCH  17  28
ATOM     18  C   UNL     1       2.089   8.183  20.803  0.00  0.00    +0.000 C 
ATOM     19  C   UNL     1       2.026   6.875  20.100  0.00  0.00    +0.000 A 
ATOM     20  N   UNL     1       1.738   5.709  20.761  0.00  0.00    +0.000 N 
ATOM     21  C   UNL     1       1.778   4.631  19.903  0.00  0.00    +0.000 A 
ATOM     22  C   UNL     1       1.566   3.261  20.152  0.00  0.00    +0.000 A 
ATOM     23  C   UNL     1       1.215   2.681  21.491  0.00  0.00    +0.000 C 
ATOM     24  C   UNL     1       1.696   2.399  19.047  0.00  0.00    +0.000 A 
ATOM     25  C   UNL     1       2.021   2.874  17.779  0.00  0.00    +0.000 A 
ATOM     26  C   UNL     1       2.228   4.239  17.565  0.00  0.00    +0.000 A 
ATOM     27  C   UNL     1       2.099   5.139  18.642  0.00  0.00    +0.000 A 
ATOM     28  C   UNL     1       2.249   6.558  18.770  0.00  0.00    +0.000 A 
ATOM     29  H   UNL     1       1.546   5.638  21.751  0.00  0.00    +0.000 HD
ENDBRANCH  17  28
ENDBRANCH  16  17
ENDBRANCH   1  16
TORSDOF 6
ENDMDL
