MODEL 1
REMARK VINA RESULT:      -7.1      0.000      0.000
REMARK  Name = 
REMARK  14 active torsions:
REMARK  status: ('A' for Active; 'I' for Inactive)
REMARK    1  A    between atoms: C_1  and  C_2
REMARK    2  A    between atoms: C_4  and  C_5
REMARK    3  A    between atoms: N_8  and  C_9
REMARK    4  A    between atoms: C_12  and  C_13
REMARK    5  A    between atoms: N_15  and  C_16
REMARK    6  A    between atoms: N_15  and  C_21
REMARK    7  A    between atoms: C_16  and  C_17
REMARK    8  A    between atoms: C_17  and  C_18
REMARK    9  A    between atoms: C_18  and  C_19
REMARK   10  A    between atoms: C_18  and  C_20
REMARK   11  A    between atoms: C_21  and  C_22
REMARK   12  A    between atoms: C_22  and  C_23
REMARK   13  A    between atoms: C_23  and  C_24
REMARK   14  A    between atoms: C_23  and  C_25
REMARK                            x       y       z     vdW  Elec       q    Type
REMARK                         _______ _______ _______ _____ _____    ______ ____
ROOT
ATOM      1  C   UNL     1       4.532   5.434  18.863  0.00  0.00    +0.000 C 
ATOM      2  O   UNL     1       5.158   4.837  19.748  0.00  0.00    +0.000 OA
ATOM      3  N   UNL     1       3.207   5.841  19.158  0.00  0.00    +0.000 N 
ENDROOT
BRANCH   1   9
ATOM      4  C   UNL     1       7.533   6.758  17.783  0.00  0.00    +0.000 C 
ATOM      5  C   UNL     1       6.337   6.228  17.083  0.00  0.00    +0.000 A 
ATOM      6  N   UNL     1       6.483   6.176  15.706  0.00  0.00    +0.000 NA
ATOM      7  C   UNL     1       5.839   5.136  15.237  0.00  0.00    +0.000 A 
ATOM      8  S   UNL     1       4.649   4.526  16.288  0.00  0.00    +0.000 S 
ATOM      9  C   UNL     1       5.183   5.619  17.567  0.00  0.00    +0.000 A 
BRANCH   7  10
ATOM     10  C   UNL     1       6.254   4.559  13.932  0.00  0.00    +0.000 A 
ATOM     11  C   UNL     1       7.329   5.012  13.141  0.00  0.00    +0.000 A 
ATOM     12  N   UNL     1       7.533   4.244  12.069  0.00  0.00    +0.000 NA
ATOM     13  N   UNL     1       6.606   3.276  12.193  0.00  0.00    +0.000 N 
ATOM     14  C   UNL     1       6.550   2.214  11.218  0.00  0.00    +0.000 C 
ATOM     15  C   UNL     1       5.809   3.418  13.297  0.00  0.00    +0.000 A 
ENDBRANCH   7  10
ENDBRANCH   1   9
BRANCH   3  16
ATOM     16  C   UNL     1       2.272   6.602  18.319  0.00  0.00    +0.000 C 
BRANCH  16  17
ATOM     17  C   UNL     1       2.505   8.101  18.096  0.00  0.00    +0.000 C 
BRANCH  17  18
ATOM     18  C   UNL     1       1.413   9.113  18.496  0.00  0.00    +0.000 C 
ATOM     19  C   UNL     1       1.064   9.111  19.983  0.00  0.00    +0.000 C 
ATOM     20  C   UNL     1       1.890  10.526  18.116  0.00  0.00    +0.000 C 
ENDBRANCH  17  18
ENDBRANCH  16  17
ENDBRANCH   3  16
BRANCH   3  21
ATOM     21  C   UNL     1       2.697   5.460  20.499  0.00  0.00    +0.000 C 
BRANCH  21  22
ATOM     22  C   UNL     1       1.265   4.887  20.567  0.00  0.00    +0.000 C 
BRANCH  22  23
ATOM     23  C   UNL     1       1.125   3.362  20.689  0.00  0.00    +0.000 C 
ATOM     24  C   UNL     1       1.083   2.664  19.327  0.00  0.00    +0.000 C 
ATOM     25  C   UNL     1       2.314   2.811  21.498  0.00  0.00    +0.000 C 
ENDBRANCH  22  23
ENDBRANCH  21  22
ENDBRANCH   3  21
TORSDOF 8
ENDMDL
MODEL 2
REMARK VINA RESULT:      -6.8      2.505      4.716
REMARK  Name = 
REMARK  14 active torsions:
REMARK  status: ('A' for Active; 'I' for Inactive)
REMARK    1  A    between atoms: C_1  and  C_2
REMARK    2  A    between atoms: C_4  and  C_5
REMARK    3  A    between atoms: N_8  and  C_9
REMARK    4  A    between atoms: C_12  and  C_13
REMARK    5  A    between atoms: N_15  and  C_16
REMARK    6  A    between atoms: N_15  and  C_21
REMARK    7  A    between atoms: C_16  and  C_17
REMARK    8  A    between atoms: C_17  and  C_18
REMARK    9  A    between atoms: C_18  and  C_19
REMARK   10  A    between atoms: C_18  and  C_20
REMARK   11  A    between atoms: C_21  and  C_22
REMARK   12  A    between atoms: C_22  and  C_23
REMARK   13  A    between atoms: C_23  and  C_24
REMARK   14  A    between atoms: C_23  and  C_25
REMARK                            x       y       z     vdW  Elec       q    Type
REMARK                         _______ _______ _______ _____ _____    ______ ____
ROOT
ATOM      1  C   UNL     1       4.632   3.245  18.752  0.00  0.00    +0.000 C 
ATOM      2  O   UNL     1       4.934   2.414  19.617  0.00  0.00    +0.000 OA
ATOM      3  N   UNL     1       3.303   3.229  18.263  0.00  0.00    +0.000 N 
ENDROOT
BRANCH   1   9
ATOM      4  C   UNL     1       5.889   4.089  15.648  0.00  0.00    +0.000 C 
ATOM      5  C   UNL     1       6.280   4.431  17.037  0.00  0.00    +0.000 A 
ATOM      6  N   UNL     1       7.316   5.348  17.109  0.00  0.00    +0.000 NA
ATOM      7  C   UNL     1       7.147   6.120  18.153  0.00  0.00    +0.000 A 
ATOM      8  S   UNL     1       6.105   5.472  19.333  0.00  0.00    +0.000 S 
ATOM      9  C   UNL     1       5.683   4.136  18.259  0.00  0.00    +0.000 A 
BRANCH   7  10
ATOM     10  C   UNL     1       7.777   7.466  18.166  0.00  0.00    +0.000 A 
ATOM     11  C   UNL     1       7.458   8.528  17.296  0.00  0.00    +0.000 A 
ATOM     12  N   UNL     1       8.112   9.651  17.601  0.00  0.00    +0.000 NA
ATOM     13  N   UNL     1       8.825   9.315  18.691  0.00  0.00    +0.000 N 
ATOM     14  C   UNL     1       9.638  10.312  19.345  0.00  0.00    +0.000 C 
ATOM     15  C   UNL     1       8.660   8.011  19.074  0.00  0.00    +0.000 A 
ENDBRANCH   7  10
ENDBRANCH   1   9
BRANCH   3  16
ATOM     16  C   UNL     1       2.674   4.128  17.285  0.00  0.00    +0.000 C 
BRANCH  16  17
ATOM     17  C   UNL     1       2.119   5.480  17.749  0.00  0.00    +0.000 C 
BRANCH  17  18
ATOM     18  C   UNL     1       3.089   6.607  18.155  0.00  0.00    +0.000 C 
ATOM     19  C   UNL     1       3.879   7.211  16.994  0.00  0.00    +0.000 C 
ATOM     20  C   UNL     1       2.280   7.733  18.823  0.00  0.00    +0.000 C 
ENDBRANCH  17  18
ENDBRANCH  16  17
ENDBRANCH   3  16
BRANCH   3  21
ATOM     21  C   UNL     1       2.421   2.173  18.819  0.00  0.00    +0.000 C 
BRANCH  21  22
ATOM     22  C   UNL     1       1.101   2.635  19.474  0.00  0.00    +0.000 C 
BRANCH  22  23
ATOM     23  C   UNL     1       1.183   3.181  20.907  0.00  0.00    +0.000 C 
ATOM     24  C   UNL     1       2.191   2.419  21.771  0.00  0.00    +0.000 C 
ATOM     25  C   UNL     1       1.588   4.666  20.857  0.00  0.00    +0.000 C 
ENDBRANCH  22  23
ENDBRANCH  21  22
ENDBRANCH   3  21
TORSDOF 8
ENDMDL
MODEL 3
REMARK VINA RESULT:      -6.5      2.595      8.221
REMARK  Name = 
REMARK  14 active torsions:
REMARK  status: ('A' for Active; 'I' for Inactive)
REMARK    1  A    between atoms: C_1  and  C_2
REMARK    2  A    between atoms: C_4  and  C_5
REMARK    3  A    between atoms: N_8  and  C_9
REMARK    4  A    between atoms: C_12  and  C_13
REMARK    5  A    between atoms: N_15  and  C_16
REMARK    6  A    between atoms: N_15  and  C_21
REMARK    7  A    between atoms: C_16  and  C_17
REMARK    8  A    between atoms: C_17  and  C_18
REMARK    9  A    between atoms: C_18  and  C_19
REMARK   10  A    between atoms: C_18  and  C_20
REMARK   11  A    between atoms: C_21  and  C_22
REMARK   12  A    between atoms: C_22  and  C_23
REMARK   13  A    between atoms: C_23  and  C_24
REMARK   14  A    between atoms: C_23  and  C_25
REMARK                            x       y       z     vdW  Elec       q    Type
REMARK                         _______ _______ _______ _____ _____    ______ ____
ROOT
ATOM      1  C   UNL     1       4.415   6.330  17.169  0.00  0.00    +0.000 C 
ATOM      2  O   UNL     1       4.945   7.320  16.651  0.00  0.00    +0.000 OA
ATOM      3  N   UNL     1       4.781   5.055  16.670  0.00  0.00    +0.000 N 
ENDROOT
BRANCH   1   9
ATOM      4  C   UNL     1       3.718   4.939  20.252  0.00  0.00    +0.000 C 
ATOM      5  C   UNL     1       3.042   5.957  19.412  0.00  0.00    +0.000 A 
ATOM      6  N   UNL     1       1.942   6.535  20.026  0.00  0.00    +0.000 NA
ATOM      7  C   UNL     1       1.845   7.789  19.661  0.00  0.00    +0.000 A 
ATOM      8  S   UNL     1       2.687   8.162  18.230  0.00  0.00    +0.000 S 
ATOM      9  C   UNL     1       3.413   6.553  18.211  0.00  0.00    +0.000 A 
BRANCH   7  10
ATOM     10  C   UNL     1       1.120   8.743  20.540  0.00  0.00    +0.000 A 
ATOM     11  C   UNL     1       1.348   8.920  21.920  0.00  0.00    +0.000 A 
ATOM     12  N   UNL     1       0.620   9.914  22.434  0.00  0.00    +0.000 NA
ATOM     13  N   UNL     1      -0.048  10.398  21.371  0.00  0.00    +0.000 N 
ATOM     14  C   UNL     1      -0.920  11.536  21.535  0.00  0.00    +0.000 C 
ATOM     15  C   UNL     1       0.216   9.729  20.205  0.00  0.00    +0.000 A 
ENDBRANCH   7  10
ENDBRANCH   1   9
BRANCH   3  16
ATOM     16  C   UNL     1       4.349   3.730  17.134  0.00  0.00    +0.000 C 
BRANCH  16  17
ATOM     17  C   UNL     1       2.887   3.305  16.950  0.00  0.00    +0.000 C 
BRANCH  17  18
ATOM     18  C   UNL     1       2.298   2.183  17.828  0.00  0.00    +0.000 C 
ATOM     19  C   UNL     1       3.296   1.550  18.798  0.00  0.00    +0.000 C 
ATOM     20  C   UNL     1       1.132   2.762  18.648  0.00  0.00    +0.000 C 
ENDBRANCH  17  18
ENDBRANCH  16  17
ENDBRANCH   3  16
BRANCH   3  21
ATOM     21  C   UNL     1       5.738   5.054  15.536  0.00  0.00    +0.000 C 
BRANCH  21  22
ATOM     22  C   UNL     1       5.271   4.383  14.226  0.00  0.00    +0.000 C 
BRANCH  22  23
ATOM     23  C   UNL     1       6.357   3.779  13.323  0.00  0.00    +0.000 C 
ATOM     24  C   UNL     1       5.782   3.154  12.049  0.00  0.00    +0.000 C 
ATOM     25  C   UNL     1       7.358   4.882  12.932  0.00  0.00    +0.000 C 
ENDBRANCH  22  23
ENDBRANCH  21  22
ENDBRANCH   3  21
TORSDOF 8
ENDMDL
MODEL 4
REMARK VINA RESULT:      -6.5      3.510      8.482
REMARK  Name = 
REMARK  14 active torsions:
REMARK  status: ('A' for Active; 'I' for Inactive)
REMARK    1  A    between atoms: C_1  and  C_2
REMARK    2  A    between atoms: C_4  and  C_5
REMARK    3  A    between atoms: N_8  and  C_9
REMARK    4  A    between atoms: C_12  and  C_13
REMARK    5  A    between atoms: N_15  and  C_16
REMARK    6  A    between atoms: N_15  and  C_21
REMARK    7  A    between atoms: C_16  and  C_17
REMARK    8  A    between atoms: C_17  and  C_18
REMARK    9  A    between atoms: C_18  and  C_19
REMARK   10  A    between atoms: C_18  and  C_20
REMARK   11  A    between atoms: C_21  and  C_22
REMARK   12  A    between atoms: C_22  and  C_23
REMARK   13  A    between atoms: C_23  and  C_24
REMARK   14  A    between atoms: C_23  and  C_25
REMARK                            x       y       z     vdW  Elec       q    Type
REMARK                         _______ _______ _______ _____ _____    ______ ____
ROOT
ATOM      1  C   UNL     1       2.438   6.190  19.386  0.00  0.00    +0.000 C 
ATOM      2  O   UNL     1       1.852   5.266  19.964  0.00  0.00    +0.000 OA
ATOM      3  N   UNL     1       3.518   5.850  18.534  0.00  0.00    +0.000 N 
ENDROOT
BRANCH   1   9
ATOM      4  C   UNL     1       1.619   8.958  17.490  0.00  0.00    +0.000 C 
ATOM      5  C   UNL     1       1.765   8.723  18.947  0.00  0.00    +0.000 A 
ATOM      6  N   UNL     1       1.422   9.821  19.720  0.00  0.00    +0.000 NA
ATOM      7  C   UNL     1       0.879   9.415  20.841  0.00  0.00    +0.000 A 
ATOM      8  S   UNL     1       1.234   7.799  21.238  0.00  0.00    +0.000 S 
ATOM      9  C   UNL     1       2.011   7.560  19.671  0.00  0.00    +0.000 A 
BRANCH   7  10
ATOM     10  C   UNL     1      -0.028  10.333  21.577  0.00  0.00    +0.000 A 
ATOM     11  C   UNL     1      -0.431  10.184  22.919  0.00  0.00    +0.000 A 
ATOM     12  N   UNL     1      -1.169  11.210  23.348  0.00  0.00    +0.000 NA
ATOM     13  N   UNL     1      -1.207  12.036  22.286  0.00  0.00    +0.000 N 
ATOM     14  C   UNL     1      -1.893  13.302  22.393  0.00  0.00    +0.000 C 
ATOM     15  C   UNL     1      -0.536  11.557  21.193  0.00  0.00    +0.000 A 
ENDBRANCH   7  10
ENDBRANCH   1   9
BRANCH   3  16
ATOM     16  C   UNL     1       4.340   6.734  17.698  0.00  0.00    +0.000 C 
BRANCH  16  17
ATOM     17  C   UNL     1       5.093   6.152  16.495  0.00  0.00    +0.000 C 
BRANCH  17  18
ATOM     18  C   UNL     1       6.634   6.103  16.506  0.00  0.00    +0.000 C 
ATOM     19  C   UNL     1       7.287   6.982  17.571  0.00  0.00    +0.000 C 
ATOM     20  C   UNL     1       7.077   4.649  16.743  0.00  0.00    +0.000 C 
ENDBRANCH  17  18
ENDBRANCH  16  17
ENDBRANCH   3  16
BRANCH   3  21
ATOM     21  C   UNL     1       3.859   4.407  18.465  0.00  0.00    +0.000 C 
BRANCH  21  22
ATOM     22  C   UNL     1       3.183   3.579  17.352  0.00  0.00    +0.000 C 
BRANCH  22  23
ATOM     23  C   UNL     1       2.639   2.196  17.739  0.00  0.00    +0.000 C 
ATOM     24  C   UNL     1       3.629   1.389  18.583  0.00  0.00    +0.000 C 
ATOM     25  C   UNL     1       1.331   2.373  18.532  0.00  0.00    +0.000 C 
ENDBRANCH  22  23
ENDBRANCH  21  22
ENDBRANCH   3  21
TORSDOF 8
ENDMDL
MODEL 5
REMARK VINA RESULT:      -6.3      1.978      4.598
REMARK  Name = 
REMARK  14 active torsions:
REMARK  status: ('A' for Active; 'I' for Inactive)
REMARK    1  A    between atoms: C_1  and  C_2
REMARK    2  A    between atoms: C_4  and  C_5
REMARK    3  A    between atoms: N_8  and  C_9
REMARK    4  A    between atoms: C_12  and  C_13
REMARK    5  A    between atoms: N_15  and  C_16
REMARK    6  A    between atoms: N_15  and  C_21
REMARK    7  A    between atoms: C_16  and  C_17
REMARK    8  A    between atoms: C_17  and  C_18
REMARK    9  A    between atoms: C_18  and  C_19
REMARK   10  A    between atoms: C_18  and  C_20
REMARK   11  A    between atoms: C_21  and  C_22
REMARK   12  A    between atoms: C_22  and  C_23
REMARK   13  A    between atoms: C_23  and  C_24
REMARK   14  A    between atoms: C_23  and  C_25
REMARK                            x       y       z     vdW  Elec       q    Type
REMARK                         _______ _______ _______ _____ _____    ______ ____
ROOT
ATOM      1  C   UNL     1       2.555   7.091  19.184  0.00  0.00    +0.000 C 
ATOM      2  O   UNL     1       2.692   8.287  18.899  0.00  0.00    +0.000 OA
ATOM      3  N   UNL     1       1.850   6.778  20.372  0.00  0.00    +0.000 N 
ENDROOT
BRANCH   1   9
ATOM      4  C   UNL     1       1.484   4.277  17.493  0.00  0.00    +0.000 C 
ATOM      5  C   UNL     1       2.811   4.910  17.690  0.00  0.00    +0.000 A 
ATOM      6  N   UNL     1       3.827   4.290  16.980  0.00  0.00    +0.000 NA
ATOM      7  C   UNL     1       4.700   5.187  16.592  0.00  0.00    +0.000 A 
ATOM      8  S   UNL     1       4.639   6.641  17.474  0.00  0.00    +0.000 S 
ATOM      9  C   UNL     1       3.180   6.100  18.309  0.00  0.00    +0.000 A 
BRANCH   7  10
ATOM     10  C   UNL     1       5.558   4.897  15.415  0.00  0.00    +0.000 A 
ATOM     11  C   UNL     1       6.949   5.112  15.342  0.00  0.00    +0.000 A 
ATOM     12  N   UNL     1       7.476   4.668  14.199  0.00  0.00    +0.000 NA
ATOM     13  N   UNL     1       6.423   4.134  13.553  0.00  0.00    +0.000 N 
ATOM     14  C   UNL     1       6.620   3.501  12.271  0.00  0.00    +0.000 C 
ATOM     15  C   UNL     1       5.244   4.245  14.241  0.00  0.00    +0.000 A 
ENDBRANCH   7  10
ENDBRANCH   1   9
BRANCH   3  16
ATOM     16  C   UNL     1       1.503   5.456  20.912  0.00  0.00    +0.000 C 
BRANCH  16  17
ATOM     17  C   UNL     1       2.616   4.531  21.419  0.00  0.00    +0.000 C 
BRANCH  17  18
ATOM     18  C   UNL     1       2.480   3.005  21.250  0.00  0.00    +0.000 C 
ATOM     19  C   UNL     1       1.140   2.549  20.674  0.00  0.00    +0.000 C 
ATOM     20  C   UNL     1       3.598   2.513  20.315  0.00  0.00    +0.000 C 
ENDBRANCH  17  18
ENDBRANCH  16  17
ENDBRANCH   3  16
BRANCH   3  21
ATOM     21  C   UNL     1       1.387   7.937  21.176  0.00  0.00    +0.000 C 
BRANCH  21  22
ATOM     22  C   UNL     1      -0.011   8.503  20.850  0.00  0.00    +0.000 C 
BRANCH  22  23
ATOM     23  C   UNL     1      -0.616   9.497  21.852  0.00  0.00    +0.000 C 
ATOM     24  C   UNL     1       0.109   9.490  23.200  0.00  0.00    +0.000 C 
ATOM     25  C   UNL     1      -0.551  10.915  21.255  0.00  0.00    +0.000 C 
ENDBRANCH  22  23
ENDBRANCH  21  22
ENDBRANCH   3  21
TORSDOF 8
ENDMDL
MODEL 6
REMARK VINA RESULT:      -6.3      4.422      7.492
REMARK  Name = 
REMARK  14 active torsions:
REMARK  status: ('A' for Active; 'I' for Inactive)
REMARK    1  A    between atoms: C_1  and  C_2
REMARK    2  A    between atoms: C_4  and  C_5
REMARK    3  A    between atoms: N_8  and  C_9
REMARK    4  A    between atoms: C_12  and  C_13
REMARK    5  A    between atoms: N_15  and  C_16
REMARK    6  A    between atoms: N_15  and  C_21
REMARK    7  A    between atoms: C_16  and  C_17
REMARK    8  A    between atoms: C_17  and  C_18
REMARK    9  A    between atoms: C_18  and  C_19
REMARK   10  A    between atoms: C_18  and  C_20
REMARK   11  A    between atoms: C_21  and  C_22
REMARK   12  A    between atoms: C_22  and  C_23
REMARK   13  A    between atoms: C_23  and  C_24
REMARK   14  A    between atoms: C_23  and  C_25
REMARK                            x       y       z     vdW  Elec       q    Type
REMARK                         _______ _______ _______ _____ _____    ______ ____
ROOT
ATOM      1  C   UNL     1       0.618  11.025  19.310  0.00  0.00    +0.000 C 
ATOM      2  O   UNL     1       1.315  12.024  19.524  0.00  0.00    +0.000 OA
ATOM      3  N   UNL     1      -0.686  11.234  18.795  0.00  0.00    +0.000 N 
ENDROOT
BRANCH   1   9
ATOM      4  C   UNL     1      -0.120   8.590  21.645  0.00  0.00    +0.000 C 
ATOM      5  C   UNL     1       0.963   8.754  20.645  0.00  0.00    +0.000 A 
ATOM      6  N   UNL     1       1.815   7.664  20.571  0.00  0.00    +0.000 NA
ATOM      7  C   UNL     1       2.221   7.507  19.336  0.00  0.00    +0.000 A 
ATOM      8  S   UNL     1       2.051   8.897  18.369  0.00  0.00    +0.000 S 
ATOM      9  C   UNL     1       1.167   9.716  19.659  0.00  0.00    +0.000 A 
BRANCH   7  10
ATOM     10  C   UNL     1       2.683   6.166  18.892  0.00  0.00    +0.000 A 
ATOM     11  C   UNL     1       3.847   5.512  19.342  0.00  0.00    +0.000 A 
ATOM     12  N   UNL     1       3.961   4.277  18.849  0.00  0.00    +0.000 NA
ATOM     13  N   UNL     1       2.846   4.128  18.109  0.00  0.00    +0.000 N 
ATOM     14  C   UNL     1       2.594   2.872  17.445  0.00  0.00    +0.000 C 
ATOM     15  C   UNL     1       2.042   5.236  18.101  0.00  0.00    +0.000 A 
ENDBRANCH   7  10
ENDBRANCH   1   9
BRANCH   3  16
ATOM     16  C   UNL     1      -1.690  10.235  18.406  0.00  0.00    +0.000 C 
BRANCH  16  17
ATOM     17  C   UNL     1      -1.882   9.893  16.924  0.00  0.00    +0.000 C 
BRANCH  17  18
ATOM     18  C   UNL     1      -3.261  10.090  16.264  0.00  0.00    +0.000 C 
ATOM     19  C   UNL     1      -4.026  11.320  16.754  0.00  0.00    +0.000 C 
ATOM     20  C   UNL     1      -3.064  10.220  14.744  0.00  0.00    +0.000 C 
ENDBRANCH  17  18
ENDBRANCH  16  17
ENDBRANCH   3  16
BRANCH   3  21
ATOM     21  C   UNL     1      -1.089  12.650  18.610  0.00  0.00    +0.000 C 
BRANCH  21  22
ATOM     22  C   UNL     1      -1.700  13.370  19.831  0.00  0.00    +0.000 C 
BRANCH  22  23
ATOM     23  C   UNL     1      -2.709  12.580  20.678  0.00  0.00    +0.000 C 
ATOM     24  C   UNL     1      -2.309  12.509  22.154  0.00  0.00    +0.000 C 
ATOM     25  C   UNL     1      -4.093  13.246  20.565  0.00  0.00    +0.000 C 
ENDBRANCH  22  23
ENDBRANCH  21  22
ENDBRANCH   3  21
TORSDOF 8
ENDMDL
MODEL 7
REMARK VINA RESULT:      -6.3      2.809      7.929
REMARK  Name = 
REMARK  14 active torsions:
REMARK  status: ('A' for Active; 'I' for Inactive)
REMARK    1  A    between atoms: C_1  and  C_2
REMARK    2  A    between atoms: C_4  and  C_5
REMARK    3  A    between atoms: N_8  and  C_9
REMARK    4  A    between atoms: C_12  and  C_13
REMARK    5  A    between atoms: N_15  and  C_16
REMARK    6  A    between atoms: N_15  and  C_21
REMARK    7  A    between atoms: C_16  and  C_17
REMARK    8  A    between atoms: C_17  and  C_18
REMARK    9  A    between atoms: C_18  and  C_19
REMARK   10  A    between atoms: C_18  and  C_20
REMARK   11  A    between atoms: C_21  and  C_22
REMARK   12  A    between atoms: C_22  and  C_23
REMARK   13  A    between atoms: C_23  and  C_24
REMARK   14  A    between atoms: C_23  and  C_25
REMARK                            x       y       z     vdW  Elec       q    Type
REMARK                         _______ _______ _______ _____ _____    ______ ____
ROOT
ATOM      1  C   UNL     1       2.850   4.296  18.027  0.00  0.00    +0.000 C 
ATOM      2  O   UNL     1       2.176   3.850  17.090  0.00  0.00    +0.000 OA
ATOM      3  N   UNL     1       4.209   3.904  18.102  0.00  0.00    +0.000 N 
ENDROOT
BRANCH   1   9
ATOM      4  C   UNL     1       2.305   4.142  21.434  0.00  0.00    +0.000 C 
ATOM      5  C   UNL     1       1.857   5.070  20.367  0.00  0.00    +0.000 A 
ATOM      6  N   UNL     1       1.134   6.151  20.844  0.00  0.00    +0.000 NA
ATOM      7  C   UNL     1       1.386   7.206  20.109  0.00  0.00    +0.000 A 
ATOM      8  S   UNL     1       2.031   6.844  18.577  0.00  0.00    +0.000 S 
ATOM      9  C   UNL     1       2.179   5.141  19.015  0.00  0.00    +0.000 A 
BRANCH   7  10
ATOM     10  C   UNL     1       1.181   8.557  20.692  0.00  0.00    +0.000 A 
ATOM     11  C   UNL     1       1.316   8.891  22.055  0.00  0.00    +0.000 A 
ATOM     12  N   UNL     1       1.170  10.199  22.277  0.00  0.00    +0.000 NA
ATOM     13  N   UNL     1       0.975  10.708  21.047  0.00  0.00    +0.000 N 
ATOM     14  C   UNL     1       0.821  12.133  20.882  0.00  0.00    +0.000 C 
ATOM     15  C   UNL     1       0.973   9.763  20.056  0.00  0.00    +0.000 A 
ENDBRANCH   7  10
ENDBRANCH   1   9
BRANCH   3  16
ATOM     16  C   UNL     1       5.233   4.321  19.069  0.00  0.00    +0.000 C 
BRANCH  16  17
ATOM     17  C   UNL     1       5.867   5.712  18.945  0.00  0.00    +0.000 C 
BRANCH  17  18
ATOM     18  C   UNL     1       7.397   5.847  18.807  0.00  0.00    +0.000 C 
ATOM     19  C   UNL     1       8.074   4.671  18.105  0.00  0.00    +0.000 C 
ATOM     20  C   UNL     1       7.706   7.126  18.009  0.00  0.00    +0.000 C 
ENDBRANCH  17  18
ENDBRANCH  16  17
ENDBRANCH   3  16
BRANCH   3  21
ATOM     21  C   UNL     1       4.667   2.953  17.058  0.00  0.00    +0.000 C 
BRANCH  21  22
ATOM     22  C   UNL     1       5.746   3.457  16.076  0.00  0.00    +0.000 C 
BRANCH  22  23
ATOM     23  C   UNL     1       5.283   4.382  14.940  0.00  0.00    +0.000 C 
ATOM     24  C   UNL     1       5.453   5.865  15.283  0.00  0.00    +0.000 C 
ATOM     25  C   UNL     1       6.095   4.065  13.670  0.00  0.00    +0.000 C 
ENDBRANCH  22  23
ENDBRANCH  21  22
ENDBRANCH   3  21
TORSDOF 8
ENDMDL
MODEL 8
REMARK VINA RESULT:      -6.3      1.928      3.766
REMARK  Name = 
REMARK  14 active torsions:
REMARK  status: ('A' for Active; 'I' for Inactive)
REMARK    1  A    between atoms: C_1  and  C_2
REMARK    2  A    between atoms: C_4  and  C_5
REMARK    3  A    between atoms: N_8  and  C_9
REMARK    4  A    between atoms: C_12  and  C_13
REMARK    5  A    between atoms: N_15  and  C_16
REMARK    6  A    between atoms: N_15  and  C_21
REMARK    7  A    between atoms: C_16  and  C_17
REMARK    8  A    between atoms: C_17  and  C_18
REMARK    9  A    between atoms: C_18  and  C_19
REMARK   10  A    between atoms: C_18  and  C_20
REMARK   11  A    between atoms: C_21  and  C_22
REMARK   12  A    between atoms: C_22  and  C_23
REMARK   13  A    between atoms: C_23  and  C_24
REMARK   14  A    between atoms: C_23  and  C_25
REMARK                            x       y       z     vdW  Elec       q    Type
REMARK                         _______ _______ _______ _____ _____    ______ ____
ROOT
ATOM      1  C   UNL     1       2.479   5.822  19.997  0.00  0.00    +0.000 C 
ATOM      2  O   UNL     1       2.170   5.202  21.022  0.00  0.00    +0.000 OA
ATOM      3  N   UNL     1       2.053   7.168  19.892  0.00  0.00    +0.000 N 
ENDROOT
BRANCH   1   9
ATOM      4  C   UNL     1       1.749   3.241  17.821  0.00  0.00    +0.000 C 
ATOM      5  C   UNL     1       2.984   4.004  18.126  0.00  0.00    +0.000 A 
ATOM      6  N   UNL     1       4.054   3.670  17.311  0.00  0.00    +0.000 NA
ATOM      7  C   UNL     1       4.786   4.734  17.092  0.00  0.00    +0.000 A 
ATOM      8  S   UNL     1       4.555   5.981  18.227  0.00  0.00    +0.000 S 
ATOM      9  C   UNL     1       3.207   5.102  18.952  0.00  0.00    +0.000 A 
BRANCH   7  10
ATOM     10  C   UNL     1       5.641   4.784  15.878  0.00  0.00    +0.000 A 
ATOM     11  C   UNL     1       6.949   5.306  15.819  0.00  0.00    +0.000 A 
ATOM     12  N   UNL     1       7.516   5.130  14.623  0.00  0.00    +0.000 NA
ATOM     13  N   UNL     1       6.579   4.461  13.926  0.00  0.00    +0.000 N 
ATOM     14  C   UNL     1       6.859   4.046  12.572  0.00  0.00    +0.000 C 
ATOM     15  C   UNL     1       5.431   4.226  14.634  0.00  0.00    +0.000 A 
ENDBRANCH   7  10
ENDBRANCH   1   9
BRANCH   3  16
ATOM     16  C   UNL     1       2.323   8.136  18.820  0.00  0.00    +0.000 C 
BRANCH  16  17
ATOM     17  C   UNL     1       1.208   8.501  17.833  0.00  0.00    +0.000 C 
BRANCH  17  18
ATOM     18  C   UNL     1       0.602   9.919  17.852  0.00  0.00    +0.000 C 
ATOM     19  C   UNL     1      -0.694  10.040  18.652  0.00  0.00    +0.000 C 
ATOM     20  C   UNL     1       1.633  10.886  18.457  0.00  0.00    +0.000 C 
ENDBRANCH  17  18
ENDBRANCH  16  17
ENDBRANCH   3  16
BRANCH   3  21
ATOM     21  C   UNL     1       1.232   7.678  21.019  0.00  0.00    +0.000 C 
BRANCH  21  22
ATOM     22  C   UNL     1       1.591   9.073  21.572  0.00  0.00    +0.000 C 
BRANCH  22  23
ATOM     23  C   UNL     1       0.533   9.778  22.435  0.00  0.00    +0.000 C 
ATOM     24  C   UNL     1       0.110  11.132  21.858  0.00  0.00    +0.000 C 
ATOM     25  C   UNL     1      -0.707   8.873  22.551  0.00  0.00    +0.000 C 
ENDBRANCH  22  23
ENDBRANCH  21  22
ENDBRANCH   3  21
TORSDOF 8
ENDMDL
MODEL 9
REMARK VINA RESULT:      -6.3      4.161      7.325
REMARK  Name = 
REMARK  14 active torsions:
REMARK  status: ('A' for Active; 'I' for Inactive)
REMARK    1  A    between atoms: C_1  and  C_2
REMARK    2  A    between atoms: C_4  and  C_5
REMARK    3  A    between atoms: N_8  and  C_9
REMARK    4  A    between atoms: C_12  and  C_13
REMARK    5  A    between atoms: N_15  and  C_16
REMARK    6  A    between atoms: N_15  and  C_21
REMARK    7  A    between atoms: C_16  and  C_17
REMARK    8  A    between atoms: C_17  and  C_18
REMARK    9  A    between atoms: C_18  and  C_19
REMARK   10  A    between atoms: C_18  and  C_20
REMARK   11  A    between atoms: C_21  and  C_22
REMARK   12  A    between atoms: C_22  and  C_23
REMARK   13  A    between atoms: C_23  and  C_24
REMARK   14  A    between atoms: C_23  and  C_25
REMARK                            x       y       z     vdW  Elec       q    Type
REMARK                         _______ _______ _______ _____ _____    ______ ____
ROOT
ATOM      1  C   UNL     1       0.804  11.017  19.043  0.00  0.00    +0.000 C 
ATOM      2  O   UNL     1       1.557  11.990  19.167  0.00  0.00    +0.000 OA
ATOM      3  N   UNL     1      -0.558  11.275  18.751  0.00  0.00    +0.000 N 
ENDROOT
BRANCH   1   9
ATOM      4  C   UNL     1       0.338   8.508  21.370  0.00  0.00    +0.000 C 
ATOM      5  C   UNL     1       1.274   8.688  20.233  0.00  0.00    +0.000 A 
ATOM      6  N   UNL     1       2.079   7.584  20.001  0.00  0.00    +0.000 NA
ATOM      7  C   UNL     1       2.302   7.468  18.715  0.00  0.00    +0.000 A 
ATOM      8  S   UNL     1       2.035   8.898  17.833  0.00  0.00    +0.000 S 
ATOM      9  C   UNL     1       1.363   9.683  19.264  0.00  0.00    +0.000 A 
BRANCH   7  10
ATOM     10  C   UNL     1       2.662   6.136  18.163  0.00  0.00    +0.000 A 
ATOM     11  C   UNL     1       3.864   5.824  17.496  0.00  0.00    +0.000 A 
ATOM     12  N   UNL     1       3.960   4.527  17.197  0.00  0.00    +0.000 NA
ATOM     13  N   UNL     1       2.831   4.001  17.706  0.00  0.00    +0.000 N 
ATOM     14  C   UNL     1       2.601   2.580  17.612  0.00  0.00    +0.000 C 
ATOM     15  C   UNL     1       2.014   4.927  18.299  0.00  0.00    +0.000 A 
ENDBRANCH   7  10
ENDBRANCH   1   9
BRANCH   3  16
ATOM     16  C   UNL     1      -1.642  10.314  18.505  0.00  0.00    +0.000 C 
BRANCH  16  17
ATOM     17  C   UNL     1      -1.930   9.851  17.072  0.00  0.00    +0.000 C 
BRANCH  17  18
ATOM     18  C   UNL     1      -2.700  10.775  16.107  0.00  0.00    +0.000 C 
ATOM     19  C   UNL     1      -2.986  10.161  14.738  0.00  0.00    +0.000 C 
ATOM     20  C   UNL     1      -4.043  11.152  16.756  0.00  0.00    +0.000 C 
ENDBRANCH  17  18
ENDBRANCH  16  17
ENDBRANCH   3  16
BRANCH   3  21
ATOM     21  C   UNL     1      -0.943  12.706  18.672  0.00  0.00    +0.000 C 
BRANCH  21  22
ATOM     22  C   UNL     1      -1.000  13.491  19.999  0.00  0.00    +0.000 C 
BRANCH  22  23
ATOM     23  C   UNL     1      -2.392  13.819  20.561  0.00  0.00    +0.000 C 
ATOM     24  C   UNL     1      -3.448  12.787  20.157  0.00  0.00    +0.000 C 
ATOM     25  C   UNL     1      -2.313  13.881  22.098  0.00  0.00    +0.000 C 
ENDBRANCH  22  23
ENDBRANCH  21  22
ENDBRANCH   3  21
TORSDOF 8
ENDMDL
