MODEL 1
REMARK VINA RESULT:      -8.5      0.000      0.000
REMARK  Name = 
REMARK  8 active torsions:
REMARK  status: ('A' for Active; 'I' for Inactive)
REMARK    1  A    between atoms: C_2  and  C_17
REMARK    2  A    between atoms: N_3  and  C_4
REMARK    3  A    between atoms: C_4  and  C_5
REMARK    4  A    between atoms: N_8  and  C_9
REMARK    5  A    between atoms: C_22  and  O_23
REMARK    6  A    between atoms: O_23  and  C_24
REMARK    7  A    between atoms: C_24  and  C_25
REMARK    8  A    between atoms: C_25  and  C_26
REMARK                            x       y       z     vdW  Elec       q    Type
REMARK                         _______ _______ _______ _____ _____    ______ ____
ROOT
ATOM      1  O   UNL     1       1.942   8.325  18.602  0.00  0.00    +0.000 OA
ATOM      2  C   UNL     1       2.151   7.446  19.430  0.00  0.00    +0.000 C 
ATOM      3  N   UNL     1       1.964   7.609  20.792  0.00  0.00    +0.000 N 
ATOM      4  H   UNL     1       2.305   6.899  21.427  0.00  0.00    +0.000 HD
ENDROOT
BRANCH   2   5
ATOM      5  C   UNL     1       2.643   6.110  18.991  0.00  0.00    +0.000 A 
ATOM      6  C   UNL     1       1.790   5.233  18.322  0.00  0.00    +0.000 A 
ATOM      7  C   UNL     1       2.252   3.970  17.955  0.00  0.00    +0.000 A 
ATOM      8  C   UNL     1       3.569   3.570  18.235  0.00  0.00    +0.000 A 
ATOM      9 CL   UNL     1       3.910   1.918  17.850  0.00  0.00    +0.000 Cl
ATOM     10  C   UNL     1       4.467   4.470  18.836  0.00  0.00    +0.000 A 
ATOM     11  C   UNL     1       3.979   5.737  19.222  0.00  0.00    +0.000 A 
BRANCH  10  12
ATOM     12  O   UNL     1       5.796   4.286  19.147  0.00  0.00    +0.000 OA
BRANCH  12  13
ATOM     13  C   UNL     1       6.596   5.450  19.380  0.00  0.00    +0.000 C 
BRANCH  13  14
ATOM     14  C   UNL     1       7.541   5.709  18.207  0.00  0.00    +0.000 C 
BRANCH  14  15
ATOM     15  C   UNL     1       6.882   5.298  16.913  0.00  0.00    +0.000 A 
ATOM     16  C   UNL     1       5.877   6.079  16.343  0.00  0.00    +0.000 A 
ATOM     17  C   UNL     1       5.346   5.706  15.103  0.00  0.00    +0.000 A 
ATOM     18  C   UNL     1       5.831   4.568  14.473  0.00  0.00    +0.000 A 
ATOM     19 CL   UNL     1       5.218   4.085  12.944  0.00  0.00    +0.000 Cl
ATOM     20  C   UNL     1       6.827   3.845  15.105  0.00  0.00    +0.000 A 
ATOM     21  N   UNL     1       7.364   4.185  16.305  0.00  0.00    +0.000 NA
ENDBRANCH  14  15
ENDBRANCH  13  14
ENDBRANCH  12  13
ENDBRANCH  10  12
ENDBRANCH   2   5
BRANCH   3  22
ATOM     22  C   UNL     1       1.514   8.862  21.377  0.00  0.00    +0.000 C 
BRANCH  22  23
ATOM     23  C   UNL     1       0.010   9.102  21.147  0.00  0.00    +0.000 C 
ATOM     24  C   UNL     1      -0.273  10.381  20.337  0.00  0.00    +0.000 C 
ATOM     25  C   UNL     1      -0.052  11.647  21.162  0.00  0.00    +0.000 C 
ATOM     26  N   UNL     1      -0.881  11.579  22.367  0.00  0.00    +0.000 N 
ATOM     27  C   UNL     1      -0.592  10.455  23.258  0.00  0.00    +0.000 C 
ATOM     28  C   UNL     1      -0.762   9.141  22.483  0.00  0.00    +0.000 C 
BRANCH  26  29
ATOM     29  C   UNL     1      -1.863  12.514  22.643  0.00  0.00    +0.000 A 
ATOM     30  C   UNL     1      -3.132  12.453  22.056  0.00  0.00    +0.000 A 
ATOM     31  C   UNL     1      -4.094  13.408  22.367  0.00  0.00    +0.000 A 
ATOM     32  N   UNL     1      -3.891  14.430  23.218  0.00  0.00    +0.000 NA
ATOM     33  C   UNL     1      -2.668  14.493  23.777  0.00  0.00    +0.000 A 
ATOM     34  C   UNL     1      -1.651  13.578  23.526  0.00  0.00    +0.000 A 
ENDBRANCH  26  29
ENDBRANCH  22  23
ENDBRANCH   3  22
TORSDOF 8
ENDMDL
MODEL 2
REMARK VINA RESULT:      -8.3      2.426      3.257
REMARK  Name = 
REMARK  8 active torsions:
REMARK  status: ('A' for Active; 'I' for Inactive)
REMARK    1  A    between atoms: C_2  and  C_17
REMARK    2  A    between atoms: N_3  and  C_4
REMARK    3  A    between atoms: C_4  and  C_5
REMARK    4  A    between atoms: N_8  and  C_9
REMARK    5  A    between atoms: C_22  and  O_23
REMARK    6  A    between atoms: O_23  and  C_24
REMARK    7  A    between atoms: C_24  and  C_25
REMARK    8  A    between atoms: C_25  and  C_26
REMARK                            x       y       z     vdW  Elec       q    Type
REMARK                         _______ _______ _______ _____ _____    ______ ____
ROOT
ATOM      1  O   UNL     1       3.393   8.198  17.722  0.00  0.00    +0.000 OA
ATOM      2  C   UNL     1       2.381   8.041  18.393  0.00  0.00    +0.000 C 
ATOM      3  N   UNL     1       1.464   9.045  18.654  0.00  0.00    +0.000 N 
ATOM      4  H   UNL     1       0.739   8.888  19.342  0.00  0.00    +0.000 HD
ENDROOT
BRANCH   2   5
ATOM      5  C   UNL     1       2.081   6.709  18.990  0.00  0.00    +0.000 A 
ATOM      6  C   UNL     1       1.865   6.586  20.362  0.00  0.00    +0.000 A 
ATOM      7  C   UNL     1       1.628   5.327  20.911  0.00  0.00    +0.000 A 
ATOM      8  C   UNL     1       1.587   4.180  20.103  0.00  0.00    +0.000 A 
ATOM      9 CL   UNL     1       1.441   2.695  20.980  0.00  0.00    +0.000 Cl
ATOM     10  C   UNL     1       1.721   4.294  18.708  0.00  0.00    +0.000 A 
ATOM     11  C   UNL     1       1.983   5.572  18.168  0.00  0.00    +0.000 A 
BRANCH  10  12
ATOM     12  O   UNL     1       1.664   3.305  17.751  0.00  0.00    +0.000 OA
BRANCH  12  13
ATOM     13  C   UNL     1       2.821   3.097  16.934  0.00  0.00    +0.000 C 
BRANCH  13  14
ATOM     14  C   UNL     1       4.055   2.818  17.793  0.00  0.00    +0.000 C 
BRANCH  14  15
ATOM     15  C   UNL     1       5.017   3.978  17.706  0.00  0.00    +0.000 A 
ATOM     16  C   UNL     1       5.122   4.733  16.539  0.00  0.00    +0.000 A 
ATOM     17  C   UNL     1       5.966   5.848  16.523  0.00  0.00    +0.000 A 
ATOM     18  C   UNL     1       6.680   6.173  17.669  0.00  0.00    +0.000 A 
ATOM     19 CL   UNL     1       7.715   7.542  17.697  0.00  0.00    +0.000 Cl
ATOM     20  C   UNL     1       6.525   5.371  18.786  0.00  0.00    +0.000 A 
ATOM     21  N   UNL     1       5.709   4.287  18.831  0.00  0.00    +0.000 NA
ENDBRANCH  14  15
ENDBRANCH  13  14
ENDBRANCH  12  13
ENDBRANCH  10  12
ENDBRANCH   2   5
BRANCH   3  22
ATOM     22  C   UNL     1       1.630  10.404  18.165  0.00  0.00    +0.000 C 
BRANCH  22  23
ATOM     23  C   UNL     1       1.511  11.446  19.293  0.00  0.00    +0.000 C 
ATOM     24  C   UNL     1       0.564  10.998  20.422  0.00  0.00    +0.000 C 
ATOM     25  C   UNL     1      -0.904  11.071  20.007  0.00  0.00    +0.000 C 
ATOM     26  N   UNL     1      -1.203  12.434  19.562  0.00  0.00    +0.000 N 
ATOM     27  C   UNL     1      -0.429  12.897  18.411  0.00  0.00    +0.000 C 
ATOM     28  C   UNL     1       1.067  12.818  18.745  0.00  0.00    +0.000 C 
BRANCH  26  29
ATOM     29  C   UNL     1      -2.154  13.222  20.186  0.00  0.00    +0.000 A 
ATOM     30  C   UNL     1      -3.447  12.755  20.453  0.00  0.00    +0.000 A 
ATOM     31  C   UNL     1      -4.369  13.577  21.090  0.00  0.00    +0.000 A 
ATOM     32  N   UNL     1      -4.110  14.838  21.482  0.00  0.00    +0.000 NA
ATOM     33  C   UNL     1      -2.870  15.289  21.218  0.00  0.00    +0.000 A 
ATOM     34  C   UNL     1      -1.884  14.534  20.591  0.00  0.00    +0.000 A 
ENDBRANCH  26  29
ENDBRANCH  22  23
ENDBRANCH   3  22
TORSDOF 8
ENDMDL
MODEL 3
REMARK VINA RESULT:      -8.2      0.928      1.285
REMARK  Name = 
REMARK  8 active torsions:
REMARK  status: ('A' for Active; 'I' for Inactive)
REMARK    1  A    between atoms: C_2  and  C_17
REMARK    2  A    between atoms: N_3  and  C_4
REMARK    3  A    between atoms: C_4  and  C_5
REMARK    4  A    between atoms: N_8  and  C_9
REMARK    5  A    between atoms: C_22  and  O_23
REMARK    6  A    between atoms: O_23  and  C_24
REMARK    7  A    between atoms: C_24  and  C_25
REMARK    8  A    between atoms: C_25  and  C_26
REMARK                            x       y       z     vdW  Elec       q    Type
REMARK                         _______ _______ _______ _____ _____    ______ ____
ROOT
ATOM      1  O   UNL     1       2.177   7.919  18.568  0.00  0.00    +0.000 OA
ATOM      2  C   UNL     1       2.255   7.070  19.447  0.00  0.00    +0.000 C 
ATOM      3  N   UNL     1       1.956   7.307  20.778  0.00  0.00    +0.000 N 
ATOM      4  H   UNL     1       2.194   6.610  21.471  0.00  0.00    +0.000 HD
ENDROOT
BRANCH   2   5
ATOM      5  C   UNL     1       2.703   5.689  19.112  0.00  0.00    +0.000 A 
ATOM      6  C   UNL     1       1.767   4.697  18.825  0.00  0.00    +0.000 A 
ATOM      7  C   UNL     1       2.199   3.400  18.556  0.00  0.00    +0.000 A 
ATOM      8  C   UNL     1       3.566   3.077  18.553  0.00  0.00    +0.000 A 
ATOM      9 CL   UNL     1       3.900   1.390  18.357  0.00  0.00    +0.000 Cl
ATOM     10  C   UNL     1       4.529   4.081  18.760  0.00  0.00    +0.000 A 
ATOM     11  C   UNL     1       4.076   5.385  19.053  0.00  0.00    +0.000 A 
BRANCH  10  12
ATOM     12  O   UNL     1       5.902   3.976  18.750  0.00  0.00    +0.000 OA
BRANCH  12  13
ATOM     13  C   UNL     1       6.658   5.129  18.365  0.00  0.00    +0.000 C 
BRANCH  13  14
ATOM     14  C   UNL     1       5.938   5.916  17.269  0.00  0.00    +0.000 C 
BRANCH  14  15
ATOM     15  C   UNL     1       6.147   5.247  15.932  0.00  0.00    +0.000 A 
ATOM     16  C   UNL     1       5.149   4.454  15.366  0.00  0.00    +0.000 A 
ATOM     17  C   UNL     1       5.349   3.917  14.090  0.00  0.00    +0.000 A 
ATOM     18  C   UNL     1       6.536   4.184  13.421  0.00  0.00    +0.000 A 
ATOM     19 CL   UNL     1       6.814   3.558  11.847  0.00  0.00    +0.000 Cl
ATOM     20  C   UNL     1       7.478   4.978  14.052  0.00  0.00    +0.000 A 
ATOM     21  N   UNL     1       7.308   5.516  15.286  0.00  0.00    +0.000 NA
ENDBRANCH  14  15
ENDBRANCH  13  14
ENDBRANCH  12  13
ENDBRANCH  10  12
ENDBRANCH   2   5
BRANCH   3  22
ATOM     22  C   UNL     1       1.531   8.609  21.266  0.00  0.00    +0.000 C 
BRANCH  22  23
ATOM     23  C   UNL     1       0.010   8.812  21.129  0.00  0.00    +0.000 C 
ATOM     24  C   UNL     1      -0.359   9.867  20.069  0.00  0.00    +0.000 C 
ATOM     25  C   UNL     1      -0.068  11.289  20.544  0.00  0.00    +0.000 C 
ATOM     26  N   UNL     1      -0.777  11.522  21.804  0.00  0.00    +0.000 N 
ATOM     27  C   UNL     1      -0.396  10.637  22.905  0.00  0.00    +0.000 C 
ATOM     28  C   UNL     1      -0.630   9.179  22.484  0.00  0.00    +0.000 C 
BRANCH  26  29
ATOM     29  C   UNL     1      -1.735  12.511  21.941  0.00  0.00    +0.000 A 
ATOM     30  C   UNL     1      -1.997  13.125  23.172  0.00  0.00    +0.000 A 
ATOM     31  C   UNL     1      -2.962  14.122  23.265  0.00  0.00    +0.000 A 
ATOM     32  N   UNL     1      -3.695  14.559  22.225  0.00  0.00    +0.000 NA
ATOM     33  C   UNL     1      -3.447  13.964  21.044  0.00  0.00    +0.000 A 
ATOM     34  C   UNL     1      -2.499  12.963  20.860  0.00  0.00    +0.000 A 
ENDBRANCH  26  29
ENDBRANCH  22  23
ENDBRANCH   3  22
TORSDOF 8
ENDMDL
MODEL 4
REMARK VINA RESULT:      -8.2      3.809      6.433
REMARK  Name = 
REMARK  8 active torsions:
REMARK  status: ('A' for Active; 'I' for Inactive)
REMARK    1  A    between atoms: C_2  and  C_17
REMARK    2  A    between atoms: N_3  and  C_4
REMARK    3  A    between atoms: C_4  and  C_5
REMARK    4  A    between atoms: N_8  and  C_9
REMARK    5  A    between atoms: C_22  and  O_23
REMARK    6  A    between atoms: O_23  and  C_24
REMARK    7  A    between atoms: C_24  and  C_25
REMARK    8  A    between atoms: C_25  and  C_26
REMARK                            x       y       z     vdW  Elec       q    Type
REMARK                         _______ _______ _______ _____ _____    ______ ____
ROOT
ATOM      1  O   UNL     1       5.331   3.880  19.488  0.00  0.00    +0.000 OA
ATOM      2  C   UNL     1       4.847   3.733  18.372  0.00  0.00    +0.000 C 
ATOM      3  N   UNL     1       3.629   3.119  18.133  0.00  0.00    +0.000 N 
ATOM      4  H   UNL     1       3.367   2.891  17.183  0.00  0.00    +0.000 HD
ENDROOT
BRANCH   2   5
ATOM      5  C   UNL     1       5.581   4.221  17.171  0.00  0.00    +0.000 A 
ATOM      6  C   UNL     1       5.391   3.607  15.934  0.00  0.00    +0.000 A 
ATOM      7  C   UNL     1       6.117   4.047  14.828  0.00  0.00    +0.000 A 
ATOM      8  C   UNL     1       7.028   5.111  14.935  0.00  0.00    +0.000 A 
ATOM      9 CL   UNL     1       7.949   5.408  13.501  0.00  0.00    +0.000 Cl
ATOM     10  C   UNL     1       7.173   5.795  16.155  0.00  0.00    +0.000 A 
ATOM     11  C   UNL     1       6.448   5.324  17.272  0.00  0.00    +0.000 A 
BRANCH  10  12
ATOM     12  O   UNL     1       7.971   6.879  16.448  0.00  0.00    +0.000 OA
BRANCH  12  13
ATOM     13  C   UNL     1       7.754   7.552  17.692  0.00  0.00    +0.000 C 
BRANCH  13  14
ATOM     14  C   UNL     1       7.310   8.997  17.463  0.00  0.00    +0.000 C 
BRANCH  14  15
ATOM     15  C   UNL     1       8.293   9.947  18.104  0.00  0.00    +0.000 A 
ATOM     16  C   UNL     1       8.411  11.262  17.656  0.00  0.00    +0.000 A 
ATOM     17  C   UNL     1       9.276  12.134  18.327  0.00  0.00    +0.000 A 
ATOM     18  C   UNL     1       9.995  11.668  19.418  0.00  0.00    +0.000 A 
ATOM     19 CL   UNL     1      11.055  12.709  20.278  0.00  0.00    +0.000 Cl
ATOM     20  C   UNL     1       9.825  10.348  19.799  0.00  0.00    +0.000 A 
ATOM     21  N   UNL     1       8.990   9.482  19.170  0.00  0.00    +0.000 NA
ENDBRANCH  14  15
ENDBRANCH  13  14
ENDBRANCH  12  13
ENDBRANCH  10  12
ENDBRANCH   2   5
BRANCH   3  22
ATOM     22  C   UNL     1       2.807   2.568  19.199  0.00  0.00    +0.000 C 
BRANCH  22  23
ATOM     23  C   UNL     1       1.537   3.404  19.443  0.00  0.00    +0.000 C 
ATOM     24  C   UNL     1       1.255   4.408  18.309  0.00  0.00    +0.000 C 
ATOM     25  C   UNL     1       2.215   5.596  18.339  0.00  0.00    +0.000 C 
ATOM     26  N   UNL     1       2.138   6.234  19.655  0.00  0.00    +0.000 N 
ATOM     27  C   UNL     1       2.509   5.381  20.783  0.00  0.00    +0.000 C 
ATOM     28  C   UNL     1       1.604   4.141  20.797  0.00  0.00    +0.000 C 
BRANCH  26  29
ATOM     29  C   UNL     1       1.747   7.552  19.815  0.00  0.00    +0.000 A 
ATOM     30  C   UNL     1       1.804   8.476  18.764  0.00  0.00    +0.000 A 
ATOM     31  C   UNL     1       1.392   9.789  18.965  0.00  0.00    +0.000 A 
ATOM     32  N   UNL     1       0.929  10.262  20.136  0.00  0.00    +0.000 NA
ATOM     33  C   UNL     1       0.881   9.375  21.147  0.00  0.00    +0.000 A 
ATOM     34  C   UNL     1       1.267   8.044  21.034  0.00  0.00    +0.000 A 
ENDBRANCH  26  29
ENDBRANCH  22  23
ENDBRANCH   3  22
TORSDOF 8
ENDMDL
MODEL 5
REMARK VINA RESULT:      -8.2      2.181      2.881
REMARK  Name = 
REMARK  8 active torsions:
REMARK  status: ('A' for Active; 'I' for Inactive)
REMARK    1  A    between atoms: C_2  and  C_17
REMARK    2  A    between atoms: N_3  and  C_4
REMARK    3  A    between atoms: C_4  and  C_5
REMARK    4  A    between atoms: N_8  and  C_9
REMARK    5  A    between atoms: C_22  and  O_23
REMARK    6  A    between atoms: O_23  and  C_24
REMARK    7  A    between atoms: C_24  and  C_25
REMARK    8  A    between atoms: C_25  and  C_26
REMARK                            x       y       z     vdW  Elec       q    Type
REMARK                         _______ _______ _______ _____ _____    ______ ____
ROOT
ATOM      1  O   UNL     1       3.166   8.402  17.833  0.00  0.00    +0.000 OA
ATOM      2  C   UNL     1       2.383   7.991  18.681  0.00  0.00    +0.000 C 
ATOM      3  N   UNL     1       1.356   8.749  19.215  0.00  0.00    +0.000 N 
ATOM      4  H   UNL     1       0.850   8.402  20.020  0.00  0.00    +0.000 HD
ENDROOT
BRANCH   2   5
ATOM      5  C   UNL     1       2.511   6.601  19.202  0.00  0.00    +0.000 A 
ATOM      6  C   UNL     1       1.853   6.226  20.373  0.00  0.00    +0.000 A 
ATOM      7  C   UNL     1       2.017   4.935  20.871  0.00  0.00    +0.000 A 
ATOM      8  C   UNL     1       2.822   3.997  20.204  0.00  0.00    +0.000 A 
ATOM      9 CL   UNL     1       3.033   2.505  21.054  0.00  0.00    +0.000 Cl
ATOM     10  C   UNL     1       3.428   4.331  18.979  0.00  0.00    +0.000 A 
ATOM     11  C   UNL     1       3.272   5.649  18.499  0.00  0.00    +0.000 A 
BRANCH  10  12
ATOM     12  O   UNL     1       4.208   3.546  18.159  0.00  0.00    +0.000 OA
BRANCH  12  13
ATOM     13  C   UNL     1       4.433   3.996  16.819  0.00  0.00    +0.000 C 
BRANCH  13  14
ATOM     14  C   UNL     1       5.926   4.015  16.490  0.00  0.00    +0.000 C 
BRANCH  14  15
ATOM     15  C   UNL     1       6.575   5.230  17.108  0.00  0.00    +0.000 A 
ATOM     16  C   UNL     1       7.302   5.126  18.293  0.00  0.00    +0.000 A 
ATOM     17  C   UNL     1       7.955   6.259  18.792  0.00  0.00    +0.000 A 
ATOM     18  C   UNL     1       7.860   7.457  18.097  0.00  0.00    +0.000 A 
ATOM     19 CL   UNL     1       8.658   8.866  18.666  0.00  0.00    +0.000 Cl
ATOM     20  C   UNL     1       7.116   7.478  16.930  0.00  0.00    +0.000 A 
ATOM     21  N   UNL     1       6.477   6.394  16.420  0.00  0.00    +0.000 NA
ENDBRANCH  14  15
ENDBRANCH  13  14
ENDBRANCH  12  13
ENDBRANCH  10  12
ENDBRANCH   2   5
BRANCH   3  22
ATOM     22  C   UNL     1       1.118  10.131  18.829  0.00  0.00    +0.000 C 
BRANCH  22  23
ATOM     23  C   UNL     1      -0.342  10.558  19.073  0.00  0.00    +0.000 C 
ATOM     24  C   UNL     1      -0.592  12.043  18.749  0.00  0.00    +0.000 C 
ATOM     25  C   UNL     1       0.006  12.972  19.804  0.00  0.00    +0.000 C 
ATOM     26  N   UNL     1      -0.534  12.608  21.116  0.00  0.00    +0.000 N 
ATOM     27  C   UNL     1      -0.237  11.245  21.555  0.00  0.00    +0.000 C 
ATOM     28  C   UNL     1      -0.781  10.251  20.519  0.00  0.00    +0.000 C 
BRANCH  26  29
ATOM     29  C   UNL     1      -1.269  13.495  21.884  0.00  0.00    +0.000 A 
ATOM     30  C   UNL     1      -1.011  13.686  23.247  0.00  0.00    +0.000 A 
ATOM     31  C   UNL     1      -1.767  14.594  23.980  0.00  0.00    +0.000 A 
ATOM     32  N   UNL     1      -2.769  15.329  23.465  0.00  0.00    +0.000 NA
ATOM     33  C   UNL     1      -3.021  15.139  22.156  0.00  0.00    +0.000 A 
ATOM     34  C   UNL     1      -2.312  14.257  21.348  0.00  0.00    +0.000 A 
ENDBRANCH  26  29
ENDBRANCH  22  23
ENDBRANCH   3  22
TORSDOF 8
ENDMDL
MODEL 6
REMARK VINA RESULT:      -8.1      1.796      2.461
REMARK  Name = 
REMARK  8 active torsions:
REMARK  status: ('A' for Active; 'I' for Inactive)
REMARK    1  A    between atoms: C_2  and  C_17
REMARK    2  A    between atoms: N_3  and  C_4
REMARK    3  A    between atoms: C_4  and  C_5
REMARK    4  A    between atoms: N_8  and  C_9
REMARK    5  A    between atoms: C_22  and  O_23
REMARK    6  A    between atoms: O_23  and  C_24
REMARK    7  A    between atoms: C_24  and  C_25
REMARK    8  A    between atoms: C_25  and  C_26
REMARK                            x       y       z     vdW  Elec       q    Type
REMARK                         _______ _______ _______ _____ _____    ______ ____
ROOT
ATOM      1  O   UNL     1       2.737   8.297  17.226  0.00  0.00    +0.000 OA
ATOM      2  C   UNL     1       2.170   8.133  18.298  0.00  0.00    +0.000 C 
ATOM      3  N   UNL     1       1.561   9.149  19.013  0.00  0.00    +0.000 N 
ATOM      4  H   UNL     1       1.252   8.974  19.961  0.00  0.00    +0.000 HD
ENDROOT
BRANCH   2   5
ATOM      5  C   UNL     1       2.114   6.776  18.912  0.00  0.00    +0.000 A 
ATOM      6  C   UNL     1       1.853   6.631  20.274  0.00  0.00    +0.000 A 
ATOM      7  C   UNL     1       1.846   5.358  20.842  0.00  0.00    +0.000 A 
ATOM      8  C   UNL     1       2.083   4.215  20.061  0.00  0.00    +0.000 A 
ATOM      9 CL   UNL     1       2.194   2.744  20.966  0.00  0.00    +0.000 Cl
ATOM     10  C   UNL     1       2.268   4.334  18.672  0.00  0.00    +0.000 A 
ATOM     11  C   UNL     1       2.294   5.631  18.115  0.00  0.00    +0.000 A 
BRANCH  10  12
ATOM     12  O   UNL     1       2.465   3.341  17.739  0.00  0.00    +0.000 OA
BRANCH  12  13
ATOM     13  C   UNL     1       3.772   2.767  17.639  0.00  0.00    +0.000 C 
BRANCH  13  14
ATOM     14  C   UNL     1       4.850   3.796  17.981  0.00  0.00    +0.000 C 
BRANCH  14  15
ATOM     15  C   UNL     1       5.578   4.216  16.727  0.00  0.00    +0.000 A 
ATOM     16  C   UNL     1       6.897   4.665  16.783  0.00  0.00    +0.000 A 
ATOM     17  C   UNL     1       7.563   4.969  15.590  0.00  0.00    +0.000 A 
ATOM     18  C   UNL     1       6.894   4.819  14.384  0.00  0.00    +0.000 A 
ATOM     19 CL   UNL     1       7.680   5.166  12.897  0.00  0.00    +0.000 Cl
ATOM     20  C   UNL     1       5.585   4.371  14.413  0.00  0.00    +0.000 A 
ATOM     21  N   UNL     1       4.916   4.063  15.553  0.00  0.00    +0.000 NA
ENDBRANCH  14  15
ENDBRANCH  13  14
ENDBRANCH  12  13
ENDBRANCH  10  12
ENDBRANCH   2   5
BRANCH   3  22
ATOM     22  C   UNL     1       1.553  10.531  18.560  0.00  0.00    +0.000 C 
BRANCH  22  23
ATOM     23  C   UNL     1       0.158  11.173  18.679  0.00  0.00    +0.000 C 
ATOM     24  C   UNL     1       0.216  12.656  19.091  0.00  0.00    +0.000 C 
ATOM     25  C   UNL     1       0.580  12.832  20.564  0.00  0.00    +0.000 C 
ATOM     26  N   UNL     1      -0.378  12.083  21.381  0.00  0.00    +0.000 N 
ATOM     27  C   UNL     1      -0.411  10.641  21.137  0.00  0.00    +0.000 C 
ATOM     28  C   UNL     1      -0.738  10.387  19.659  0.00  0.00    +0.000 C 
BRANCH  26  29
ATOM     29  C   UNL     1      -1.189  12.698  22.318  0.00  0.00    +0.000 A 
ATOM     30  C   UNL     1      -0.848  13.922  22.906  0.00  0.00    +0.000 A 
ATOM     31  C   UNL     1      -1.696  14.511  23.838  0.00  0.00    +0.000 A 
ATOM     32  N   UNL     1      -2.863  13.975  24.239  0.00  0.00    +0.000 NA
ATOM     33  C   UNL     1      -3.187  12.795  23.678  0.00  0.00    +0.000 A 
ATOM     34  C   UNL     1      -2.402  12.139  22.736  0.00  0.00    +0.000 A 
ENDBRANCH  26  29
ENDBRANCH  22  23
ENDBRANCH   3  22
TORSDOF 8
ENDMDL
MODEL 7
REMARK VINA RESULT:      -8.0      1.970      2.432
REMARK  Name = 
REMARK  8 active torsions:
REMARK  status: ('A' for Active; 'I' for Inactive)
REMARK    1  A    between atoms: C_2  and  C_17
REMARK    2  A    between atoms: N_3  and  C_4
REMARK    3  A    between atoms: C_4  and  C_5
REMARK    4  A    between atoms: N_8  and  C_9
REMARK    5  A    between atoms: C_22  and  O_23
REMARK    6  A    between atoms: O_23  and  C_24
REMARK    7  A    between atoms: C_24  and  C_25
REMARK    8  A    between atoms: C_25  and  C_26
REMARK                            x       y       z     vdW  Elec       q    Type
REMARK                         _______ _______ _______ _____ _____    ______ ____
ROOT
ATOM      1  O   UNL     1       1.716   7.898  18.610  0.00  0.00    +0.000 OA
ATOM      2  C   UNL     1       1.970   7.076  19.482  0.00  0.00    +0.000 C 
ATOM      3  N   UNL     1       1.936   7.352  20.837  0.00  0.00    +0.000 N 
ATOM      4  H   UNL     1       2.309   6.676  21.491  0.00  0.00    +0.000 HD
ENDROOT
BRANCH   2   5
ATOM      5  C   UNL     1       2.349   5.685  19.106  0.00  0.00    +0.000 A 
ATOM      6  C   UNL     1       1.945   4.609  19.895  0.00  0.00    +0.000 A 
ATOM      7  C   UNL     1       2.343   3.317  19.555  0.00  0.00    +0.000 A 
ATOM      8  C   UNL     1       3.134   3.078  18.419  0.00  0.00    +0.000 A 
ATOM      9 CL   UNL     1       3.661   1.439  18.249  0.00  0.00    +0.000 Cl
ATOM     10  C   UNL     1       3.484   4.140  17.566  0.00  0.00    +0.000 A 
ATOM     11  C   UNL     1       3.092   5.445  17.936  0.00  0.00    +0.000 A 
BRANCH  10  12
ATOM     12  O   UNL     1       4.206   4.105  16.394  0.00  0.00    +0.000 OA
BRANCH  12  13
ATOM     13  C   UNL     1       5.629   3.980  16.488  0.00  0.00    +0.000 C 
BRANCH  13  14
ATOM     14  C   UNL     1       6.117   4.323  17.896  0.00  0.00    +0.000 C 
BRANCH  14  15
ATOM     15  C   UNL     1       6.785   5.677  17.894  0.00  0.00    +0.000 A 
ATOM     16  C   UNL     1       6.337   6.694  17.051  0.00  0.00    +0.000 A 
ATOM     17  C   UNL     1       6.930   7.958  17.136  0.00  0.00    +0.000 A 
ATOM     18  C   UNL     1       7.949   8.168  18.055  0.00  0.00    +0.000 A 
ATOM     19 CL   UNL     1       8.692   9.708  18.202  0.00  0.00    +0.000 Cl
ATOM     20  C   UNL     1       8.339   7.107  18.854  0.00  0.00    +0.000 A 
ATOM     21  N   UNL     1       7.778   5.872  18.796  0.00  0.00    +0.000 NA
ENDBRANCH  14  15
ENDBRANCH  13  14
ENDBRANCH  12  13
ENDBRANCH  10  12
ENDBRANCH   2   5
BRANCH   3  22
ATOM     22  C   UNL     1       1.610   8.669  21.361  0.00  0.00    +0.000 C 
BRANCH  22  23
ATOM     23  C   UNL     1       0.139   9.047  21.105  0.00  0.00    +0.000 C 
ATOM     24  C   UNL     1      -0.017  10.431  20.446  0.00  0.00    +0.000 C 
ATOM     25  C   UNL     1       0.254  11.570  21.426  0.00  0.00    +0.000 C 
ATOM     26  N   UNL     1      -0.633  11.421  22.582  0.00  0.00    +0.000 N 
ATOM     27  C   UNL     1      -0.465  10.181  23.340  0.00  0.00    +0.000 C 
ATOM     28  C   UNL     1      -0.690   8.985  22.405  0.00  0.00    +0.000 C 
BRANCH  26  29
ATOM     29  C   UNL     1      -1.559  12.388  22.932  0.00  0.00    +0.000 A 
ATOM     30  C   UNL     1      -2.899  12.074  23.192  0.00  0.00    +0.000 A 
ATOM     31  C   UNL     1      -3.795  13.075  23.549  0.00  0.00    +0.000 A 
ATOM     32  N   UNL     1      -3.466  14.374  23.666  0.00  0.00    +0.000 NA
ATOM     33  C   UNL     1      -2.180  14.677  23.409  0.00  0.00    +0.000 A 
ATOM     34  C   UNL     1      -1.217  13.740  23.051  0.00  0.00    +0.000 A 
ENDBRANCH  26  29
ENDBRANCH  22  23
ENDBRANCH   3  22
TORSDOF 8
ENDMDL
MODEL 8
REMARK VINA RESULT:      -8.0      2.151      2.936
REMARK  Name = 
REMARK  8 active torsions:
REMARK  status: ('A' for Active; 'I' for Inactive)
REMARK    1  A    between atoms: C_2  and  C_17
REMARK    2  A    between atoms: N_3  and  C_4
REMARK    3  A    between atoms: C_4  and  C_5
REMARK    4  A    between atoms: N_8  and  C_9
REMARK    5  A    between atoms: C_22  and  O_23
REMARK    6  A    between atoms: O_23  and  C_24
REMARK    7  A    between atoms: C_24  and  C_25
REMARK    8  A    between atoms: C_25  and  C_26
REMARK                            x       y       z     vdW  Elec       q    Type
REMARK                         _______ _______ _______ _____ _____    ______ ____
ROOT
ATOM      1  O   UNL     1       2.332   8.867  17.272  0.00  0.00    +0.000 OA
ATOM      2  C   UNL     1       1.922   8.562  18.385  0.00  0.00    +0.000 C 
ATOM      3  N   UNL     1       1.311   9.450  19.253  0.00  0.00    +0.000 N 
ATOM      4  H   UNL     1       1.143   9.171  20.211  0.00  0.00    +0.000 HD
ENDROOT
BRANCH   2   5
ATOM      5  C   UNL     1       2.077   7.165  18.880  0.00  0.00    +0.000 A 
ATOM      6  C   UNL     1       1.856   6.867  20.223  0.00  0.00    +0.000 A 
ATOM      7  C   UNL     1       2.046   5.563  20.679  0.00  0.00    +0.000 A 
ATOM      8  C   UNL     1       2.443   4.539  19.804  0.00  0.00    +0.000 A 
ATOM      9 CL   UNL     1       2.783   3.030  20.579  0.00  0.00    +0.000 Cl
ATOM     10  C   UNL     1       2.592   4.803  18.430  0.00  0.00    +0.000 A 
ATOM     11  C   UNL     1       2.418   6.132  17.987  0.00  0.00    +0.000 A 
BRANCH  10  12
ATOM     12  O   UNL     1       2.926   3.935  17.415  0.00  0.00    +0.000 OA
BRANCH  12  13
ATOM     13  C   UNL     1       4.198   3.283  17.483  0.00  0.00    +0.000 C 
BRANCH  13  14
ATOM     14  C   UNL     1       5.154   3.835  16.425  0.00  0.00    +0.000 C 
BRANCH  14  15
ATOM     15  C   UNL     1       5.959   4.975  17.002  0.00  0.00    +0.000 A 
ATOM     16  C   UNL     1       6.958   4.739  17.946  0.00  0.00    +0.000 A 
ATOM     17  C   UNL     1       7.735   5.811  18.397  0.00  0.00    +0.000 A 
ATOM     18  C   UNL     1       7.491   7.082  17.895  0.00  0.00    +0.000 A 
ATOM     19 CL   UNL     1       8.432   8.422  18.410  0.00  0.00    +0.000 Cl
ATOM     20  C   UNL     1       6.479   7.235  16.963  0.00  0.00    +0.000 A 
ATOM     21  N   UNL     1       5.714   6.212  16.504  0.00  0.00    +0.000 NA
ENDBRANCH  14  15
ENDBRANCH  13  14
ENDBRANCH  12  13
ENDBRANCH  10  12
ENDBRANCH   2   5
BRANCH   3  22
ATOM     22  C   UNL     1       1.111  10.853  18.927  0.00  0.00    +0.000 C 
BRANCH  22  23
ATOM     23  C   UNL     1       1.216  11.759  20.169  0.00  0.00    +0.000 C 
ATOM     24  C   UNL     1       0.641  11.101  21.437  0.00  0.00    +0.000 C 
ATOM     25  C   UNL     1      -0.886  11.057  21.422  0.00  0.00    +0.000 C 
ATOM     26  N   UNL     1      -1.397  12.418  21.241  0.00  0.00    +0.000 N 
ATOM     27  C   UNL     1      -0.995  13.073  19.997  0.00  0.00    +0.000 C 
ATOM     28  C   UNL     1       0.538  13.123  19.926  0.00  0.00    +0.000 C 
BRANCH  26  29
ATOM     29  C   UNL     1      -2.206  13.034  22.180  0.00  0.00    +0.000 A 
ATOM     30  C   UNL     1      -3.515  12.604  22.428  0.00  0.00    +0.000 A 
ATOM     31  C   UNL     1      -4.292  13.245  23.387  0.00  0.00    +0.000 A 
ATOM     32  N   UNL     1      -3.871  14.290  24.122  0.00  0.00    +0.000 NA
ATOM     33  C   UNL     1      -2.615  14.708  23.877  0.00  0.00    +0.000 A 
ATOM     34  C   UNL     1      -1.768  14.123  22.941  0.00  0.00    +0.000 A 
ENDBRANCH  26  29
ENDBRANCH  22  23
ENDBRANCH   3  22
TORSDOF 8
ENDMDL
MODEL 9
REMARK VINA RESULT:      -8.0      2.065      2.616
REMARK  Name = 
REMARK  8 active torsions:
REMARK  status: ('A' for Active; 'I' for Inactive)
REMARK    1  A    between atoms: C_2  and  C_17
REMARK    2  A    between atoms: N_3  and  C_4
REMARK    3  A    between atoms: C_4  and  C_5
REMARK    4  A    between atoms: N_8  and  C_9
REMARK    5  A    between atoms: C_22  and  O_23
REMARK    6  A    between atoms: O_23  and  C_24
REMARK    7  A    between atoms: C_24  and  C_25
REMARK    8  A    between atoms: C_25  and  C_26
REMARK                            x       y       z     vdW  Elec       q    Type
REMARK                         _______ _______ _______ _____ _____    ______ ____
ROOT
ATOM      1  O   UNL     1       2.219   7.963  18.669  0.00  0.00    +0.000 OA
ATOM      2  C   UNL     1       2.134   7.202  19.626  0.00  0.00    +0.000 C 
ATOM      3  N   UNL     1       1.693   7.585  20.881  0.00  0.00    +0.000 N 
ATOM      4  H   UNL     1       1.799   6.948  21.659  0.00  0.00    +0.000 HD
ENDROOT
BRANCH   2   5
ATOM      5  C   UNL     1       2.525   5.772  19.477  0.00  0.00    +0.000 A 
ATOM      6  C   UNL     1       2.419   4.898  20.558  0.00  0.00    +0.000 A 
ATOM      7  C   UNL     1       2.828   3.574  20.416  0.00  0.00    +0.000 A 
ATOM      8  C   UNL     1       3.334   3.098  19.195  0.00  0.00    +0.000 A 
ATOM      9 CL   UNL     1       3.939   1.478  19.256  0.00  0.00    +0.000 Cl
ATOM     10  C   UNL     1       3.373   3.942  18.071  0.00  0.00    +0.000 A 
ATOM     11  C   UNL     1       2.975   5.287  18.236  0.00  0.00    +0.000 A 
BRANCH  10  12
ATOM     12  O   UNL     1       3.785   3.655  16.789  0.00  0.00    +0.000 OA
BRANCH  12  13
ATOM     13  C   UNL     1       4.805   4.478  16.213  0.00  0.00    +0.000 C 
BRANCH  13  14
ATOM     14  C   UNL     1       6.187   4.082  16.734  0.00  0.00    +0.000 C 
BRANCH  14  15
ATOM     15  C   UNL     1       6.913   5.302  17.250  0.00  0.00    +0.000 A 
ATOM     16  C   UNL     1       6.923   6.489  16.519  0.00  0.00    +0.000 A 
ATOM     17  C   UNL     1       7.538   7.620  17.066  0.00  0.00    +0.000 A 
ATOM     18  C   UNL     1       8.124   7.531  18.322  0.00  0.00    +0.000 A 
ATOM     19 CL   UNL     1       8.876   8.899  19.036  0.00  0.00    +0.000 Cl
ATOM     20  C   UNL     1       8.074   6.316  18.982  0.00  0.00    +0.000 A 
ATOM     21  N   UNL     1       7.480   5.205  18.478  0.00  0.00    +0.000 NA
ENDBRANCH  14  15
ENDBRANCH  13  14
ENDBRANCH  12  13
ENDBRANCH  10  12
ENDBRANCH   2   5
BRANCH   3  22
ATOM     22  C   UNL     1       1.301   8.951  21.191  0.00  0.00    +0.000 C 
BRANCH  22  23
ATOM     23  C   UNL     1      -0.227   9.142  21.140  0.00  0.00    +0.000 C 
ATOM     24  C   UNL     1      -0.677  10.045  19.977  0.00  0.00    +0.000 C 
ATOM     25  C   UNL     1      -0.359  11.517  20.233  0.00  0.00    +0.000 C 
ATOM     26  N   UNL     1      -0.975  11.921  21.499  0.00  0.00    +0.000 N 
ATOM     27  C   UNL     1      -0.509  11.191  22.678  0.00  0.00    +0.000 C 
ATOM     28  C   UNL     1      -0.767   9.692  22.477  0.00  0.00    +0.000 C 
BRANCH  26  29
ATOM     29  C   UNL     1      -1.924  12.925  21.571  0.00  0.00    +0.000 A 
ATOM     30  C   UNL     1      -1.715  14.187  21.002  0.00  0.00    +0.000 A 
ATOM     31  C   UNL     1      -2.699  15.166  21.090  0.00  0.00    +0.000 A 
ATOM     32  N   UNL     1      -3.882  14.991  21.706  0.00  0.00    +0.000 NA
ATOM     33  C   UNL     1      -4.080  13.780  22.259  0.00  0.00    +0.000 A 
ATOM     34  C   UNL     1      -3.153  12.743  22.215  0.00  0.00    +0.000 A 
ENDBRANCH  26  29
ENDBRANCH  22  23
ENDBRANCH   3  22
TORSDOF 8
ENDMDL
