MODEL 1
REMARK VINA RESULT:      -8.4      0.000      0.000
REMARK  Name = 
REMARK  12 active torsions:
REMARK  status: ('A' for Active; 'I' for Inactive)
REMARK    1  A    between atoms: C_1  and  O_2
REMARK    2  A    between atoms: O_2  and  C_3
REMARK    3  A    between atoms: C_3  and  C_4
REMARK    4  A    between atoms: C_4  and  N_5
REMARK    5  A    between atoms: N_5  and  C_6
REMARK    6  A    between atoms: C_6  and  C_7
REMARK    7  A    between atoms: C_10  and  C_11
REMARK    8  A    between atoms: C_15  and  C_16
REMARK    9  A    between atoms: C_16  and  N_17
REMARK   10  A    between atoms: N_17  and  C_18
REMARK   11  A    between atoms: N_21  and  C_22
REMARK   12  A    between atoms: C_22  and  C_23
REMARK                            x       y       z     vdW  Elec       q    Type
REMARK                         _______ _______ _______ _____ _____    ______ ____
ROOT
ATOM      1  C   UNL     1       1.128   8.744  20.374  0.00  0.00    +0.000 A 
ATOM      2  C   UNL     1       1.664   8.968  19.095  0.00  0.00    +0.000 A 
ATOM      3  C   UNL     1       2.323   7.953  18.400  0.00  0.00    +0.000 A 
ATOM      4  C   UNL     1       2.442   6.682  18.965  0.00  0.00    +0.000 A 
ATOM      5  C   UNL     1       1.899   6.408  20.226  0.00  0.00    +0.000 A 
ATOM      6  C   UNL     1       1.267   7.450  20.921  0.00  0.00    +0.000 A 
ENDROOT
BRANCH   1  10
ATOM      7  C   UNL     1      -0.867  11.889  22.558  0.00  0.00    +0.000 A 
ATOM      8  C   UNL     1      -0.203  12.162  21.355  0.00  0.00    +0.000 A 
ATOM      9  C   UNL     1       0.450  11.144  20.659  0.00  0.00    +0.000 A 
ATOM     10  C   UNL     1       0.462   9.822  21.136  0.00  0.00    +0.000 A 
ATOM     11  C   UNL     1      -0.201   9.564  22.345  0.00  0.00    +0.000 A 
ATOM     12  C   UNL     1      -0.856  10.579  23.047  0.00  0.00    +0.000 A 
BRANCH   7  13
ATOM     13  C   UNL     1      -1.569  12.986  23.320  0.00  0.00    +0.000 C 
BRANCH  13  14
ATOM     14  N   UNL     1      -2.682  13.529  22.547  0.00  0.00    +0.000 NA
ATOM     15  H   UNL     1      -2.831  14.498  22.814  0.00  0.00    +0.000 HD
BRANCH  14  16
ATOM     16  C   UNL     1      -3.909  12.766  22.785  0.00  0.00    +0.000 C 
BRANCH  16  17
ATOM     17  C   UNL     1      -4.738  12.697  21.499  0.00  0.00    +0.000 C 
BRANCH  17  19
ATOM     18  C   UNL     1      -7.021  12.530  20.981  0.00  0.00    +0.000 C 
ATOM     19  O   UNL     1      -5.956  12.003  21.764  0.00  0.00    +0.000 OA
ENDBRANCH  17  19
ENDBRANCH  16  17
ENDBRANCH  14  16
ENDBRANCH  13  14
ENDBRANCH   7  13
ENDBRANCH   1  10
BRANCH   5  20
ATOM     20  C   UNL     1       2.082   5.037  20.853  0.00  0.00    +0.000 C 
BRANCH  20  21
ATOM     21  N   UNL     1       1.367   3.985  20.124  0.00  0.00    +0.000 NA
ATOM     22  H   UNL     1       1.187   4.314  19.178  0.00  0.00    +0.000 HD
BRANCH  21  23
ATOM     23  C   UNL     1       2.071   2.691  20.105  0.00  0.00    +0.000 C 
ATOM     24  C   UNL     1       3.590   2.765  20.283  0.00  0.00    +0.000 C 
ATOM     25  C   UNL     1       4.291   3.463  19.118  0.00  0.00    +0.000 C 
ATOM     26  N   UNL     1       3.918   2.983  17.776  0.00  0.00    +0.000 NA
ATOM     27  C   UNL     1       2.478   2.719  17.602  0.00  0.00    +0.000 C 
ATOM     28  C   UNL     1       1.821   1.983  18.769  0.00  0.00    +0.000 C 
BRANCH  26  29
ATOM     29  C   UNL     1       4.340   3.961  16.744  0.00  0.00    +0.000 C 
BRANCH  29  30
ATOM     30  C   UNL     1       5.440   4.911  17.168  0.00  0.00    +0.000 A 
ATOM     31  C   UNL     1       6.614   4.429  17.755  0.00  0.00    +0.000 A 
ATOM     32  C   UNL     1       7.654   5.298  18.085  0.00  0.00    +0.000 A 
ATOM     33  C   UNL     1       7.531   6.663  17.829  0.00  0.00    +0.000 A 
ATOM     34  C   UNL     1       6.361   7.160  17.257  0.00  0.00    +0.000 A 
ATOM     35  C   UNL     1       5.319   6.291  16.928  0.00  0.00    +0.000 A 
ENDBRANCH  29  30
ENDBRANCH  26  29
ENDBRANCH  21  23
ENDBRANCH  20  21
ENDBRANCH   5  20
TORSDOF 11
ENDMDL
MODEL 2
REMARK VINA RESULT:      -8.2      0.734      1.166
REMARK  Name = 
REMARK  12 active torsions:
REMARK  status: ('A' for Active; 'I' for Inactive)
REMARK    1  A    between atoms: C_1  and  O_2
REMARK    2  A    between atoms: O_2  and  C_3
REMARK    3  A    between atoms: C_3  and  C_4
REMARK    4  A    between atoms: C_4  and  N_5
REMARK    5  A    between atoms: N_5  and  C_6
REMARK    6  A    between atoms: C_6  and  C_7
REMARK    7  A    between atoms: C_10  and  C_11
REMARK    8  A    between atoms: C_15  and  C_16
REMARK    9  A    between atoms: C_16  and  N_17
REMARK   10  A    between atoms: N_17  and  C_18
REMARK   11  A    between atoms: N_21  and  C_22
REMARK   12  A    between atoms: C_22  and  C_23
REMARK                            x       y       z     vdW  Elec       q    Type
REMARK                         _______ _______ _______ _____ _____    ______ ____
ROOT
ATOM      1  C   UNL     1       1.136   8.674  20.394  0.00  0.00    +0.000 A 
ATOM      2  C   UNL     1       1.666   8.909  19.114  0.00  0.00    +0.000 A 
ATOM      3  C   UNL     1       2.338   7.906  18.415  0.00  0.00    +0.000 A 
ATOM      4  C   UNL     1       2.476   6.635  18.977  0.00  0.00    +0.000 A 
ATOM      5  C   UNL     1       1.940   6.350  20.238  0.00  0.00    +0.000 A 
ATOM      6  C   UNL     1       1.295   7.381  20.937  0.00  0.00    +0.000 A 
ENDROOT
BRANCH   1  10
ATOM      7  C   UNL     1      -0.899  11.787  22.588  0.00  0.00    +0.000 A 
ATOM      8  C   UNL     1      -0.199  12.080  21.410  0.00  0.00    +0.000 A 
ATOM      9  C   UNL     1       0.466  11.073  20.711  0.00  0.00    +0.000 A 
ATOM     10  C   UNL     1       0.455   9.741  21.159  0.00  0.00    +0.000 A 
ATOM     11  C   UNL     1      -0.243   9.462  22.343  0.00  0.00    +0.000 A 
ATOM     12  C   UNL     1      -0.911  10.466  23.048  0.00  0.00    +0.000 A 
BRANCH   7  13
ATOM     13  C   UNL     1      -1.615  12.872  23.353  0.00  0.00    +0.000 C 
BRANCH  13  14
ATOM     14  N   UNL     1      -2.529  13.607  22.484  0.00  0.00    +0.000 NA
ATOM     15  H   UNL     1      -2.732  14.511  22.903  0.00  0.00    +0.000 HD
BRANCH  14  16
ATOM     16  C   UNL     1      -3.780  12.870  22.292  0.00  0.00    +0.000 C 
BRANCH  16  17
ATOM     17  C   UNL     1      -4.333  13.139  20.891  0.00  0.00    +0.000 C 
BRANCH  17  19
ATOM     18  C   UNL     1      -4.459  11.993  18.846  0.00  0.00    +0.000 C 
ATOM     19  O   UNL     1      -3.626  12.338  19.946  0.00  0.00    +0.000 OA
ENDBRANCH  17  19
ENDBRANCH  16  17
ENDBRANCH  14  16
ENDBRANCH  13  14
ENDBRANCH   7  13
ENDBRANCH   1  10
BRANCH   5  20
ATOM     20  C   UNL     1       2.145   4.980  20.861  0.00  0.00    +0.000 C 
BRANCH  20  21
ATOM     21  N   UNL     1       1.449   3.919  20.128  0.00  0.00    +0.000 NA
ATOM     22  H   UNL     1       1.237   4.260  19.192  0.00  0.00    +0.000 HD
BRANCH  21  23
ATOM     23  C   UNL     1       2.193   2.650  20.070  0.00  0.00    +0.000 C 
ATOM     24  C   UNL     1       3.712   2.769  20.222  0.00  0.00    +0.000 C 
ATOM     25  C   UNL     1       4.368   3.513  19.059  0.00  0.00    +0.000 C 
ATOM     26  N   UNL     1       3.986   3.047  17.714  0.00  0.00    +0.000 NA
ATOM     27  C   UNL     1       2.552   2.740  17.561  0.00  0.00    +0.000 C 
ATOM     28  C   UNL     1       1.941   1.961  18.724  0.00  0.00    +0.000 C 
BRANCH  26  29
ATOM     29  C   UNL     1       4.356   4.060  16.695  0.00  0.00    +0.000 C 
BRANCH  29  30
ATOM     30  C   UNL     1       5.503   4.971  17.079  0.00  0.00    +0.000 A 
ATOM     31  C   UNL     1       5.424   6.350  16.862  0.00  0.00    +0.000 A 
ATOM     32  C   UNL     1       6.453   7.196  17.277  0.00  0.00    +0.000 A 
ATOM     33  C   UNL     1       7.576   6.669  17.915  0.00  0.00    +0.000 A 
ATOM     34  C   UNL     1       7.675   5.295  18.125  0.00  0.00    +0.000 A 
ATOM     35  C   UNL     1       6.646   4.448  17.709  0.00  0.00    +0.000 A 
ENDBRANCH  29  30
ENDBRANCH  26  29
ENDBRANCH  21  23
ENDBRANCH  20  21
ENDBRANCH   5  20
TORSDOF 11
ENDMDL
MODEL 3
REMARK VINA RESULT:      -8.1      1.055      1.584
REMARK  Name = 
REMARK  12 active torsions:
REMARK  status: ('A' for Active; 'I' for Inactive)
REMARK    1  A    between atoms: C_1  and  O_2
REMARK    2  A    between atoms: O_2  and  C_3
REMARK    3  A    between atoms: C_3  and  C_4
REMARK    4  A    between atoms: C_4  and  N_5
REMARK    5  A    between atoms: N_5  and  C_6
REMARK    6  A    between atoms: C_6  and  C_7
REMARK    7  A    between atoms: C_10  and  C_11
REMARK    8  A    between atoms: C_15  and  C_16
REMARK    9  A    between atoms: C_16  and  N_17
REMARK   10  A    between atoms: N_17  and  C_18
REMARK   11  A    between atoms: N_21  and  C_22
REMARK   12  A    between atoms: C_22  and  C_23
REMARK                            x       y       z     vdW  Elec       q    Type
REMARK                         _______ _______ _______ _____ _____    ______ ____
ROOT
ATOM      1  C   UNL     1       1.039   8.929  20.041  0.00  0.00    +0.000 A 
ATOM      2  C   UNL     1       1.536   9.302  18.780  0.00  0.00    +0.000 A 
ATOM      3  C   UNL     1       2.330   8.434  18.031  0.00  0.00    +0.000 A 
ATOM      4  C   UNL     1       2.627   7.160  18.521  0.00  0.00    +0.000 A 
ATOM      5  C   UNL     1       2.131   6.738  19.759  0.00  0.00    +0.000 A 
ATOM      6  C   UNL     1       1.359   7.637  20.511  0.00  0.00    +0.000 A 
ENDROOT
BRANCH   1  10
ATOM      7  C   UNL     1      -1.275  11.656  22.459  0.00  0.00    +0.000 A 
ATOM      8  C   UNL     1      -0.791  10.457  22.996  0.00  0.00    +0.000 A 
ATOM      9  C   UNL     1      -0.053   9.574  22.208  0.00  0.00    +0.000 A 
ATOM     10  C   UNL     1       0.228   9.856  20.860  0.00  0.00    +0.000 A 
ATOM     11  C   UNL     1      -0.269  11.057  20.333  0.00  0.00    +0.000 A 
ATOM     12  C   UNL     1      -1.008  11.946  21.117  0.00  0.00    +0.000 A 
BRANCH   7  13
ATOM     13  C   UNL     1      -2.080  12.613  23.304  0.00  0.00    +0.000 C 
BRANCH  13  14
ATOM     14  N   UNL     1      -3.355  12.018  23.695  0.00  0.00    +0.000 NA
ATOM     15  H   UNL     1      -3.797  11.610  22.876  0.00  0.00    +0.000 HD
BRANCH  14  16
ATOM     16  C   UNL     1      -4.247  13.022  24.278  0.00  0.00    +0.000 C 
BRANCH  16  17
ATOM     17  C   UNL     1      -5.484  13.196  23.393  0.00  0.00    +0.000 C 
BRANCH  17  19
ATOM     18  C   UNL     1      -7.681  13.610  24.107  0.00  0.00    +0.000 C 
ATOM     19  O   UNL     1      -6.366  14.140  23.999  0.00  0.00    +0.000 OA
ENDBRANCH  17  19
ENDBRANCH  16  17
ENDBRANCH  14  16
ENDBRANCH  13  14
ENDBRANCH   7  13
ENDBRANCH   1  10
BRANCH   5  20
ATOM     20  C   UNL     1       2.507   5.372  20.305  0.00  0.00    +0.000 C 
BRANCH  20  21
ATOM     21  N   UNL     1       1.636   4.305  19.801  0.00  0.00    +0.000 NA
ATOM     22  H   UNL     1       1.360   4.539  18.849  0.00  0.00    +0.000 HD
BRANCH  21  23
ATOM     23  C   UNL     1       2.244   2.965  19.858  0.00  0.00    +0.000 C 
ATOM     24  C   UNL     1       3.761   2.938  20.067  0.00  0.00    +0.000 C 
ATOM     25  C   UNL     1       4.533   3.526  18.886  0.00  0.00    +0.000 C 
ATOM     26  N   UNL     1       4.152   3.009  17.560  0.00  0.00    +0.000 NA
ATOM     27  C   UNL     1       2.700   2.842  17.366  0.00  0.00    +0.000 C 
ATOM     28  C   UNL     1       1.968   2.213  18.551  0.00  0.00    +0.000 C 
BRANCH  26  29
ATOM     29  C   UNL     1       4.664   3.904  16.493  0.00  0.00    +0.000 C 
BRANCH  29  30
ATOM     30  C   UNL     1       5.680   4.931  16.946  0.00  0.00    +0.000 A 
ATOM     31  C   UNL     1       5.472   6.294  16.710  0.00  0.00    +0.000 A 
ATOM     32  C   UNL     1       6.376   7.244  17.186  0.00  0.00    +0.000 A 
ATOM     33  C   UNL     1       7.500   6.841  17.906  0.00  0.00    +0.000 A 
ATOM     34  C   UNL     1       7.726   5.485  18.138  0.00  0.00    +0.000 A 
ATOM     35  C   UNL     1       6.823   4.533  17.660  0.00  0.00    +0.000 A 
ENDBRANCH  29  30
ENDBRANCH  26  29
ENDBRANCH  21  23
ENDBRANCH  20  21
ENDBRANCH   5  20
TORSDOF 11
ENDMDL
MODEL 4
REMARK VINA RESULT:      -8.1      1.263      1.751
REMARK  Name = 
REMARK  12 active torsions:
REMARK  status: ('A' for Active; 'I' for Inactive)
REMARK    1  A    between atoms: C_1  and  O_2
REMARK    2  A    between atoms: O_2  and  C_3
REMARK    3  A    between atoms: C_3  and  C_4
REMARK    4  A    between atoms: C_4  and  N_5
REMARK    5  A    between atoms: N_5  and  C_6
REMARK    6  A    between atoms: C_6  and  C_7
REMARK    7  A    between atoms: C_10  and  C_11
REMARK    8  A    between atoms: C_15  and  C_16
REMARK    9  A    between atoms: C_16  and  N_17
REMARK   10  A    between atoms: N_17  and  C_18
REMARK   11  A    between atoms: N_21  and  C_22
REMARK   12  A    between atoms: C_22  and  C_23
REMARK                            x       y       z     vdW  Elec       q    Type
REMARK                         _______ _______ _______ _____ _____    ______ ____
ROOT
ATOM      1  C   UNL     1       0.995   9.297  19.887  0.00  0.00    +0.000 A 
ATOM      2  C   UNL     1       1.383   9.839  18.650  0.00  0.00    +0.000 A 
ATOM      3  C   UNL     1       2.195   9.124  17.770  0.00  0.00    +0.000 A 
ATOM      4  C   UNL     1       2.622   7.836  18.102  0.00  0.00    +0.000 A 
ATOM      5  C   UNL     1       2.237   7.247  19.313  0.00  0.00    +0.000 A 
ATOM      6  C   UNL     1       1.445   7.995  20.197  0.00  0.00    +0.000 A 
ENDROOT
BRANCH   1  10
ATOM      7  C   UNL     1      -1.372  11.551  22.707  0.00  0.00    +0.000 A 
ATOM      8  C   UNL     1      -0.796  10.328  23.072  0.00  0.00    +0.000 A 
ATOM      9  C   UNL     1      -0.040   9.598  22.154  0.00  0.00    +0.000 A 
ATOM     10  C   UNL     1       0.166  10.062  20.844  0.00  0.00    +0.000 A 
ATOM     11  C   UNL     1      -0.422  11.284  20.489  0.00  0.00    +0.000 A 
ATOM     12  C   UNL     1      -1.180  12.020  21.404  0.00  0.00    +0.000 A 
BRANCH   7  13
ATOM     13  C   UNL     1      -2.196  12.343  23.693  0.00  0.00    +0.000 C 
BRANCH  13  14
ATOM     14  N   UNL     1      -3.547  11.799  23.800  0.00  0.00    +0.000 NA
ATOM     15  H   UNL     1      -3.940  11.699  22.868  0.00  0.00    +0.000 HD
BRANCH  14  16
ATOM     16  C   UNL     1      -4.406  12.676  24.598  0.00  0.00    +0.000 C 
BRANCH  16  17
ATOM     17  C   UNL     1      -5.539  13.227  23.728  0.00  0.00    +0.000 C 
BRANCH  17  19
ATOM     18  C   UNL     1      -7.222  12.577  22.227  0.00  0.00    +0.000 C 
ATOM     19  O   UNL     1      -6.006  12.196  22.859  0.00  0.00    +0.000 OA
ENDBRANCH  17  19
ENDBRANCH  16  17
ENDBRANCH  14  16
ENDBRANCH  13  14
ENDBRANCH   7  13
ENDBRANCH   1  10
BRANCH   5  20
ATOM     20  C   UNL     1       2.752   5.868  19.686  0.00  0.00    +0.000 C 
BRANCH  20  21
ATOM     21  N   UNL     1       2.366   5.472  21.044  0.00  0.00    +0.000 NA
ATOM     22  H   UNL     1       1.865   6.247  21.474  0.00  0.00    +0.000 HD
BRANCH  21  23
ATOM     23  C   UNL     1       1.570   4.235  21.098  0.00  0.00    +0.000 C 
ATOM     24  C   UNL     1       2.330   2.981  21.542  0.00  0.00    +0.000 C 
ATOM     25  C   UNL     1       3.408   2.558  20.544  0.00  0.00    +0.000 C 
ATOM     26  N   UNL     1       2.971   2.466  19.141  0.00  0.00    +0.000 NA
ATOM     27  C   UNL     1       2.082   3.559  18.708  0.00  0.00    +0.000 C 
ATOM     28  C   UNL     1       0.992   3.928  19.712  0.00  0.00    +0.000 C 
BRANCH  26  29
ATOM     29  C   UNL     1       4.147   2.437  18.237  0.00  0.00    +0.000 C 
BRANCH  29  30
ATOM     30  C   UNL     1       4.733   3.792  17.898  0.00  0.00    +0.000 A 
ATOM     31  C   UNL     1       5.633   4.418  18.766  0.00  0.00    +0.000 A 
ATOM     32  C   UNL     1       6.223   5.635  18.422  0.00  0.00    +0.000 A 
ATOM     33  C   UNL     1       5.918   6.240  17.203  0.00  0.00    +0.000 A 
ATOM     34  C   UNL     1       5.012   5.634  16.335  0.00  0.00    +0.000 A 
ATOM     35  C   UNL     1       4.420   4.417  16.679  0.00  0.00    +0.000 A 
ENDBRANCH  29  30
ENDBRANCH  26  29
ENDBRANCH  21  23
ENDBRANCH  20  21
ENDBRANCH   5  20
TORSDOF 11
ENDMDL
MODEL 5
REMARK VINA RESULT:      -8.1      2.863      4.694
REMARK  Name = 
REMARK  12 active torsions:
REMARK  status: ('A' for Active; 'I' for Inactive)
REMARK    1  A    between atoms: C_1  and  O_2
REMARK    2  A    between atoms: O_2  and  C_3
REMARK    3  A    between atoms: C_3  and  C_4
REMARK    4  A    between atoms: C_4  and  N_5
REMARK    5  A    between atoms: N_5  and  C_6
REMARK    6  A    between atoms: C_6  and  C_7
REMARK    7  A    between atoms: C_10  and  C_11
REMARK    8  A    between atoms: C_15  and  C_16
REMARK    9  A    between atoms: C_16  and  N_17
REMARK   10  A    between atoms: N_17  and  C_18
REMARK   11  A    between atoms: N_21  and  C_22
REMARK   12  A    between atoms: C_22  and  C_23
REMARK                            x       y       z     vdW  Elec       q    Type
REMARK                         _______ _______ _______ _____ _____    ______ ____
ROOT
ATOM      1  C   UNL     1       2.536   6.208  18.702  0.00  0.00    +0.000 A 
ATOM      2  C   UNL     1       1.729   5.209  18.129  0.00  0.00    +0.000 A 
ATOM      3  C   UNL     1       2.231   3.932  17.875  0.00  0.00    +0.000 A 
ATOM      4  C   UNL     1       3.550   3.620  18.211  0.00  0.00    +0.000 A 
ATOM      5  C   UNL     1       4.380   4.577  18.807  0.00  0.00    +0.000 A 
ATOM      6  C   UNL     1       3.866   5.864  19.026  0.00  0.00    +0.000 A 
ENDROOT
BRANCH   1  10
ATOM      7  C   UNL     1       0.992  10.184  19.369  0.00  0.00    +0.000 A 
ATOM      8  C   UNL     1       1.452   9.797  18.104  0.00  0.00    +0.000 A 
ATOM      9  C   UNL     1       1.960   8.514  17.896  0.00  0.00    +0.000 A 
ATOM     10  C   UNL     1       2.026   7.575  18.939  0.00  0.00    +0.000 A 
ATOM     11  C   UNL     1       1.568   7.978  20.203  0.00  0.00    +0.000 A 
ATOM     12  C   UNL     1       1.058   9.261  20.417  0.00  0.00    +0.000 A 
BRANCH   7  13
ATOM     13  C   UNL     1       0.447  11.572  19.603  0.00  0.00    +0.000 C 
BRANCH  13  14
ATOM     14  N   UNL     1      -0.979  11.631  19.295  0.00  0.00    +0.000 NA
ATOM     15  H   UNL     1      -1.366  10.691  19.328  0.00  0.00    +0.000 HD
BRANCH  14  16
ATOM     16  C   UNL     1      -1.207  12.202  17.966  0.00  0.00    +0.000 C 
BRANCH  16  17
ATOM     17  C   UNL     1      -2.375  11.486  17.284  0.00  0.00    +0.000 C 
BRANCH  17  19
ATOM     18  C   UNL     1      -4.609  10.930  17.739  0.00  0.00    +0.000 C 
ATOM     19  O   UNL     1      -3.298  11.042  18.277  0.00  0.00    +0.000 OA
ENDBRANCH  17  19
ENDBRANCH  16  17
ENDBRANCH  14  16
ENDBRANCH  13  14
ENDBRANCH   7  13
ENDBRANCH   1  10
BRANCH   5  20
ATOM     20  C   UNL     1       5.829   4.242  19.116  0.00  0.00    +0.000 C 
BRANCH  20  21
ATOM     21  N   UNL     1       6.541   5.355  19.751  0.00  0.00    +0.000 NA
ATOM     22  H   UNL     1       6.637   5.150  20.744  0.00  0.00    +0.000 HD
BRANCH  21  23
ATOM     23  C   UNL     1       7.851   5.645  19.145  0.00  0.00    +0.000 C 
ATOM     24  C   UNL     1       7.946   6.970  18.383  0.00  0.00    +0.000 C 
ATOM     25  C   UNL     1       7.065   7.000  17.134  0.00  0.00    +0.000 C 
ATOM     26  N   UNL     1       7.201   5.840  16.236  0.00  0.00    +0.000 NA
ATOM     27  C   UNL     1       7.298   4.542  16.929  0.00  0.00    +0.000 C 
ATOM     28  C   UNL     1       8.218   4.539  18.148  0.00  0.00    +0.000 C 
BRANCH  26  29
ATOM     29  C   UNL     1       6.054   5.781  15.297  0.00  0.00    +0.000 C 
BRANCH  29  30
ATOM     30  C   UNL     1       6.261   4.900  14.083  0.00  0.00    +0.000 A 
ATOM     31  C   UNL     1       5.324   3.918  13.745  0.00  0.00    +0.000 A 
ATOM     32  C   UNL     1       5.482   3.151  12.590  0.00  0.00    +0.000 A 
ATOM     33  C   UNL     1       6.582   3.360  11.758  0.00  0.00    +0.000 A 
ATOM     34  C   UNL     1       7.530   4.325  12.090  0.00  0.00    +0.000 A 
ATOM     35  C   UNL     1       7.374   5.092  13.246  0.00  0.00    +0.000 A 
ENDBRANCH  29  30
ENDBRANCH  26  29
ENDBRANCH  21  23
ENDBRANCH  20  21
ENDBRANCH   5  20
TORSDOF 11
ENDMDL
MODEL 6
REMARK VINA RESULT:      -8.0      2.531      4.516
REMARK  Name = 
REMARK  12 active torsions:
REMARK  status: ('A' for Active; 'I' for Inactive)
REMARK    1  A    between atoms: C_1  and  O_2
REMARK    2  A    between atoms: O_2  and  C_3
REMARK    3  A    between atoms: C_3  and  C_4
REMARK    4  A    between atoms: C_4  and  N_5
REMARK    5  A    between atoms: N_5  and  C_6
REMARK    6  A    between atoms: C_6  and  C_7
REMARK    7  A    between atoms: C_10  and  C_11
REMARK    8  A    between atoms: C_15  and  C_16
REMARK    9  A    between atoms: C_16  and  N_17
REMARK   10  A    between atoms: N_17  and  C_18
REMARK   11  A    between atoms: N_21  and  C_22
REMARK   12  A    between atoms: C_22  and  C_23
REMARK                            x       y       z     vdW  Elec       q    Type
REMARK                         _______ _______ _______ _____ _____    ______ ____
ROOT
ATOM      1  C   UNL     1       2.609   6.228  18.710  0.00  0.00    +0.000 A 
ATOM      2  C   UNL     1       1.871   5.293  17.965  0.00  0.00    +0.000 A 
ATOM      3  C   UNL     1       2.412   4.054  17.622  0.00  0.00    +0.000 A 
ATOM      4  C   UNL     1       3.701   3.715  18.037  0.00  0.00    +0.000 A 
ATOM      5  C   UNL     1       4.461   4.606  18.804  0.00  0.00    +0.000 A 
ATOM      6  C   UNL     1       3.911   5.859  19.112  0.00  0.00    +0.000 A 
ENDROOT
BRANCH   1  10
ATOM      7  C   UNL     1       0.951  10.098  19.667  0.00  0.00    +0.000 A 
ATOM      8  C   UNL     1       1.395   9.810  18.370  0.00  0.00    +0.000 A 
ATOM      9  C   UNL     1       1.940   8.561  18.068  0.00  0.00    +0.000 A 
ATOM     10  C   UNL     1       2.060   7.560  19.047  0.00  0.00    +0.000 A 
ATOM     11  C   UNL     1       1.618   7.864  20.343  0.00  0.00    +0.000 A 
ATOM     12  C   UNL     1       1.071   9.112  20.651  0.00  0.00    +0.000 A 
BRANCH   7  13
ATOM     13  C   UNL     1       0.366  11.449  20.002  0.00  0.00    +0.000 C 
BRANCH  13  14
ATOM     14  N   UNL     1      -0.960  11.309  20.598  0.00  0.00    +0.000 NA
ATOM     15  H   UNL     1      -1.663  11.404  19.870  0.00  0.00    +0.000 HD
BRANCH  14  16
ATOM     16  C   UNL     1      -1.184  12.328  21.625  0.00  0.00    +0.000 C 
BRANCH  16  17
ATOM     17  C   UNL     1      -1.354  11.662  22.993  0.00  0.00    +0.000 C 
BRANCH  17  19
ATOM     18  C   UNL     1      -3.272  12.878  23.585  0.00  0.00    +0.000 C 
ATOM     19  O   UNL     1      -2.743  11.587  23.309  0.00  0.00    +0.000 OA
ENDBRANCH  17  19
ENDBRANCH  16  17
ENDBRANCH  14  16
ENDBRANCH  13  14
ENDBRANCH   7  13
ENDBRANCH   1  10
BRANCH   5  20
ATOM     20  C   UNL     1       5.882   4.247  19.202  0.00  0.00    +0.000 C 
BRANCH  20  21
ATOM     21  N   UNL     1       6.604   5.378  19.793  0.00  0.00    +0.000 NA
ATOM     22  H   UNL     1       6.766   5.176  20.778  0.00  0.00    +0.000 HD
BRANCH  21  23
ATOM     23  C   UNL     1       7.866   5.702  19.107  0.00  0.00    +0.000 C 
ATOM     24  C   UNL     1       7.857   6.995  18.288  0.00  0.00    +0.000 C 
ATOM     25  C   UNL     1       6.913   6.932  17.087  0.00  0.00    +0.000 C 
ATOM     26  N   UNL     1       7.058   5.742  16.231  0.00  0.00    +0.000 NA
ATOM     27  C   UNL     1       7.253   4.481  16.970  0.00  0.00    +0.000 C 
ATOM     28  C   UNL     1       8.234   4.572  18.137  0.00  0.00    +0.000 C 
BRANCH  26  29
ATOM     29  C   UNL     1       5.869   5.590  15.357  0.00  0.00    +0.000 C 
BRANCH  29  30
ATOM     30  C   UNL     1       6.116   4.856  14.056  0.00  0.00    +0.000 A 
ATOM     31  C   UNL     1       7.294   5.063  13.331  0.00  0.00    +0.000 A 
ATOM     32  C   UNL     1       7.549   4.337  12.167  0.00  0.00    +0.000 A 
ATOM     33  C   UNL     1       6.627   3.394  11.715  0.00  0.00    +0.000 A 
ATOM     34  C   UNL     1       5.443   3.187  12.420  0.00  0.00    +0.000 A 
ATOM     35  C   UNL     1       5.185   3.914  13.584  0.00  0.00    +0.000 A 
ENDBRANCH  29  30
ENDBRANCH  26  29
ENDBRANCH  21  23
ENDBRANCH  20  21
ENDBRANCH   5  20
TORSDOF 11
ENDMDL
MODEL 7
REMARK VINA RESULT:      -8.0      1.040      1.114
REMARK  Name = 
REMARK  12 active torsions:
REMARK  status: ('A' for Active; 'I' for Inactive)
REMARK    1  A    between atoms: C_1  and  O_2
REMARK    2  A    between atoms: O_2  and  C_3
REMARK    3  A    between atoms: C_3  and  C_4
REMARK    4  A    between atoms: C_4  and  N_5
REMARK    5  A    between atoms: N_5  and  C_6
REMARK    6  A    between atoms: C_6  and  C_7
REMARK    7  A    between atoms: C_10  and  C_11
REMARK    8  A    between atoms: C_15  and  C_16
REMARK    9  A    between atoms: C_16  and  N_17
REMARK   10  A    between atoms: N_17  and  C_18
REMARK   11  A    between atoms: N_21  and  C_22
REMARK   12  A    between atoms: C_22  and  C_23
REMARK                            x       y       z     vdW  Elec       q    Type
REMARK                         _______ _______ _______ _____ _____    ______ ____
ROOT
ATOM      1  C   UNL     1       0.778   9.449  20.130  0.00  0.00    +0.000 A 
ATOM      2  C   UNL     1       1.251   9.934  18.898  0.00  0.00    +0.000 A 
ATOM      3  C   UNL     1       2.051   9.147  18.071  0.00  0.00    +0.000 A 
ATOM      4  C   UNL     1       2.378   7.843  18.450  0.00  0.00    +0.000 A 
ATOM      5  C   UNL     1       1.907   7.311  19.656  0.00  0.00    +0.000 A 
ATOM      6  C   UNL     1       1.130   8.130  20.488  0.00  0.00    +0.000 A 
ENDROOT
BRANCH   1  10
ATOM      7  C   UNL     1      -1.656  11.879  22.740  0.00  0.00    +0.000 A 
ATOM      8  C   UNL     1      -1.412  12.271  21.417  0.00  0.00    +0.000 A 
ATOM      9  C   UNL     1      -0.616  11.488  20.581  0.00  0.00    +0.000 A 
ATOM     10  C   UNL     1      -0.038  10.289  21.033  0.00  0.00    +0.000 A 
ATOM     11  C   UNL     1      -0.285   9.912  22.362  0.00  0.00    +0.000 A 
ATOM     12  C   UNL     1      -1.081  10.692  23.204  0.00  0.00    +0.000 A 
BRANCH   7  13
ATOM     13  C   UNL     1      -2.511  12.724  23.652  0.00  0.00    +0.000 C 
BRANCH  13  14
ATOM     14  N   UNL     1      -3.927  12.408  23.481  0.00  0.00    +0.000 NA
ATOM     15  H   UNL     1      -4.066  11.989  22.565  0.00  0.00    +0.000 HD
BRANCH  14  16
ATOM     16  C   UNL     1      -4.752  13.612  23.594  0.00  0.00    +0.000 C 
BRANCH  16  17
ATOM     17  C   UNL     1      -6.215  13.221  23.820  0.00  0.00    +0.000 C 
BRANCH  17  19
ATOM     18  C   UNL     1      -7.913  11.821  23.006  0.00  0.00    +0.000 C 
ATOM     19  O   UNL     1      -6.511  12.051  23.059  0.00  0.00    +0.000 OA
ENDBRANCH  17  19
ENDBRANCH  16  17
ENDBRANCH  14  16
ENDBRANCH  13  14
ENDBRANCH   7  13
ENDBRANCH   1  10
BRANCH   5  20
ATOM     20  C   UNL     1       2.316   5.912  20.082  0.00  0.00    +0.000 C 
BRANCH  20  21
ATOM     21  N   UNL     1       1.559   4.867  19.385  0.00  0.00    +0.000 NA
ATOM     22  H   UNL     1       1.686   4.994  18.383  0.00  0.00    +0.000 HD
BRANCH  21  23
ATOM     23  C   UNL     1       1.921   3.499  19.793  0.00  0.00    +0.000 C 
ATOM     24  C   UNL     1       3.379   3.303  20.219  0.00  0.00    +0.000 C 
ATOM     25  C   UNL     1       4.366   3.505  19.070  0.00  0.00    +0.000 C 
ATOM     26  N   UNL     1       4.053   2.772  17.832  0.00  0.00    +0.000 NA
ATOM     27  C   UNL     1       2.625   2.774  17.467  0.00  0.00    +0.000 C 
ATOM     28  C   UNL     1       1.670   2.529  18.633  0.00  0.00    +0.000 C 
BRANCH  26  29
ATOM     29  C   UNL     1       4.825   3.331  16.695  0.00  0.00    +0.000 C 
BRANCH  29  30
ATOM     30  C   UNL     1       5.519   4.648  16.973  0.00  0.00    +0.000 A 
ATOM     31  C   UNL     1       6.824   4.675  17.476  0.00  0.00    +0.000 A 
ATOM     32  C   UNL     1       7.486   5.887  17.669  0.00  0.00    +0.000 A 
ATOM     33  C   UNL     1       6.849   7.089  17.360  0.00  0.00    +0.000 A 
ATOM     34  C   UNL     1       5.544   7.077  16.871  0.00  0.00    +0.000 A 
ATOM     35  C   UNL     1       4.880   5.865  16.679  0.00  0.00    +0.000 A 
ENDBRANCH  29  30
ENDBRANCH  26  29
ENDBRANCH  21  23
ENDBRANCH  20  21
ENDBRANCH   5  20
TORSDOF 11
ENDMDL
MODEL 8
REMARK VINA RESULT:      -7.9      3.469      5.455
REMARK  Name = 
REMARK  12 active torsions:
REMARK  status: ('A' for Active; 'I' for Inactive)
REMARK    1  A    between atoms: C_1  and  O_2
REMARK    2  A    between atoms: O_2  and  C_3
REMARK    3  A    between atoms: C_3  and  C_4
REMARK    4  A    between atoms: C_4  and  N_5
REMARK    5  A    between atoms: N_5  and  C_6
REMARK    6  A    between atoms: C_6  and  C_7
REMARK    7  A    between atoms: C_10  and  C_11
REMARK    8  A    between atoms: C_15  and  C_16
REMARK    9  A    between atoms: C_16  and  N_17
REMARK   10  A    between atoms: N_17  and  C_18
REMARK   11  A    between atoms: N_21  and  C_22
REMARK   12  A    between atoms: C_22  and  C_23
REMARK                            x       y       z     vdW  Elec       q    Type
REMARK                         _______ _______ _______ _____ _____    ______ ____
ROOT
ATOM      1  C   UNL     1       2.557   6.176  18.578  0.00  0.00    +0.000 A 
ATOM      2  C   UNL     1       1.825   5.212  17.863  0.00  0.00    +0.000 A 
ATOM      3  C   UNL     1       2.369   3.962  17.571  0.00  0.00    +0.000 A 
ATOM      4  C   UNL     1       3.655   3.639  18.010  0.00  0.00    +0.000 A 
ATOM      5  C   UNL     1       4.409   4.559  18.748  0.00  0.00    +0.000 A 
ATOM      6  C   UNL     1       3.856   5.822  19.004  0.00  0.00    +0.000 A 
ENDROOT
BRANCH   1  10
ATOM      7  C   UNL     1       1.001  10.114  19.421  0.00  0.00    +0.000 A 
ATOM      8  C   UNL     1       1.139   9.165  20.442  0.00  0.00    +0.000 A 
ATOM      9  C   UNL     1       1.633   7.890  20.162  0.00  0.00    +0.000 A 
ATOM     10  C   UNL     1       2.005   7.519  18.859  0.00  0.00    +0.000 A 
ATOM     11  C   UNL     1       1.854   8.476  17.845  0.00  0.00    +0.000 A 
ATOM     12  C   UNL     1       1.361   9.755  18.118  0.00  0.00    +0.000 A 
BRANCH   7  13
ATOM     13  C   UNL     1       0.462  11.493  19.714  0.00  0.00    +0.000 C 
BRANCH  13  14
ATOM     14  N   UNL     1       1.543  12.471  19.784  0.00  0.00    +0.000 NA
ATOM     15  H   UNL     1       1.411  13.055  20.606  0.00  0.00    +0.000 HD
BRANCH  14  16
ATOM     16  C   UNL     1       1.566  13.316  18.589  0.00  0.00    +0.000 C 
BRANCH  16  17
ATOM     17  C   UNL     1       2.995  13.792  18.314  0.00  0.00    +0.000 C 
BRANCH  17  19
ATOM     18  C   UNL     1       1.957  15.867  18.668  0.00  0.00    +0.000 C 
ATOM     19  O   UNL     1       2.968  15.171  17.950  0.00  0.00    +0.000 OA
ENDBRANCH  17  19
ENDBRANCH  16  17
ENDBRANCH  14  16
ENDBRANCH  13  14
ENDBRANCH   7  13
ENDBRANCH   1  10
BRANCH   5  20
ATOM     20  C   UNL     1       5.827   4.216  19.171  0.00  0.00    +0.000 C 
BRANCH  20  21
ATOM     21  N   UNL     1       6.524   5.355  19.777  0.00  0.00    +0.000 NA
ATOM     22  H   UNL     1       6.615   5.180  20.776  0.00  0.00    +0.000 HD
BRANCH  21  23
ATOM     23  C   UNL     1       7.835   5.640  19.171  0.00  0.00    +0.000 C 
ATOM     24  C   UNL     1       7.936   6.970  18.418  0.00  0.00    +0.000 C 
ATOM     25  C   UNL     1       7.054   7.014  17.170  0.00  0.00    +0.000 C 
ATOM     26  N   UNL     1       7.180   5.859  16.265  0.00  0.00    +0.000 NA
ATOM     27  C   UNL     1       7.270   4.556  16.949  0.00  0.00    +0.000 C 
ATOM     28  C   UNL     1       8.193   4.539  18.166  0.00  0.00    +0.000 C 
BRANCH  26  29
ATOM     29  C   UNL     1       6.032   5.814  15.327  0.00  0.00    +0.000 C 
BRANCH  29  30
ATOM     30  C   UNL     1       6.229   4.935  14.109  0.00  0.00    +0.000 A 
ATOM     31  C   UNL     1       5.297   3.945  13.784  0.00  0.00    +0.000 A 
ATOM     32  C   UNL     1       5.445   3.181  12.626  0.00  0.00    +0.000 A 
ATOM     33  C   UNL     1       6.530   3.401  11.778  0.00  0.00    +0.000 A 
ATOM     34  C   UNL     1       7.474   4.375  12.097  0.00  0.00    +0.000 A 
ATOM     35  C   UNL     1       7.327   5.139  13.256  0.00  0.00    +0.000 A 
ENDBRANCH  29  30
ENDBRANCH  26  29
ENDBRANCH  21  23
ENDBRANCH  20  21
ENDBRANCH   5  20
TORSDOF 11
ENDMDL
MODEL 9
REMARK VINA RESULT:      -7.9      2.210      2.660
REMARK  Name = 
REMARK  12 active torsions:
REMARK  status: ('A' for Active; 'I' for Inactive)
REMARK    1  A    between atoms: C_1  and  O_2
REMARK    2  A    between atoms: O_2  and  C_3
REMARK    3  A    between atoms: C_3  and  C_4
REMARK    4  A    between atoms: C_4  and  N_5
REMARK    5  A    between atoms: N_5  and  C_6
REMARK    6  A    between atoms: C_6  and  C_7
REMARK    7  A    between atoms: C_10  and  C_11
REMARK    8  A    between atoms: C_15  and  C_16
REMARK    9  A    between atoms: C_16  and  N_17
REMARK   10  A    between atoms: N_17  and  C_18
REMARK   11  A    between atoms: N_21  and  C_22
REMARK   12  A    between atoms: C_22  and  C_23
REMARK                            x       y       z     vdW  Elec       q    Type
REMARK                         _______ _______ _______ _____ _____    ______ ____
ROOT
ATOM      1  C   UNL     1       0.907   9.588  20.048  0.00  0.00    +0.000 A 
ATOM      2  C   UNL     1       1.310   9.972  18.758  0.00  0.00    +0.000 A 
ATOM      3  C   UNL     1       2.035   9.106  17.940  0.00  0.00    +0.000 A 
ATOM      4  C   UNL     1       2.354   7.823  18.389  0.00  0.00    +0.000 A 
ATOM      5  C   UNL     1       1.949   7.390  19.657  0.00  0.00    +0.000 A 
ATOM      6  C   UNL     1       1.248   8.287  20.477  0.00  0.00    +0.000 A 
ENDROOT
BRANCH   1  10
ATOM      7  C   UNL     1      -1.289  12.281  22.611  0.00  0.00    +0.000 A 
ATOM      8  C   UNL     1      -0.738  12.730  21.404  0.00  0.00    +0.000 A 
ATOM      9  C   UNL     1      -0.020  11.859  20.585  0.00  0.00    +0.000 A 
ATOM     10  C   UNL     1       0.172  10.513  20.939  0.00  0.00    +0.000 A 
ATOM     11  C   UNL     1      -0.378  10.078  22.153  0.00  0.00    +0.000 A 
ATOM     12  C   UNL     1      -1.099  10.945  22.979  0.00  0.00    +0.000 A 
BRANCH   7  13
ATOM     13  C   UNL     1      -2.061  13.219  23.506  0.00  0.00    +0.000 C 
BRANCH  13  14
ATOM     14  N   UNL     1      -3.374  12.669  23.830  0.00  0.00    +0.000 NA
ATOM     15  H   UNL     1      -3.281  11.673  24.012  0.00  0.00    +0.000 HD
BRANCH  14  16
ATOM     16  C   UNL     1      -4.317  12.875  22.729  0.00  0.00    +0.000 C 
BRANCH  16  17
ATOM     17  C   UNL     1      -5.522  13.682  23.219  0.00  0.00    +0.000 C 
BRANCH  17  19
ATOM     18  C   UNL     1      -7.610  13.474  24.270  0.00  0.00    +0.000 C 
ATOM     19  O   UNL     1      -6.370  12.836  23.994  0.00  0.00    +0.000 OA
ENDBRANCH  17  19
ENDBRANCH  16  17
ENDBRANCH  14  16
ENDBRANCH  13  14
ENDBRANCH   7  13
ENDBRANCH   1  10
BRANCH   5  20
ATOM     20  C   UNL     1       2.350   6.013  20.156  0.00  0.00    +0.000 C 
BRANCH  20  21
ATOM     21  N   UNL     1       3.742   5.681  19.836  0.00  0.00    +0.000 NA
ATOM     22  H   UNL     1       4.324   5.935  20.632  0.00  0.00    +0.000 HD
BRANCH  21  23
ATOM     23  C   UNL     1       3.947   4.272  19.462  0.00  0.00    +0.000 C 
ATOM     24  C   UNL     1       5.402   3.857  19.231  0.00  0.00    +0.000 C 
ATOM     25  C   UNL     1       6.031   4.544  18.020  0.00  0.00    +0.000 C 
ATOM     26  N   UNL     1       5.240   4.486  16.778  0.00  0.00    +0.000 NA
ATOM     27  C   UNL     1       3.794   4.700  16.967  0.00  0.00    +0.000 C 
ATOM     28  C   UNL     1       3.193   3.965  18.163  0.00  0.00    +0.000 C 
BRANCH  26  29
ATOM     29  C   UNL     1       5.736   5.490  15.805  0.00  0.00    +0.000 C 
BRANCH  29  30
ATOM     30  C   UNL     1       6.148   4.933  14.458  0.00  0.00    +0.000 A 
ATOM     31  C   UNL     1       7.357   5.314  13.867  0.00  0.00    +0.000 A 
ATOM     32  C   UNL     1       7.766   4.750  12.659  0.00  0.00    +0.000 A 
ATOM     33  C   UNL     1       6.968   3.797  12.026  0.00  0.00    +0.000 A 
ATOM     34  C   UNL     1       5.754   3.418  12.597  0.00  0.00    +0.000 A 
ATOM     35  C   UNL     1       5.343   3.983  13.806  0.00  0.00    +0.000 A 
ENDBRANCH  29  30
ENDBRANCH  26  29
ENDBRANCH  21  23
ENDBRANCH  20  21
ENDBRANCH   5  20
TORSDOF 11
ENDMDL
