MODEL 1
REMARK VINA RESULT:      -7.1      0.000      0.000
REMARK  Name = 
REMARK  13 active torsions:
REMARK  status: ('A' for Active; 'I' for Inactive)
REMARK    1  A    between atoms: C_1  and  C_2
REMARK    2  A    between atoms: C_5  and  C_6
REMARK    3  A    between atoms: C_6  and  C_7
REMARK    4  A    between atoms: C_6  and  C_8
REMARK    5  A    between atoms: C_9  and  O_10
REMARK    6  A    between atoms: O_10  and  S_11
REMARK    7  A    between atoms: S_11  and  S_12
REMARK    8  A    between atoms: S_12  and  O_13
REMARK    9  A    between atoms: O_13  and  C_14
REMARK   10  A    between atoms: C_16  and  C_17
REMARK   11  A    between atoms: C_20  and  C_21
REMARK   12  A    between atoms: C_21  and  C_22
REMARK   13  A    between atoms: C_21  and  C_23
REMARK                            x       y       z     vdW  Elec       q    Type
REMARK                         _______ _______ _______ _____ _____    ______ ____
ROOT
ATOM      1  S   UNL     1       4.131   2.621  17.126  0.00  0.00    +0.000 S 
ENDROOT
BRANCH   1   2
ATOM      2  O   UNL     1       5.395   3.625  16.763  0.00  0.00    +0.000 OA
BRANCH   2   8
ATOM      3  C   UNL     1       5.842   3.505  12.546  0.00  0.00    +0.000 C 
ATOM      4  C   UNL     1       6.145   3.899  13.991  0.00  0.00    +0.000 C 
ATOM      5  C   UNL     1       7.327   4.862  14.054  0.00  0.00    +0.000 C 
ATOM      6  C   UNL     1       7.631   5.314  15.482  0.00  0.00    +0.000 C 
ATOM      7  C   UNL     1       6.394   5.928  16.170  0.00  0.00    +0.000 C 
ATOM      8  C   UNL     1       5.211   4.903  16.141  0.00  0.00    +0.000 C 
ATOM      9  C   UNL     1       4.914   4.523  14.669  0.00  0.00    +0.000 C 
BRANCH   7  10
ATOM     10  C   UNL     1       6.726   6.554  17.565  0.00  0.00    +0.000 C 
ATOM     11  C   UNL     1       7.563   5.638  18.468  0.00  0.00    +0.000 C 
ATOM     12  C   UNL     1       7.512   7.866  17.446  0.00  0.00    +0.000 C 
ENDBRANCH   7  10
ENDBRANCH   2   8
ENDBRANCH   1   2
BRANCH   1  13
ATOM     13  S   UNL     1       4.177   2.642  19.170  0.00  0.00    +0.000 S 
BRANCH  13  14
ATOM     14  O   UNL     1       3.560   4.152  19.443  0.00  0.00    +0.000 OA
BRANCH  14  15
ATOM     15  C   UNL     1       2.313   4.447  18.795  0.00  0.00    +0.000 C 
ATOM     16  C   UNL     1       2.420   5.690  17.890  0.00  0.00    +0.000 C 
ATOM     17  C   UNL     1       2.949   6.891  18.681  0.00  0.00    +0.000 C 
ATOM     18  C   UNL     1       3.123   8.103  17.771  0.00  0.00    +0.000 C 
ATOM     19  C   UNL     1       2.008   7.184  19.853  0.00  0.00    +0.000 C 
ATOM     20  C   UNL     1       1.755   5.952  20.733  0.00  0.00    +0.000 C 
ATOM     21  C   UNL     1       1.284   4.715  19.924  0.00  0.00    +0.000 C 
BRANCH  21  22
ATOM     22  C   UNL     1       1.072   3.471  20.848  0.00  0.00    +0.000 C 
ATOM     23  C   UNL     1       1.028   2.158  20.056  0.00  0.00    +0.000 C 
ATOM     24  C   UNL     1       2.165   3.345  21.920  0.00  0.00    +0.000 C 
ENDBRANCH  21  22
ENDBRANCH  14  15
ENDBRANCH  13  14
ENDBRANCH   1  13
TORSDOF 7
ENDMDL
MODEL 2
REMARK VINA RESULT:      -7.1      4.239      7.127
REMARK  Name = 
REMARK  13 active torsions:
REMARK  status: ('A' for Active; 'I' for Inactive)
REMARK    1  A    between atoms: C_1  and  C_2
REMARK    2  A    between atoms: C_5  and  C_6
REMARK    3  A    between atoms: C_6  and  C_7
REMARK    4  A    between atoms: C_6  and  C_8
REMARK    5  A    between atoms: C_9  and  O_10
REMARK    6  A    between atoms: O_10  and  S_11
REMARK    7  A    between atoms: S_11  and  S_12
REMARK    8  A    between atoms: S_12  and  O_13
REMARK    9  A    between atoms: O_13  and  C_14
REMARK   10  A    between atoms: C_16  and  C_17
REMARK   11  A    between atoms: C_20  and  C_21
REMARK   12  A    between atoms: C_21  and  C_22
REMARK   13  A    between atoms: C_21  and  C_23
REMARK                            x       y       z     vdW  Elec       q    Type
REMARK                         _______ _______ _______ _____ _____    ______ ____
ROOT
ATOM      1  S   UNL     1       2.251   8.886  17.930  0.00  0.00    +0.000 S 
ENDROOT
BRANCH   1   2
ATOM      2  O   UNL     1       0.821   9.719  17.906  0.00  0.00    +0.000 OA
BRANCH   2   8
ATOM      3  C   UNL     1      -3.406   9.976  17.651  0.00  0.00    +0.000 C 
ATOM      4  C   UNL     1      -1.964  10.462  17.788  0.00  0.00    +0.000 C 
ATOM      5  C   UNL     1      -1.917  11.978  17.958  0.00  0.00    +0.000 C 
ATOM      6  C   UNL     1      -0.491  12.496  18.144  0.00  0.00    +0.000 C 
ATOM      7  C   UNL     1       0.230  11.797  19.315  0.00  0.00    +0.000 C 
ATOM      8  C   UNL     1       0.217  10.247  19.093  0.00  0.00    +0.000 C 
ATOM      9  C   UNL     1      -1.253   9.773  18.965  0.00  0.00    +0.000 C 
BRANCH   7  10
ATOM     10  C   UNL     1       1.624  12.432  19.633  0.00  0.00    +0.000 C 
ATOM     11  C   UNL     1       2.329  13.020  18.402  0.00  0.00    +0.000 C 
ATOM     12  C   UNL     1       1.528  13.574  20.653  0.00  0.00    +0.000 C 
ENDBRANCH   7  10
ENDBRANCH   2   8
ENDBRANCH   1   2
BRANCH   1  13
ATOM     13  S   UNL     1       2.010   7.725  19.595  0.00  0.00    +0.000 S 
BRANCH  13  14
ATOM     14  O   UNL     1       2.145   6.226  18.908  0.00  0.00    +0.000 OA
BRANCH  14  15
ATOM     15  C   UNL     1       3.121   5.353  19.497  0.00  0.00    +0.000 C 
ATOM     16  C   UNL     1       4.542   5.658  18.984  0.00  0.00    +0.000 C 
ATOM     17  C   UNL     1       4.588   5.613  17.453  0.00  0.00    +0.000 C 
ATOM     18  C   UNL     1       5.975   5.985  16.942  0.00  0.00    +0.000 C 
ATOM     19  C   UNL     1       4.150   4.227  16.971  0.00  0.00    +0.000 C 
ATOM     20  C   UNL     1       2.791   3.801  17.543  0.00  0.00    +0.000 C 
ATOM     21  C   UNL     1       2.722   3.911  19.089  0.00  0.00    +0.000 C 
BRANCH  21  22
ATOM     22  C   UNL     1       1.312   3.504  19.632  0.00  0.00    +0.000 C 
ATOM     23  C   UNL     1       0.702   2.336  18.848  0.00  0.00    +0.000 C 
ATOM     24  C   UNL     1       1.348   3.114  21.116  0.00  0.00    +0.000 C 
ENDBRANCH  21  22
ENDBRANCH  14  15
ENDBRANCH  13  14
ENDBRANCH   1  13
TORSDOF 7
ENDMDL
MODEL 3
REMARK VINA RESULT:      -7.0      3.949      7.436
REMARK  Name = 
REMARK  13 active torsions:
REMARK  status: ('A' for Active; 'I' for Inactive)
REMARK    1  A    between atoms: C_1  and  C_2
REMARK    2  A    between atoms: C_5  and  C_6
REMARK    3  A    between atoms: C_6  and  C_7
REMARK    4  A    between atoms: C_6  and  C_8
REMARK    5  A    between atoms: C_9  and  O_10
REMARK    6  A    between atoms: O_10  and  S_11
REMARK    7  A    between atoms: S_11  and  S_12
REMARK    8  A    between atoms: S_12  and  O_13
REMARK    9  A    between atoms: O_13  and  C_14
REMARK   10  A    between atoms: C_16  and  C_17
REMARK   11  A    between atoms: C_20  and  C_21
REMARK   12  A    between atoms: C_21  and  C_22
REMARK   13  A    between atoms: C_21  and  C_23
REMARK                            x       y       z     vdW  Elec       q    Type
REMARK                         _______ _______ _______ _____ _____    ______ ____
ROOT
ATOM      1  S   UNL     1       1.899   8.784  17.960  0.00  0.00    +0.000 S 
ENDROOT
BRANCH   1   2
ATOM      2  O   UNL     1       1.418  10.095  18.848  0.00  0.00    +0.000 OA
BRANCH   2   8
ATOM      3  C   UNL     1      -0.277  13.926  18.178  0.00  0.00    +0.000 C 
ATOM      4  C   UNL     1       0.262  12.736  18.969  0.00  0.00    +0.000 C 
ATOM      5  C   UNL     1       0.149  12.987  20.471  0.00  0.00    +0.000 C 
ATOM      6  C   UNL     1       0.639  11.796  21.296  0.00  0.00    +0.000 C 
ATOM      7  C   UNL     1      -0.083  10.489  20.909  0.00  0.00    +0.000 C 
ATOM      8  C   UNL     1       0.091  10.223  19.375  0.00  0.00    +0.000 C 
ATOM      9  C   UNL     1      -0.469  11.437  18.591  0.00  0.00    +0.000 C 
BRANCH   7  10
ATOM     10  C   UNL     1       0.275   9.297  21.856  0.00  0.00    +0.000 C 
ATOM     11  C   UNL     1      -0.016   9.577  23.337  0.00  0.00    +0.000 C 
ATOM     12  C   UNL     1      -0.498   8.018  21.506  0.00  0.00    +0.000 C 
ENDBRANCH   7  10
ENDBRANCH   2   8
ENDBRANCH   1   2
BRANCH   1  13
ATOM     13  S   UNL     1       2.349   7.443  19.436  0.00  0.00    +0.000 S 
BRANCH  13  14
ATOM     14  O   UNL     1       2.911   6.193  18.510  0.00  0.00    +0.000 OA
BRANCH  14  15
ATOM     15  C   UNL     1       3.631   5.168  19.213  0.00  0.00    +0.000 C 
ATOM     16  C   UNL     1       5.120   5.145  18.817  0.00  0.00    +0.000 C 
ATOM     17  C   UNL     1       5.276   5.011  17.298  0.00  0.00    +0.000 C 
ATOM     18  C   UNL     1       6.747   5.059  16.899  0.00  0.00    +0.000 C 
ATOM     19  C   UNL     1       4.595   3.723  16.828  0.00  0.00    +0.000 C 
ATOM     20  C   UNL     1       3.135   3.619  17.292  0.00  0.00    +0.000 C 
ATOM     21  C   UNL     1       2.970   3.821  18.821  0.00  0.00    +0.000 C 
BRANCH  21  22
ATOM     22  C   UNL     1       1.468   3.744  19.251  0.00  0.00    +0.000 C 
ATOM     23  C   UNL     1       0.772   2.487  18.715  0.00  0.00    +0.000 C 
ATOM     24  C   UNL     1       1.295   3.770  20.777  0.00  0.00    +0.000 C 
ENDBRANCH  21  22
ENDBRANCH  14  15
ENDBRANCH  13  14
ENDBRANCH   1  13
TORSDOF 7
ENDMDL
MODEL 4
REMARK VINA RESULT:      -7.0      4.285      7.724
REMARK  Name = 
REMARK  13 active torsions:
REMARK  status: ('A' for Active; 'I' for Inactive)
REMARK    1  A    between atoms: C_1  and  C_2
REMARK    2  A    between atoms: C_5  and  C_6
REMARK    3  A    between atoms: C_6  and  C_7
REMARK    4  A    between atoms: C_6  and  C_8
REMARK    5  A    between atoms: C_9  and  O_10
REMARK    6  A    between atoms: O_10  and  S_11
REMARK    7  A    between atoms: S_11  and  S_12
REMARK    8  A    between atoms: S_12  and  O_13
REMARK    9  A    between atoms: O_13  and  C_14
REMARK   10  A    between atoms: C_16  and  C_17
REMARK   11  A    between atoms: C_20  and  C_21
REMARK   12  A    between atoms: C_21  and  C_22
REMARK   13  A    between atoms: C_21  and  C_23
REMARK                            x       y       z     vdW  Elec       q    Type
REMARK                         _______ _______ _______ _____ _____    ______ ____
ROOT
ATOM      1  S   UNL     1       1.926   8.682  18.302  0.00  0.00    +0.000 S 
ENDROOT
BRANCH   1   2
ATOM      2  O   UNL     1       0.762   9.645  18.976  0.00  0.00    +0.000 OA
BRANCH   2   8
ATOM      3  C   UNL     1       2.229  13.230  20.708  0.00  0.00    +0.000 C 
ATOM      4  C   UNL     1       1.204  12.183  20.277  0.00  0.00    +0.000 C 
ATOM      5  C   UNL     1      -0.210  12.621  20.651  0.00  0.00    +0.000 C 
ATOM      6  C   UNL     1      -1.268  11.617  20.194  0.00  0.00    +0.000 C 
ATOM      7  C   UNL     1      -1.173  11.325  18.682  0.00  0.00    +0.000 C 
ATOM      8  C   UNL     1       0.269  10.825  18.330  0.00  0.00    +0.000 C 
ATOM      9  C   UNL     1       1.292  11.904  18.767  0.00  0.00    +0.000 C 
BRANCH   7  10
ATOM     10  C   UNL     1      -2.352  10.438  18.162  0.00  0.00    +0.000 C 
ATOM     11  C   UNL     1      -3.693  11.181  18.079  0.00  0.00    +0.000 C 
ATOM     12  C   UNL     1      -2.088   9.879  16.757  0.00  0.00    +0.000 C 
ENDBRANCH   7  10
ENDBRANCH   2   8
ENDBRANCH   1   2
BRANCH   1  13
ATOM     13  S   UNL     1       2.195   7.289  19.774  0.00  0.00    +0.000 S 
BRANCH  13  14
ATOM     14  O   UNL     1       2.701   6.010  18.855  0.00  0.00    +0.000 OA
BRANCH  14  15
ATOM     15  C   UNL     1       3.510   5.035  19.530  0.00  0.00    +0.000 C 
ATOM     16  C   UNL     1       4.985   5.114  19.090  0.00  0.00    +0.000 C 
ATOM     17  C   UNL     1       5.103   4.996  17.566  0.00  0.00    +0.000 C 
ATOM     18  C   UNL     1       6.554   5.145  17.123  0.00  0.00    +0.000 C 
ATOM     19  C   UNL     1       4.497   3.666  17.110  0.00  0.00    +0.000 C 
ATOM     20  C   UNL     1       3.063   3.461  17.617  0.00  0.00    +0.000 C 
ATOM     21  C   UNL     1       2.930   3.647  19.151  0.00  0.00    +0.000 C 
BRANCH  21  22
ATOM     22  C   UNL     1       1.450   3.467  19.626  0.00  0.00    +0.000 C 
ATOM     23  C   UNL     1       0.702   2.406  18.809  0.00  0.00    +0.000 C 
ATOM     24  C   UNL     1       1.355   3.081  21.109  0.00  0.00    +0.000 C 
ENDBRANCH  21  22
ENDBRANCH  14  15
ENDBRANCH  13  14
ENDBRANCH   1  13
TORSDOF 7
ENDMDL
MODEL 5
REMARK VINA RESULT:      -7.0      4.626      8.431
REMARK  Name = 
REMARK  13 active torsions:
REMARK  status: ('A' for Active; 'I' for Inactive)
REMARK    1  A    between atoms: C_1  and  C_2
REMARK    2  A    between atoms: C_5  and  C_6
REMARK    3  A    between atoms: C_6  and  C_7
REMARK    4  A    between atoms: C_6  and  C_8
REMARK    5  A    between atoms: C_9  and  O_10
REMARK    6  A    between atoms: O_10  and  S_11
REMARK    7  A    between atoms: S_11  and  S_12
REMARK    8  A    between atoms: S_12  and  O_13
REMARK    9  A    between atoms: O_13  and  C_14
REMARK   10  A    between atoms: C_16  and  C_17
REMARK   11  A    between atoms: C_20  and  C_21
REMARK   12  A    between atoms: C_21  and  C_22
REMARK   13  A    between atoms: C_21  and  C_23
REMARK                            x       y       z     vdW  Elec       q    Type
REMARK                         _______ _______ _______ _____ _____    ______ ____
ROOT
ATOM      1  S   UNL     1       1.239   8.850  20.069  0.00  0.00    +0.000 S 
ENDROOT
BRANCH   1   2
ATOM      2  O   UNL     1      -0.094   9.736  19.647  0.00  0.00    +0.000 OA
BRANCH   2   8
ATOM      3  C   UNL     1       0.378  13.675  21.151  0.00  0.00    +0.000 C 
ATOM      4  C   UNL     1      -0.294  12.504  20.437  0.00  0.00    +0.000 C 
ATOM      5  C   UNL     1      -1.642  12.924  19.858  0.00  0.00    +0.000 C 
ATOM      6  C   UNL     1      -2.325  11.788  19.096  0.00  0.00    +0.000 C 
ATOM      7  C   UNL     1      -1.418  11.206  17.992  0.00  0.00    +0.000 C 
ATOM      8  C   UNL     1      -0.063  10.732  18.617  0.00  0.00    +0.000 C 
ATOM      9  C   UNL     1       0.607  11.934  19.329  0.00  0.00    +0.000 C 
BRANCH   7  10
ATOM     10  C   UNL     1      -2.157  10.164  17.088  0.00  0.00    +0.000 C 
ATOM     11  C   UNL     1      -3.408   9.559  17.741  0.00  0.00    +0.000 C 
ATOM     12  C   UNL     1      -2.624  10.769  15.758  0.00  0.00    +0.000 C 
ENDBRANCH   7  10
ENDBRANCH   2   8
ENDBRANCH   1   2
BRANCH   1  13
ATOM     13  S   UNL     1       2.041   8.434  18.236  0.00  0.00    +0.000 S 
BRANCH  13  14
ATOM     14  O   UNL     1       2.972   7.126  18.632  0.00  0.00    +0.000 OA
BRANCH  14  15
ATOM     15  C   UNL     1       2.785   5.955  17.822  0.00  0.00    +0.000 C 
ATOM     16  C   UNL     1       1.780   4.975  18.459  0.00  0.00    +0.000 C 
ATOM     17  C   UNL     1       2.204   4.618  19.888  0.00  0.00    +0.000 C 
ATOM     18  C   UNL     1       1.174   3.704  20.544  0.00  0.00    +0.000 C 
ATOM     19  C   UNL     1       3.598   3.986  19.862  0.00  0.00    +0.000 C 
ATOM     20  C   UNL     1       4.631   4.855  19.131  0.00  0.00    +0.000 C 
ATOM     21  C   UNL     1       4.173   5.273  17.710  0.00  0.00    +0.000 C 
BRANCH  21  22
ATOM     22  C   UNL     1       5.234   6.187  17.010  0.00  0.00    +0.000 C 
ATOM     23  C   UNL     1       6.581   6.180  17.742  0.00  0.00    +0.000 C 
ATOM     24  C   UNL     1       5.482   5.782  15.550  0.00  0.00    +0.000 C 
ENDBRANCH  21  22
ENDBRANCH  14  15
ENDBRANCH  13  14
ENDBRANCH   1  13
TORSDOF 7
ENDMDL
MODEL 6
REMARK VINA RESULT:      -7.0      4.087      7.960
REMARK  Name = 
REMARK  13 active torsions:
REMARK  status: ('A' for Active; 'I' for Inactive)
REMARK    1  A    between atoms: C_1  and  C_2
REMARK    2  A    between atoms: C_5  and  C_6
REMARK    3  A    between atoms: C_6  and  C_7
REMARK    4  A    between atoms: C_6  and  C_8
REMARK    5  A    between atoms: C_9  and  O_10
REMARK    6  A    between atoms: O_10  and  S_11
REMARK    7  A    between atoms: S_11  and  S_12
REMARK    8  A    between atoms: S_12  and  O_13
REMARK    9  A    between atoms: O_13  and  C_14
REMARK   10  A    between atoms: C_16  and  C_17
REMARK   11  A    between atoms: C_20  and  C_21
REMARK   12  A    between atoms: C_21  and  C_22
REMARK   13  A    between atoms: C_21  and  C_23
REMARK                            x       y       z     vdW  Elec       q    Type
REMARK                         _______ _______ _______ _____ _____    ______ ____
ROOT
ATOM      1  S   UNL     1       2.042   8.275  18.257  0.00  0.00    +0.000 S 
ENDROOT
BRANCH   1   2
ATOM      2  O   UNL     1       0.872   9.324  18.776  0.00  0.00    +0.000 OA
BRANCH   2   8
ATOM      3  C   UNL     1       1.622  12.977  20.800  0.00  0.00    +0.000 C 
ATOM      4  C   UNL     1       0.808  11.870  20.132  0.00  0.00    +0.000 C 
ATOM      5  C   UNL     1      -0.680  12.212  20.138  0.00  0.00    +0.000 C 
ATOM      6  C   UNL     1      -1.522  11.147  19.436  0.00  0.00    +0.000 C 
ATOM      7  C   UNL     1      -1.033  10.879  17.998  0.00  0.00    +0.000 C 
ATOM      8  C   UNL     1       0.480  10.477  18.020  0.00  0.00    +0.000 C 
ATOM      9  C   UNL     1       1.289  11.614  18.694  0.00  0.00    +0.000 C 
BRANCH   7  10
ATOM     10  C   UNL     1      -1.984   9.923  17.204  0.00  0.00    +0.000 C 
ATOM     11  C   UNL     1      -3.252   9.534  17.977  0.00  0.00    +0.000 C 
ATOM     12  C   UNL     1      -2.464  10.539  15.883  0.00  0.00    +0.000 C 
ENDBRANCH   7  10
ENDBRANCH   2   8
ENDBRANCH   1   2
BRANCH   1  13
ATOM     13  S   UNL     1       2.221   7.041  19.877  0.00  0.00    +0.000 S 
BRANCH  13  14
ATOM     14  O   UNL     1       3.085   5.809  19.191  0.00  0.00    +0.000 OA
BRANCH  14  15
ATOM     15  C   UNL     1       2.683   5.423  17.868  0.00  0.00    +0.000 C 
ATOM     16  C   UNL     1       1.516   4.415  17.898  0.00  0.00    +0.000 C 
ATOM     17  C   UNL     1       1.871   3.201  18.764  0.00  0.00    +0.000 C 
ATOM     18  C   UNL     1       0.693   2.237  18.852  0.00  0.00    +0.000 C 
ATOM     19  C   UNL     1       3.125   2.525  18.202  0.00  0.00    +0.000 C 
ATOM     20  C   UNL     1       4.298   3.499  18.027  0.00  0.00    +0.000 C 
ATOM     21  C   UNL     1       3.920   4.761  17.209  0.00  0.00    +0.000 C 
BRANCH  21  22
ATOM     22  C   UNL     1       5.129   5.747  17.082  0.00  0.00    +0.000 C 
ATOM     23  C   UNL     1       6.338   5.295  17.911  0.00  0.00    +0.000 C 
ATOM     24  C   UNL     1       5.588   5.926  15.628  0.00  0.00    +0.000 C 
ENDBRANCH  21  22
ENDBRANCH  14  15
ENDBRANCH  13  14
ENDBRANCH   1  13
TORSDOF 7
ENDMDL
MODEL 7
REMARK VINA RESULT:      -7.0      4.424      6.556
REMARK  Name = 
REMARK  13 active torsions:
REMARK  status: ('A' for Active; 'I' for Inactive)
REMARK    1  A    between atoms: C_1  and  C_2
REMARK    2  A    between atoms: C_5  and  C_6
REMARK    3  A    between atoms: C_6  and  C_7
REMARK    4  A    between atoms: C_6  and  C_8
REMARK    5  A    between atoms: C_9  and  O_10
REMARK    6  A    between atoms: O_10  and  S_11
REMARK    7  A    between atoms: S_11  and  S_12
REMARK    8  A    between atoms: S_12  and  O_13
REMARK    9  A    between atoms: O_13  and  C_14
REMARK   10  A    between atoms: C_16  and  C_17
REMARK   11  A    between atoms: C_20  and  C_21
REMARK   12  A    between atoms: C_21  and  C_22
REMARK   13  A    between atoms: C_21  and  C_23
REMARK                            x       y       z     vdW  Elec       q    Type
REMARK                         _______ _______ _______ _____ _____    ______ ____
ROOT
ATOM      1  S   UNL     1       2.324   8.274  18.041  0.00  0.00    +0.000 S 
ENDROOT
BRANCH   1   2
ATOM      2  O   UNL     1       2.165   6.627  18.026  0.00  0.00    +0.000 OA
BRANCH   2   8
ATOM      3  C   UNL     1       5.922   5.677  16.296  0.00  0.00    +0.000 C 
ATOM      4  C   UNL     1       4.520   5.439  16.856  0.00  0.00    +0.000 C 
ATOM      5  C   UNL     1       4.171   3.953  16.828  0.00  0.00    +0.000 C 
ATOM      6  C   UNL     1       2.791   3.671  17.423  0.00  0.00    +0.000 C 
ATOM      7  C   UNL     1       2.653   4.233  18.853  0.00  0.00    +0.000 C 
ATOM      8  C   UNL     1       2.963   5.768  18.850  0.00  0.00    +0.000 C 
ATOM      9  C   UNL     1       4.390   5.988  18.287  0.00  0.00    +0.000 C 
BRANCH   7  10
ATOM     10  C   UNL     1       1.316   3.805  19.545  0.00  0.00    +0.000 C 
ATOM     11  C   UNL     1       0.656   2.577  18.903  0.00  0.00    +0.000 C 
ATOM     12  C   UNL     1       1.509   3.458  21.027  0.00  0.00    +0.000 C 
ENDBRANCH   7  10
ENDBRANCH   2   8
ENDBRANCH   1   2
BRANCH   1  13
ATOM     13  S   UNL     1       1.486   8.740  19.846  0.00  0.00    +0.000 S 
BRANCH  13  14
ATOM     14  O   UNL     1       0.621  10.081  19.411  0.00  0.00    +0.000 OA
BRANCH  14  15
ATOM     15  C   UNL     1      -0.747  10.112  19.845  0.00  0.00    +0.000 C 
ATOM     16  C   UNL     1      -1.713   9.700  18.716  0.00  0.00    +0.000 C 
ATOM     17  C   UNL     1      -1.490  10.565  17.471  0.00  0.00    +0.000 C 
ATOM     18  C   UNL     1      -2.395  10.113  16.329  0.00  0.00    +0.000 C 
ATOM     19  C   UNL     1      -1.710  12.038  17.828  0.00  0.00    +0.000 C 
ATOM     20  C   UNL     1      -0.867  12.489  19.030  0.00  0.00    +0.000 C 
ATOM     21  C   UNL     1      -1.040  11.574  20.269  0.00  0.00    +0.000 C 
BRANCH  21  22
ATOM     22  C   UNL     1      -0.140  12.043  21.460  0.00  0.00    +0.000 C 
ATOM     23  C   UNL     1       0.742  13.241  21.086  0.00  0.00    +0.000 C 
ATOM     24  C   UNL     1      -0.962  12.425  22.699  0.00  0.00    +0.000 C 
ENDBRANCH  21  22
ENDBRANCH  14  15
ENDBRANCH  13  14
ENDBRANCH   1  13
TORSDOF 7
ENDMDL
MODEL 8
REMARK VINA RESULT:      -6.9      4.413      7.574
REMARK  Name = 
REMARK  13 active torsions:
REMARK  status: ('A' for Active; 'I' for Inactive)
REMARK    1  A    between atoms: C_1  and  C_2
REMARK    2  A    between atoms: C_5  and  C_6
REMARK    3  A    between atoms: C_6  and  C_7
REMARK    4  A    between atoms: C_6  and  C_8
REMARK    5  A    between atoms: C_9  and  O_10
REMARK    6  A    between atoms: O_10  and  S_11
REMARK    7  A    between atoms: S_11  and  S_12
REMARK    8  A    between atoms: S_12  and  O_13
REMARK    9  A    between atoms: O_13  and  C_14
REMARK   10  A    between atoms: C_16  and  C_17
REMARK   11  A    between atoms: C_20  and  C_21
REMARK   12  A    between atoms: C_21  and  C_22
REMARK   13  A    between atoms: C_21  and  C_23
REMARK                            x       y       z     vdW  Elec       q    Type
REMARK                         _______ _______ _______ _____ _____    ______ ____
ROOT
ATOM      1  S   UNL     1       1.532   9.013  17.954  0.00  0.00    +0.000 S 
ENDROOT
BRANCH   1   2
ATOM      2  O   UNL     1       0.791  10.224  18.804  0.00  0.00    +0.000 OA
BRANCH   2   8
ATOM      3  C   UNL     1      -2.611  10.476  16.281  0.00  0.00    +0.000 C 
ATOM      4  C   UNL     1      -1.660  10.851  17.417  0.00  0.00    +0.000 C 
ATOM      5  C   UNL     1      -2.193  12.049  18.197  0.00  0.00    +0.000 C 
ATOM      6  C   UNL     1      -1.289  12.425  19.372  0.00  0.00    +0.000 C 
ATOM      7  C   UNL     1      -1.042  11.230  20.315  0.00  0.00    +0.000 C 
ATOM      8  C   UNL     1      -0.444  10.031  19.504  0.00  0.00    +0.000 C 
ATOM      9  C   UNL     1      -1.426   9.662  18.363  0.00  0.00    +0.000 C 
BRANCH   7  10
ATOM     10  C   UNL     1      -0.266  11.634  21.612  0.00  0.00    +0.000 C 
ATOM     11  C   UNL     1      -0.003  13.142  21.729  0.00  0.00    +0.000 C 
ATOM     12  C   UNL     1      -1.013  11.233  22.891  0.00  0.00    +0.000 C 
ENDBRANCH   7  10
ENDBRANCH   2   8
ENDBRANCH   1   2
BRANCH   1  13
ATOM     13  S   UNL     1       2.009   7.706  19.451  0.00  0.00    +0.000 S 
BRANCH  13  14
ATOM     14  O   UNL     1       2.473   6.404  18.543  0.00  0.00    +0.000 OA
BRANCH  14  15
ATOM     15  C   UNL     1       3.429   5.524  19.153  0.00  0.00    +0.000 C 
ATOM     16  C   UNL     1       4.823   5.663  18.511  0.00  0.00    +0.000 C 
ATOM     17  C   UNL     1       4.745   5.457  16.995  0.00  0.00    +0.000 C 
ATOM     18  C   UNL     1       6.111   5.664  16.349  0.00  0.00    +0.000 C 
ATOM     19  C   UNL     1       4.176   4.066  16.700  0.00  0.00    +0.000 C 
ATOM     20  C   UNL     1       2.840   3.808  17.409  0.00  0.00    +0.000 C 
ATOM     21  C   UNL     1       2.901   4.082  18.934  0.00  0.00    +0.000 C 
BRANCH  21  22
ATOM     22  C   UNL     1       1.513   3.844  19.617  0.00  0.00    +0.000 C 
ATOM     23  C   UNL     1       0.806   2.595  19.077  0.00  0.00    +0.000 C 
ATOM     24  C   UNL     1       1.628   3.706  21.142  0.00  0.00    +0.000 C 
ENDBRANCH  21  22
ENDBRANCH  14  15
ENDBRANCH  13  14
ENDBRANCH   1  13
TORSDOF 7
ENDMDL
MODEL 9
REMARK VINA RESULT:      -6.9      4.851      6.734
REMARK  Name = 
REMARK  13 active torsions:
REMARK  status: ('A' for Active; 'I' for Inactive)
REMARK    1  A    between atoms: C_1  and  C_2
REMARK    2  A    between atoms: C_5  and  C_6
REMARK    3  A    between atoms: C_6  and  C_7
REMARK    4  A    between atoms: C_6  and  C_8
REMARK    5  A    between atoms: C_9  and  O_10
REMARK    6  A    between atoms: O_10  and  S_11
REMARK    7  A    between atoms: S_11  and  S_12
REMARK    8  A    between atoms: S_12  and  O_13
REMARK    9  A    between atoms: O_13  and  C_14
REMARK   10  A    between atoms: C_16  and  C_17
REMARK   11  A    between atoms: C_20  and  C_21
REMARK   12  A    between atoms: C_21  and  C_22
REMARK   13  A    between atoms: C_21  and  C_23
REMARK                            x       y       z     vdW  Elec       q    Type
REMARK                         _______ _______ _______ _____ _____    ______ ____
ROOT
ATOM      1  S   UNL     1       1.878   8.638  18.217  0.00  0.00    +0.000 S 
ENDROOT
BRANCH   1   2
ATOM      2  O   UNL     1       2.311   7.148  18.792  0.00  0.00    +0.000 OA
BRANCH   2   8
ATOM      3  C   UNL     1       1.191   3.360  20.340  0.00  0.00    +0.000 C 
ATOM      4  C   UNL     1       2.118   4.468  19.844  0.00  0.00    +0.000 C 
ATOM      5  C   UNL     1       3.575   4.014  19.880  0.00  0.00    +0.000 C 
ATOM      6  C   UNL     1       4.529   5.083  19.347  0.00  0.00    +0.000 C 
ATOM      7  C   UNL     1       4.141   5.548  17.928  0.00  0.00    +0.000 C 
ATOM      8  C   UNL     1       2.661   6.060  17.926  0.00  0.00    +0.000 C 
ATOM      9  C   UNL     1       1.737   4.920  18.425  0.00  0.00    +0.000 C 
BRANCH   7  10
ATOM     10  C   UNL     1       5.200   6.510  17.296  0.00  0.00    +0.000 C 
ATOM     11  C   UNL     1       6.634   6.251  17.778  0.00  0.00    +0.000 C 
ATOM     12  C   UNL     1       5.242   6.411  15.766  0.00  0.00    +0.000 C 
ENDBRANCH   7  10
ENDBRANCH   2   8
ENDBRANCH   1   2
BRANCH   1  13
ATOM     13  S   UNL     1       1.046   9.482  19.883  0.00  0.00    +0.000 S 
BRANCH  13  14
ATOM     14  O   UNL     1      -0.372  10.034  19.233  0.00  0.00    +0.000 OA
BRANCH  14  15
ATOM     15  C   UNL     1      -0.274  11.226  18.438  0.00  0.00    +0.000 C 
ATOM     16  C   UNL     1       0.198  12.431  19.274  0.00  0.00    +0.000 C 
ATOM     17  C   UNL     1      -0.706  12.633  20.495  0.00  0.00    +0.000 C 
ATOM     18  C   UNL     1      -0.198  13.780  21.362  0.00  0.00    +0.000 C 
ATOM     19  C   UNL     1      -2.147  12.859  20.030  0.00  0.00    +0.000 C 
ATOM     20  C   UNL     1      -2.648  11.755  19.088  0.00  0.00    +0.000 C 
ATOM     21  C   UNL     1      -1.698  11.505  17.889  0.00  0.00    +0.000 C 
BRANCH  21  22
ATOM     22  C   UNL     1      -2.221  10.349  16.972  0.00  0.00    +0.000 C 
ATOM     23  C   UNL     1      -3.336   9.536  17.641  0.00  0.00    +0.000 C 
ATOM     24  C   UNL     1      -2.749  10.864  15.626  0.00  0.00    +0.000 C 
ENDBRANCH  21  22
ENDBRANCH  14  15
ENDBRANCH  13  14
ENDBRANCH   1  13
TORSDOF 7
ENDMDL
