MODEL 1
REMARK VINA RESULT:      -7.0      0.000      0.000
REMARK  Name = 
REMARK  2 active torsions:
REMARK  status: ('A' for Active; 'I' for Inactive)
REMARK    1  A    between atoms: C_1  and  C_2
REMARK    2  A    between atoms: N_7  and  C_8
REMARK                            x       y       z     vdW  Elec       q    Type
REMARK                         _______ _______ _______ _____ _____    ______ ____
ROOT
ATOM      1  C   UNL     1       1.332   3.003  21.546  0.00  0.00    +0.000 C 
ATOM      2  C   UNL     1       2.110   3.373  20.319  0.00  0.00    +0.000 A 
ATOM      3  N   UNL     1       3.401   3.511  20.365  0.00  0.00    +0.000 NA
ATOM      4  C   UNL     1       3.963   3.845  19.173  0.00  0.00    +0.000 A 
ATOM      5  S   UNL     1       5.635   4.096  18.952  0.00  0.00    +0.000 S 
ATOM      6  C   UNL     1       5.373   4.386  17.261  0.00  0.00    +0.000 A 
ATOM      7  N   UNL     1       6.446   4.593  16.456  0.00  0.00    +0.000 N 
ATOM      8  N   UNL     1       4.109   4.347  16.895  0.00  0.00    +0.000 NA
ATOM      9  C   UNL     1       3.313   4.038  17.973  0.00  0.00    +0.000 A 
ATOM     10  C   UNL     1       1.870   3.890  17.951  0.00  0.00    +0.000 A 
ATOM     11  O   UNL     1       1.156   4.040  16.967  0.00  0.00    +0.000 OA
ATOM     12  N   UNL     1       1.345   3.549  19.182  0.00  0.00    +0.000 N 
ATOM     13  H   UNL     1       7.354   4.561  16.902  0.00  0.00    +0.000 HD
ATOM     14  H   UNL     1       0.343   3.437  19.203  0.00  0.00    +0.000 HD
ENDROOT
BRANCH   7  15
ATOM     15  C   UNL     1       6.487   4.474  15.054  0.00  0.00    +0.000 A 
ATOM     16  C   UNL     1       5.655   3.618  14.319  0.00  0.00    +0.000 A 
ATOM     17  C   UNL     1       5.788   3.482  12.934  0.00  0.00    +0.000 A 
ATOM     18  C   UNL     1       6.757   4.210  12.254  0.00  0.00    +0.000 A 
ATOM     19  C   UNL     1       7.582   5.084  12.956  0.00  0.00    +0.000 A 
ATOM     20  C   UNL     1       7.443   5.219  14.342  0.00  0.00    +0.000 A 
ENDBRANCH   7  15
TORSDOF 1
ENDMDL
MODEL 2
REMARK VINA RESULT:      -7.0      0.709      1.325
REMARK  Name = 
REMARK  2 active torsions:
REMARK  status: ('A' for Active; 'I' for Inactive)
REMARK    1  A    between atoms: C_1  and  C_2
REMARK    2  A    between atoms: N_7  and  C_8
REMARK                            x       y       z     vdW  Elec       q    Type
REMARK                         _______ _______ _______ _____ _____    ______ ____
ROOT
ATOM      1  C   UNL     1       2.165   3.305  21.514  0.00  0.00    +0.000 C 
ATOM      2  C   UNL     1       2.847   3.630  20.219  0.00  0.00    +0.000 A 
ATOM      3  N   UNL     1       4.064   4.082  20.201  0.00  0.00    +0.000 NA
ATOM      4  C   UNL     1       4.544   4.326  18.952  0.00  0.00    +0.000 A 
ATOM      5  S   UNL     1       6.107   4.931  18.641  0.00  0.00    +0.000 S 
ATOM      6  C   UNL     1       5.806   4.845  16.934  0.00  0.00    +0.000 A 
ATOM      7  N   UNL     1       6.807   5.160  16.074  0.00  0.00    +0.000 N 
ATOM      8  N   UNL     1       4.595   4.437  16.618  0.00  0.00    +0.000 NA
ATOM      9  C   UNL     1       3.883   4.140  17.757  0.00  0.00    +0.000 A 
ATOM     10  C   UNL     1       2.520   3.644  17.805  0.00  0.00    +0.000 A 
ATOM     11  O   UNL     1       1.805   3.440  16.832  0.00  0.00    +0.000 OA
ATOM     12  N   UNL     1       2.078   3.410  19.092  0.00  0.00    +0.000 N 
ATOM     13  H   UNL     1       7.689   5.430  16.491  0.00  0.00    +0.000 HD
ATOM     14  H   UNL     1       1.133   3.063  19.162  0.00  0.00    +0.000 HD
ENDROOT
BRANCH   7  15
ATOM     15  C   UNL     1       6.895   4.809  14.713  0.00  0.00    +0.000 A 
ATOM     16  C   UNL     1       7.711   5.474  13.787  0.00  0.00    +0.000 A 
ATOM     17  C   UNL     1       7.704   5.133  12.432  0.00  0.00    +0.000 A 
ATOM     18  C   UNL     1       6.883   4.109  11.976  0.00  0.00    +0.000 A 
ATOM     19  C   UNL     1       6.080   3.417  12.878  0.00  0.00    +0.000 A 
ATOM     20  C   UNL     1       6.091   3.761  14.234  0.00  0.00    +0.000 A 
ENDBRANCH   7  15
TORSDOF 1
ENDMDL
MODEL 3
REMARK VINA RESULT:      -6.8      2.163      6.595
REMARK  Name = 
REMARK  2 active torsions:
REMARK  status: ('A' for Active; 'I' for Inactive)
REMARK    1  A    between atoms: C_1  and  C_2
REMARK    2  A    between atoms: N_7  and  C_8
REMARK                            x       y       z     vdW  Elec       q    Type
REMARK                         _______ _______ _______ _____ _____    ______ ____
ROOT
ATOM      1  C   UNL     1       8.690   5.967  12.252  0.00  0.00    +0.000 C 
ATOM      2  C   UNL     1       7.762   5.351  13.256  0.00  0.00    +0.000 A 
ATOM      3  N   UNL     1       7.929   5.551  14.529  0.00  0.00    +0.000 NA
ATOM      4  C   UNL     1       7.005   4.931  15.311  0.00  0.00    +0.000 A 
ATOM      5  S   UNL     1       6.995   5.018  17.013  0.00  0.00    +0.000 S 
ATOM      6  C   UNL     1       5.554   4.051  17.059  0.00  0.00    +0.000 A 
ATOM      7  N   UNL     1       4.961   3.812  18.256  0.00  0.00    +0.000 N 
ATOM      8  N   UNL     1       5.137   3.647  15.878  0.00  0.00    +0.000 NA
ATOM      9  C   UNL     1       5.954   4.146  14.890  0.00  0.00    +0.000 A 
ATOM     10  C   UNL     1       5.796   3.929  13.464  0.00  0.00    +0.000 A 
ATOM     11  O   UNL     1       4.920   3.249  12.942  0.00  0.00    +0.000 OA
ATOM     12  N   UNL     1       6.754   4.579  12.712  0.00  0.00    +0.000 N 
ATOM     13  H   UNL     1       5.404   4.226  19.067  0.00  0.00    +0.000 HD
ATOM     14  H   UNL     1       6.673   4.450  11.714  0.00  0.00    +0.000 HD
ENDROOT
BRANCH   7  15
ATOM     15  C   UNL     1       3.635   3.392  18.474  0.00  0.00    +0.000 A 
ATOM     16  C   UNL     1       3.286   2.103  18.897  0.00  0.00    +0.000 A 
ATOM     17  C   UNL     1       1.949   1.714  19.026  0.00  0.00    +0.000 A 
ATOM     18  C   UNL     1       0.931   2.616  18.739  0.00  0.00    +0.000 A 
ATOM     19  C   UNL     1       1.251   3.910  18.338  0.00  0.00    +0.000 A 
ATOM     20  C   UNL     1       2.590   4.295  18.213  0.00  0.00    +0.000 A 
ENDBRANCH   7  15
TORSDOF 1
ENDMDL
MODEL 4
REMARK VINA RESULT:      -6.7      5.010      7.100
REMARK  Name = 
REMARK  2 active torsions:
REMARK  status: ('A' for Active; 'I' for Inactive)
REMARK    1  A    between atoms: C_1  and  C_2
REMARK    2  A    between atoms: N_7  and  C_8
REMARK                            x       y       z     vdW  Elec       q    Type
REMARK                         _______ _______ _______ _____ _____    ______ ____
ROOT
ATOM      1  C   UNL     1       0.090  12.632  19.054  0.00  0.00    +0.000 C 
ATOM      2  C   UNL     1       0.614  11.235  19.199  0.00  0.00    +0.000 A 
ATOM      3  N   UNL     1       0.452  10.574  20.306  0.00  0.00    +0.000 NA
ATOM      4  C   UNL     1       0.978   9.320  20.282  0.00  0.00    +0.000 A 
ATOM      5  S   UNL     1       0.915   8.242  21.600  0.00  0.00    +0.000 S 
ATOM      6  C   UNL     1       1.717   7.028  20.654  0.00  0.00    +0.000 A 
ATOM      7  N   UNL     1       1.906   5.796  21.189  0.00  0.00    +0.000 N 
ATOM      8  N   UNL     1       2.056   7.423  19.445  0.00  0.00    +0.000 NA
ATOM      9  C   UNL     1       1.636   8.715  19.233  0.00  0.00    +0.000 A 
ATOM     10  C   UNL     1       1.814   9.480  18.012  0.00  0.00    +0.000 A 
ATOM     11  O   UNL     1       2.385   9.083  17.003  0.00  0.00    +0.000 OA
ATOM     12  N   UNL     1       1.262  10.743  18.083  0.00  0.00    +0.000 N 
ATOM     13  H   UNL     1       1.556   5.656  22.129  0.00  0.00    +0.000 HD
ATOM     14  H   UNL     1       1.367  11.302  17.249  0.00  0.00    +0.000 HD
ENDROOT
BRANCH   7  15
ATOM     15  C   UNL     1       2.181   4.604  20.492  0.00  0.00    +0.000 A 
ATOM     16  C   UNL     1       3.425   4.304  19.920  0.00  0.00    +0.000 A 
ATOM     17  C   UNL     1       3.623   3.139  19.173  0.00  0.00    +0.000 A 
ATOM     18  C   UNL     1       2.576   2.244  18.989  0.00  0.00    +0.000 A 
ATOM     19  C   UNL     1       1.336   2.507  19.565  0.00  0.00    +0.000 A 
ATOM     20  C   UNL     1       1.143   3.673  20.314  0.00  0.00    +0.000 A 
ENDBRANCH   7  15
TORSDOF 1
ENDMDL
MODEL 5
REMARK VINA RESULT:      -6.6      4.583      7.472
REMARK  Name = 
REMARK  2 active torsions:
REMARK  status: ('A' for Active; 'I' for Inactive)
REMARK    1  A    between atoms: C_1  and  C_2
REMARK    2  A    between atoms: N_7  and  C_8
REMARK                            x       y       z     vdW  Elec       q    Type
REMARK                         _______ _______ _______ _____ _____    ______ ____
ROOT
ATOM      1  C   UNL     1       3.714   1.305  18.481  0.00  0.00    +0.000 C 
ATOM      2  C   UNL     1       3.297   2.634  19.035  0.00  0.00    +0.000 A 
ATOM      3  N   UNL     1       3.347   3.707  18.304  0.00  0.00    +0.000 NA
ATOM      4  C   UNL     1       2.933   4.832  18.946  0.00  0.00    +0.000 A 
ATOM      5  S   UNL     1       2.905   6.377  18.226  0.00  0.00    +0.000 S 
ATOM      6  C   UNL     1       2.238   7.049  19.680  0.00  0.00    +0.000 A 
ATOM      7  N   UNL     1       1.896   8.362  19.700  0.00  0.00    +0.000 N 
ATOM      8  N   UNL     1       2.093   6.182  20.660  0.00  0.00    +0.000 NA
ATOM      9  C   UNL     1       2.482   4.929  20.245  0.00  0.00    +0.000 A 
ATOM     10  C   UNL     1       2.446   3.718  21.044  0.00  0.00    +0.000 A 
ATOM     11  O   UNL     1       2.082   3.649  22.212  0.00  0.00    +0.000 OA
ATOM     12  N   UNL     1       2.873   2.603  20.350  0.00  0.00    +0.000 N 
ATOM     13  H   UNL     1       2.051   8.879  18.844  0.00  0.00    +0.000 HD
ATOM     14  H   UNL     1       2.860   1.742  20.876  0.00  0.00    +0.000 HD
ENDROOT
BRANCH   7  15
ATOM     15  C   UNL     1       1.026   8.995  20.608  0.00  0.00    +0.000 A 
ATOM     16  C   UNL     1       0.025   9.900  20.226  0.00  0.00    +0.000 A 
ATOM     17  C   UNL     1      -0.762  10.560  21.174  0.00  0.00    +0.000 A 
ATOM     18  C   UNL     1      -0.568  10.319  22.529  0.00  0.00    +0.000 A 
ATOM     19  C   UNL     1       0.404   9.408  22.934  0.00  0.00    +0.000 A 
ATOM     20  C   UNL     1       1.189   8.749  21.982  0.00  0.00    +0.000 A 
ENDBRANCH   7  15
TORSDOF 1
ENDMDL
MODEL 6
REMARK VINA RESULT:      -6.6      8.254      9.750
REMARK  Name = 
REMARK  2 active torsions:
REMARK  status: ('A' for Active; 'I' for Inactive)
REMARK    1  A    between atoms: C_1  and  C_2
REMARK    2  A    between atoms: N_7  and  C_8
REMARK                            x       y       z     vdW  Elec       q    Type
REMARK                         _______ _______ _______ _____ _____    ______ ____
ROOT
ATOM      1  C   UNL     1      -6.770  12.458  17.447  0.00  0.00    +0.000 C 
ATOM      2  C   UNL     1      -5.359  11.969  17.582  0.00  0.00    +0.000 A 
ATOM      3  N   UNL     1      -4.634  12.300  18.608  0.00  0.00    +0.000 NA
ATOM      4  C   UNL     1      -3.380  11.776  18.589  0.00  0.00    +0.000 A 
ATOM      5  S   UNL     1      -2.218  12.056  19.805  0.00  0.00    +0.000 S 
ATOM      6  C   UNL     1      -1.097  11.019  18.982  0.00  0.00    +0.000 A 
ATOM      7  N   UNL     1       0.105  10.762  19.557  0.00  0.00    +0.000 N 
ATOM      8  N   UNL     1      -1.546  10.534  17.843  0.00  0.00    +0.000 NA
ATOM      9  C   UNL     1      -2.835  10.958  17.623  0.00  0.00    +0.000 A 
ATOM     10  C   UNL     1      -3.663  10.612  16.482  0.00  0.00    +0.000 A 
ATOM     11  O   UNL     1      -3.316   9.907  15.541  0.00  0.00    +0.000 OA
ATOM     12  N   UNL     1      -4.926  11.165  16.546  0.00  0.00    +0.000 N 
ATOM     13  H   UNL     1       0.276  11.199  20.454  0.00  0.00    +0.000 HD
ATOM     14  H   UNL     1      -5.529  10.943  15.767  0.00  0.00    +0.000 HD
ENDROOT
BRANCH   7  15
ATOM     15  C   UNL     1       0.974   9.695  19.260  0.00  0.00    +0.000 A 
ATOM     16  C   UNL     1       1.615   9.532  18.024  0.00  0.00    +0.000 A 
ATOM     17  C   UNL     1       2.409   8.413  17.755  0.00  0.00    +0.000 A 
ATOM     18  C   UNL     1       2.584   7.435  18.726  0.00  0.00    +0.000 A 
ATOM     19  C   UNL     1       1.977   7.583  19.971  0.00  0.00    +0.000 A 
ATOM     20  C   UNL     1       1.185   8.706  20.236  0.00  0.00    +0.000 A 
ENDBRANCH   7  15
TORSDOF 1
ENDMDL
MODEL 7
REMARK VINA RESULT:      -6.6      1.983      6.625
REMARK  Name = 
REMARK  2 active torsions:
REMARK  status: ('A' for Active; 'I' for Inactive)
REMARK    1  A    between atoms: C_1  and  C_2
REMARK    2  A    between atoms: N_7  and  C_8
REMARK                            x       y       z     vdW  Elec       q    Type
REMARK                         _______ _______ _______ _____ _____    ______ ____
ROOT
ATOM      1  C   UNL     1       8.584   5.879  12.587  0.00  0.00    +0.000 C 
ATOM      2  C   UNL     1       7.641   5.331  13.615  0.00  0.00    +0.000 A 
ATOM      3  N   UNL     1       7.841   5.540  14.882  0.00  0.00    +0.000 NA
ATOM      4  C   UNL     1       6.898   4.982  15.688  0.00  0.00    +0.000 A 
ATOM      5  S   UNL     1       6.922   5.094  17.389  0.00  0.00    +0.000 S 
ATOM      6  C   UNL     1       5.432   4.209  17.474  0.00  0.00    +0.000 A 
ATOM      7  N   UNL     1       4.847   4.021  18.684  0.00  0.00    +0.000 N 
ATOM      8  N   UNL     1       4.972   3.811  16.306  0.00  0.00    +0.000 NA
ATOM      9  C   UNL     1       5.798   4.250  15.297  0.00  0.00    +0.000 A 
ATOM     10  C   UNL     1       5.604   4.022  13.877  0.00  0.00    +0.000 A 
ATOM     11  O   UNL     1       4.683   3.384  13.381  0.00  0.00    +0.000 OA
ATOM     12  N   UNL     1       6.582   4.607  13.100  0.00  0.00    +0.000 N 
ATOM     13  H   UNL     1       5.326   4.421  19.481  0.00  0.00    +0.000 HD
ATOM     14  H   UNL     1       6.478   4.469  12.106  0.00  0.00    +0.000 HD
ENDROOT
BRANCH   7  15
ATOM     15  C   UNL     1       3.504   3.678  18.930  0.00  0.00    +0.000 A 
ATOM     16  C   UNL     1       2.551   4.573  19.437  0.00  0.00    +0.000 A 
ATOM     17  C   UNL     1       1.249   4.161  19.735  0.00  0.00    +0.000 A 
ATOM     18  C   UNL     1       0.872   2.840  19.523  0.00  0.00    +0.000 A 
ATOM     19  C   UNL     1       1.792   1.936  19.000  0.00  0.00    +0.000 A 
ATOM     20  C   UNL     1       3.094   2.354  18.701  0.00  0.00    +0.000 A 
ENDBRANCH   7  15
TORSDOF 1
ENDMDL
MODEL 8
REMARK VINA RESULT:      -6.5      6.277      7.894
REMARK  Name = 
REMARK  2 active torsions:
REMARK  status: ('A' for Active; 'I' for Inactive)
REMARK    1  A    between atoms: C_1  and  C_2
REMARK    2  A    between atoms: N_7  and  C_8
REMARK                            x       y       z     vdW  Elec       q    Type
REMARK                         _______ _______ _______ _____ _____    ______ ____
ROOT
ATOM      1  C   UNL     1      -2.243  13.328  21.334  0.00  0.00    +0.000 C 
ATOM      2  C   UNL     1      -1.449  12.120  20.937  0.00  0.00    +0.000 A 
ATOM      3  N   UNL     1      -0.724  11.484  21.807  0.00  0.00    +0.000 NA
ATOM      4  C   UNL     1      -0.066  10.409  21.297  0.00  0.00    +0.000 A 
ATOM      5  S   UNL     1       0.960   9.404  22.214  0.00  0.00    +0.000 S 
ATOM      6  C   UNL     1       1.232   8.402  20.823  0.00  0.00    +0.000 A 
ATOM      7  N   UNL     1       1.987   7.283  20.957  0.00  0.00    +0.000 N 
ATOM      8  N   UNL     1       0.633   8.823  19.729  0.00  0.00    +0.000 NA
ATOM      9  C   UNL     1      -0.103   9.953  19.996  0.00  0.00    +0.000 A 
ATOM     10  C   UNL     1      -0.912  10.689  19.042  0.00  0.00    +0.000 A 
ATOM     11  O   UNL     1      -1.034  10.413  17.854  0.00  0.00    +0.000 OA
ATOM     12  N   UNL     1      -1.561  11.769  19.606  0.00  0.00    +0.000 N 
ATOM     13  H   UNL     1       2.350   7.094  21.883  0.00  0.00    +0.000 HD
ATOM     14  H   UNL     1      -2.133  12.303  18.969  0.00  0.00    +0.000 HD
ENDROOT
BRANCH   7  15
ATOM     15  C   UNL     1       2.019   6.175  20.088  0.00  0.00    +0.000 A 
ATOM     16  C   UNL     1       2.602   6.201  18.814  0.00  0.00    +0.000 A 
ATOM     17  C   UNL     1       2.540   5.096  17.960  0.00  0.00    +0.000 A 
ATOM     18  C   UNL     1       1.897   3.934  18.372  0.00  0.00    +0.000 A 
ATOM     19  C   UNL     1       1.329   3.874  19.642  0.00  0.00    +0.000 A 
ATOM     20  C   UNL     1       1.396   4.983  20.493  0.00  0.00    +0.000 A 
ENDBRANCH   7  15
TORSDOF 1
ENDMDL
MODEL 9
REMARK VINA RESULT:      -6.5      4.722      7.661
REMARK  Name = 
REMARK  2 active torsions:
REMARK  status: ('A' for Active; 'I' for Inactive)
REMARK    1  A    between atoms: C_1  and  C_2
REMARK    2  A    between atoms: N_7  and  C_8
REMARK                            x       y       z     vdW  Elec       q    Type
REMARK                         _______ _______ _______ _____ _____    ______ ____
ROOT
ATOM      1  C   UNL     1       3.384   1.749  17.863  0.00  0.00    +0.000 C 
ATOM      2  C   UNL     1       3.033   3.030  18.557  0.00  0.00    +0.000 A 
ATOM      3  N   UNL     1       3.038   4.160  17.915  0.00  0.00    +0.000 NA
ATOM      4  C   UNL     1       2.693   5.230  18.680  0.00  0.00    +0.000 A 
ATOM      5  S   UNL     1       2.628   6.830  18.093  0.00  0.00    +0.000 S 
ATOM      6  C   UNL     1       2.092   7.384  19.648  0.00  0.00    +0.000 A 
ATOM      7  N   UNL     1       1.771   8.693  19.804  0.00  0.00    +0.000 N 
ATOM      8  N   UNL     1       2.017   6.439  20.562  0.00  0.00    +0.000 NA
ATOM      9  C   UNL     1       2.353   5.223  20.015  0.00  0.00    +0.000 A 
ATOM     10  C   UNL     1       2.366   3.950  20.712  0.00  0.00    +0.000 A 
ATOM     11  O   UNL     1       2.098   3.787  21.896  0.00  0.00    +0.000 OA
ATOM     12  N   UNL     1       2.718   2.894  19.896  0.00  0.00    +0.000 N 
ATOM     13  H   UNL     1       1.862   9.278  18.983  0.00  0.00    +0.000 HD
ATOM     14  H   UNL     1       2.737   1.992  20.349  0.00  0.00    +0.000 HD
ENDROOT
BRANCH   7  15
ATOM     15  C   UNL     1       0.988   9.255  20.830  0.00  0.00    +0.000 A 
ATOM     16  C   UNL     1       1.122   8.922  22.185  0.00  0.00    +0.000 A 
ATOM     17  C   UNL     1       0.267   9.453  23.155  0.00  0.00    +0.000 A 
ATOM     18  C   UNL     1      -0.738  10.339  22.787  0.00  0.00    +0.000 A 
ATOM     19  C   UNL     1      -0.878  10.705  21.451  0.00  0.00    +0.000 A 
ATOM     20  C   UNL     1      -0.019  10.172  20.483  0.00  0.00    +0.000 A 
ENDBRANCH   7  15
TORSDOF 1
ENDMDL
