MODEL 1
REMARK VINA RESULT:      -8.9      0.000      0.000
REMARK  Name = 
REMARK  7 active torsions:
REMARK  status: ('A' for Active; 'I' for Inactive)
REMARK    1  A    between atoms: S_2  and  N_4
REMARK    2  A    between atoms: S_2  and  C_23
REMARK    3  A    between atoms: N_4  and  C_5
REMARK    4  A    between atoms: N_8  and  C_9
REMARK    5  A    between atoms: C_9  and  C_10
REMARK    6  A    between atoms: C_10  and  C_11
REMARK    7  A    between atoms: C_11  and  C_12
REMARK                            x       y       z     vdW  Elec       q    Type
REMARK                         _______ _______ _______ _____ _____    ______ ____
ROOT
ATOM      1  C   UNL     1       6.288   4.625  17.549  0.00  0.00    +0.000 C 
ATOM      2  C   UNL     1       7.767   4.605  17.867  0.00  0.00    +0.000 C 
ATOM      3  C   UNL     1       7.896   5.696  18.908  0.00  0.00    +0.000 C 
ATOM      4  N   UNL     1       7.035   6.784  18.413  0.00  0.00    +0.000 NA
ATOM      5  C   UNL     1       5.943   6.121  17.649  0.00  0.00    +0.000 C 
ENDROOT
BRANCH   1   6
ATOM      6  N   UNL     1       5.488   3.852  18.524  0.00  0.00    +0.000 NA
ATOM      7  H   UNL     1       5.975   3.082  18.985  0.00  0.00    +0.000 HD
BRANCH   6   9
ATOM      8  O   UNL     1       3.720   3.604  16.740  0.00  0.00    +0.000 OA
ATOM      9  S   UNL     1       3.873   3.514  18.175  0.00  0.00    +0.000 S 
ATOM     10  O   UNL     1       3.494   2.329  18.915  0.00  0.00    +0.000 OA
BRANCH   9  11
ATOM     11  C   UNL     1       2.996   4.906  18.853  0.00  0.00    +0.000 A 
ATOM     12  C   UNL     1       2.567   4.863  20.179  0.00  0.00    +0.000 A 
ATOM     13  C   UNL     1       1.957   5.986  20.741  0.00  0.00    +0.000 A 
ATOM     14  C   UNL     1       1.792   7.165  19.991  0.00  0.00    +0.000 A 
ATOM     15  C   UNL     1       1.242   8.327  20.560  0.00  0.00    +0.000 A 
ATOM     16  C   UNL     1       1.116   9.497  19.809  0.00  0.00    +0.000 A 
ATOM     17  C   UNL     1       1.517   9.518  18.476  0.00  0.00    +0.000 A 
ATOM     18  C   UNL     1       2.055   8.371  17.893  0.00  0.00    +0.000 A 
ATOM     19  C   UNL     1       2.215   7.194  18.641  0.00  0.00    +0.000 A 
ATOM     20  C   UNL     1       2.815   6.057  18.080  0.00  0.00    +0.000 A 
ENDBRANCH   9  11
ENDBRANCH   6   9
ENDBRANCH   1   6
BRANCH   4  21
ATOM     21  C   UNL     1       7.823   7.707  17.573  0.00  0.00    +0.000 C 
BRANCH  21  22
ATOM     22  C   UNL     1       8.567   8.777  18.375  0.00  0.00    +0.000 C 
BRANCH  22  23
ATOM     23  C   UNL     1       8.241  10.190  17.893  0.00  0.00    +0.000 C 
BRANCH  23  24
ATOM     24  C   UNL     1       9.178  11.193  18.465  0.00  0.00    +0.000 A 
ATOM     25  N   UNL     1      10.266  10.799  19.139  0.00  0.00    +0.000 NA
ATOM     26  O   UNL     1      10.909  11.965  19.526  0.00  0.00    +0.000 OA
ATOM     27  C   UNL     1      10.207  13.043  19.077  0.00  0.00    +0.000 A 
ATOM     28  C   UNL     1      10.542  14.376  19.270  0.00  0.00    +0.000 A 
ATOM     29  C   UNL     1       9.665  15.298  18.705  0.00  0.00    +0.000 A 
ATOM     30  F   UNL     1       9.919  16.608  18.853  0.00  0.00    +0.000 F 
ATOM     31  C   UNL     1       8.530  14.914  17.991  0.00  0.00    +0.000 A 
ATOM     32  C   UNL     1       8.226  13.557  17.816  0.00  0.00    +0.000 A 
ATOM     33  C   UNL     1       9.093  12.606  18.382  0.00  0.00    +0.000 A 
ENDBRANCH  23  24
ENDBRANCH  22  23
ENDBRANCH  21  22
ENDBRANCH   4  21
TORSDOF 7
ENDMDL
MODEL 2
REMARK VINA RESULT:      -8.9      1.054      1.414
REMARK  Name = 
REMARK  7 active torsions:
REMARK  status: ('A' for Active; 'I' for Inactive)
REMARK    1  A    between atoms: S_2  and  N_4
REMARK    2  A    between atoms: S_2  and  C_23
REMARK    3  A    between atoms: N_4  and  C_5
REMARK    4  A    between atoms: N_8  and  C_9
REMARK    5  A    between atoms: C_9  and  C_10
REMARK    6  A    between atoms: C_10  and  C_11
REMARK    7  A    between atoms: C_11  and  C_12
REMARK                            x       y       z     vdW  Elec       q    Type
REMARK                         _______ _______ _______ _____ _____    ______ ____
ROOT
ATOM      1  C   UNL     1       6.416   4.623  17.545  0.00  0.00    +0.000 C 
ATOM      2  C   UNL     1       7.882   4.643  17.918  0.00  0.00    +0.000 C 
ATOM      3  C   UNL     1       7.951   5.770  18.926  0.00  0.00    +0.000 C 
ATOM      4  N   UNL     1       7.090   6.824  18.364  0.00  0.00    +0.000 NA
ATOM      5  C   UNL     1       6.039   6.115  17.583  0.00  0.00    +0.000 C 
ENDROOT
BRANCH   1   6
ATOM      6  N   UNL     1       5.594   3.867  18.516  0.00  0.00    +0.000 NA
ATOM      7  H   UNL     1       6.069   3.102  18.996  0.00  0.00    +0.000 HD
BRANCH   6   9
ATOM      8  O   UNL     1       3.848   3.648  16.706  0.00  0.00    +0.000 OA
ATOM      9  S   UNL     1       3.984   3.531  18.141  0.00  0.00    +0.000 S 
ATOM     10  O   UNL     1       3.601   2.331  18.853  0.00  0.00    +0.000 OA
BRANCH   9  11
ATOM     11  C   UNL     1       3.095   4.907  18.835  0.00  0.00    +0.000 A 
ATOM     12  C   UNL     1       2.704   4.862  20.173  0.00  0.00    +0.000 A 
ATOM     13  C   UNL     1       2.083   5.975  20.745  0.00  0.00    +0.000 A 
ATOM     14  C   UNL     1       1.872   7.146  19.994  0.00  0.00    +0.000 A 
ATOM     15  C   UNL     1       1.310   8.298  20.571  0.00  0.00    +0.000 A 
ATOM     16  C   UNL     1       1.138   9.461  19.817  0.00  0.00    +0.000 A 
ATOM     17  C   UNL     1       1.501   9.483  18.474  0.00  0.00    +0.000 A 
ATOM     18  C   UNL     1       2.050   8.344  17.883  0.00  0.00    +0.000 A 
ATOM     19  C   UNL     1       2.256   7.176  18.632  0.00  0.00    +0.000 A 
ATOM     20  C   UNL     1       2.866   6.049  18.061  0.00  0.00    +0.000 A 
ENDBRANCH   9  11
ENDBRANCH   6   9
ENDBRANCH   1   6
BRANCH   4  21
ATOM     21  C   UNL     1       7.891   7.735  17.523  0.00  0.00    +0.000 C 
BRANCH  21  22
ATOM     22  C   UNL     1       7.779   9.203  17.937  0.00  0.00    +0.000 C 
BRANCH  22  23
ATOM     23  C   UNL     1       9.147   9.839  18.184  0.00  0.00    +0.000 C 
BRANCH  23  24
ATOM     24  C   UNL     1       9.073  11.324  18.164  0.00  0.00    +0.000 A 
ATOM     25  N   UNL     1       8.093  11.945  17.496  0.00  0.00    +0.000 NA
ATOM     26  O   UNL     1       8.314  13.302  17.683  0.00  0.00    +0.000 OA
ATOM     27  C   UNL     1       9.416  13.480  18.464  0.00  0.00    +0.000 A 
ATOM     28  C   UNL     1       9.946  14.697  18.866  0.00  0.00    +0.000 A 
ATOM     29  C   UNL     1      11.079  14.617  19.672  0.00  0.00    +0.000 A 
ATOM     30  F   UNL     1      11.653  15.755  20.097  0.00  0.00    +0.000 F 
ATOM     31  C   UNL     1      11.642  13.401  20.053  0.00  0.00    +0.000 A 
ATOM     32  C   UNL     1      11.077  12.191  19.628  0.00  0.00    +0.000 A 
ATOM     33  C   UNL     1       9.936  12.245  18.809  0.00  0.00    +0.000 A 
ENDBRANCH  23  24
ENDBRANCH  22  23
ENDBRANCH  21  22
ENDBRANCH   4  21
TORSDOF 7
ENDMDL
MODEL 3
REMARK VINA RESULT:      -8.5      5.816      8.464
REMARK  Name = 
REMARK  7 active torsions:
REMARK  status: ('A' for Active; 'I' for Inactive)
REMARK    1  A    between atoms: S_2  and  N_4
REMARK    2  A    between atoms: S_2  and  C_23
REMARK    3  A    between atoms: N_4  and  C_5
REMARK    4  A    between atoms: N_8  and  C_9
REMARK    5  A    between atoms: C_9  and  C_10
REMARK    6  A    between atoms: C_10  and  C_11
REMARK    7  A    between atoms: C_11  and  C_12
REMARK                            x       y       z     vdW  Elec       q    Type
REMARK                         _______ _______ _______ _____ _____    ______ ____
ROOT
ATOM      1  C   UNL     1       2.043   5.124  19.753  0.00  0.00    +0.000 C 
ATOM      2  C   UNL     1       2.289   5.805  18.425  0.00  0.00    +0.000 C 
ATOM      3  C   UNL     1       2.975   7.090  18.835  0.00  0.00    +0.000 C 
ATOM      4  N   UNL     1       2.233   7.545  20.023  0.00  0.00    +0.000 NA
ATOM      5  C   UNL     1       1.734   6.308  20.686  0.00  0.00    +0.000 C 
ENDROOT
BRANCH   1   6
ATOM      6  N   UNL     1       3.231   4.388  20.241  0.00  0.00    +0.000 NA
ATOM      7  H   UNL     1       3.978   4.964  20.630  0.00  0.00    +0.000 HD
BRANCH   6   9
ATOM      8  O   UNL     1       4.671   2.315  20.236  0.00  0.00    +0.000 OA
ATOM      9  S   UNL     1       3.790   3.060  19.364  0.00  0.00    +0.000 S 
ATOM     10  O   UNL     1       2.654   2.445  18.712  0.00  0.00    +0.000 OA
BRANCH   9  11
ATOM     11  C   UNL     1       4.830   3.788  18.117  0.00  0.00    +0.000 A 
ATOM     12  C   UNL     1       5.919   4.568  18.506  0.00  0.00    +0.000 A 
ATOM     13  C   UNL     1       6.788   5.068  17.533  0.00  0.00    +0.000 A 
ATOM     14  C   UNL     1       6.589   4.774  16.172  0.00  0.00    +0.000 A 
ATOM     15  C   UNL     1       7.490   5.213  15.187  0.00  0.00    +0.000 A 
ATOM     16  C   UNL     1       7.294   4.884  13.844  0.00  0.00    +0.000 A 
ATOM     17  C   UNL     1       6.185   4.134  13.464  0.00  0.00    +0.000 A 
ATOM     18  C   UNL     1       5.274   3.700  14.429  0.00  0.00    +0.000 A 
ATOM     19  C   UNL     1       5.472   3.997  15.786  0.00  0.00    +0.000 A 
ATOM     20  C   UNL     1       4.596   3.510  16.767  0.00  0.00    +0.000 A 
ENDBRANCH   9  11
ENDBRANCH   6   9
ENDBRANCH   1   6
BRANCH   4  21
ATOM     21  C   UNL     1       1.133   8.442  19.619  0.00  0.00    +0.000 C 
BRANCH  21  22
ATOM     22  C   UNL     1       1.371   9.129  18.272  0.00  0.00    +0.000 C 
BRANCH  22  23
ATOM     23  C   UNL     1       1.388  10.652  18.397  0.00  0.00    +0.000 C 
BRANCH  23  24
ATOM     24  C   UNL     1       0.052  11.186  18.773  0.00  0.00    +0.000 A 
ATOM     25  N   UNL     1      -0.066  12.090  19.753  0.00  0.00    +0.000 NA
ATOM     26  O   UNL     1      -1.421  12.371  19.842  0.00  0.00    +0.000 OA
ATOM     27  C   UNL     1      -2.099  11.640  18.915  0.00  0.00    +0.000 A 
ATOM     28  C   UNL     1      -3.471  11.654  18.704  0.00  0.00    +0.000 A 
ATOM     29  C   UNL     1      -3.927  10.820  17.687  0.00  0.00    +0.000 A 
ATOM     30  F   UNL     1      -5.244  10.776  17.427  0.00  0.00    +0.000 F 
ATOM     31  C   UNL     1      -3.068  10.026  16.928  0.00  0.00    +0.000 A 
ATOM     32  C   UNL     1      -1.687  10.040  17.169  0.00  0.00    +0.000 A 
ATOM     33  C   UNL     1      -1.203  10.870  18.194  0.00  0.00    +0.000 A 
ENDBRANCH  23  24
ENDBRANCH  22  23
ENDBRANCH  21  22
ENDBRANCH   4  21
TORSDOF 7
ENDMDL
MODEL 4
REMARK VINA RESULT:      -8.4      4.474      6.590
REMARK  Name = 
REMARK  7 active torsions:
REMARK  status: ('A' for Active; 'I' for Inactive)
REMARK    1  A    between atoms: S_2  and  N_4
REMARK    2  A    between atoms: S_2  and  C_23
REMARK    3  A    between atoms: N_4  and  C_5
REMARK    4  A    between atoms: N_8  and  C_9
REMARK    5  A    between atoms: C_9  and  C_10
REMARK    6  A    between atoms: C_10  and  C_11
REMARK    7  A    between atoms: C_11  and  C_12
REMARK                            x       y       z     vdW  Elec       q    Type
REMARK                         _______ _______ _______ _____ _____    ______ ____
ROOT
ATOM      1  C   UNL     1       1.488   3.846  19.565  0.00  0.00    +0.000 C 
ATOM      2  C   UNL     1       1.733   5.010  18.631  0.00  0.00    +0.000 C 
ATOM      3  C   UNL     1       2.547   5.955  19.488  0.00  0.00    +0.000 C 
ATOM      4  N   UNL     1       1.901   5.907  20.811  0.00  0.00    +0.000 NA
ATOM      5  C   UNL     1       1.326   4.538  20.930  0.00  0.00    +0.000 C 
ENDROOT
BRANCH   1   6
ATOM      6  N   UNL     1       2.627   2.902  19.606  0.00  0.00    +0.000 NA
ATOM      7  H   UNL     1       3.343   3.104  20.304  0.00  0.00    +0.000 HD
BRANCH   6   9
ATOM      8  O   UNL     1       4.003   1.112  18.476  0.00  0.00    +0.000 OA
ATOM      9  S   UNL     1       3.248   2.304  18.157  0.00  0.00    +0.000 S 
ATOM     10  O   UNL     1       2.179   2.298  17.181  0.00  0.00    +0.000 OA
BRANCH   9  11
ATOM     11  C   UNL     1       4.444   3.530  17.674  0.00  0.00    +0.000 A 
ATOM     12  C   UNL     1       4.405   4.050  16.380  0.00  0.00    +0.000 A 
ATOM     13  C   UNL     1       5.285   5.074  16.025  0.00  0.00    +0.000 A 
ATOM     14  C   UNL     1       6.191   5.602  16.963  0.00  0.00    +0.000 A 
ATOM     15  C   UNL     1       7.036   6.678  16.643  0.00  0.00    +0.000 A 
ATOM     16  C   UNL     1       7.906   7.210  17.598  0.00  0.00    +0.000 A 
ATOM     17  C   UNL     1       7.959   6.661  18.876  0.00  0.00    +0.000 A 
ATOM     18  C   UNL     1       7.134   5.586  19.207  0.00  0.00    +0.000 A 
ATOM     19  C   UNL     1       6.234   5.057  18.268  0.00  0.00    +0.000 A 
ATOM     20  C   UNL     1       5.357   4.019  18.613  0.00  0.00    +0.000 A 
ENDBRANCH   9  11
ENDBRANCH   6   9
ENDBRANCH   1   6
BRANCH   4  21
ATOM     21  C   UNL     1       0.867   6.956  20.907  0.00  0.00    +0.000 C 
BRANCH  21  22
ATOM     22  C   UNL     1       1.443   8.369  21.018  0.00  0.00    +0.000 C 
BRANCH  22  23
ATOM     23  C   UNL     1       0.837   9.321  19.988  0.00  0.00    +0.000 C 
BRANCH  23  24
ATOM     24  C   UNL     1       0.897  10.735  20.446  0.00  0.00    +0.000 A 
ATOM     25  N   UNL     1       0.476  11.068  21.673  0.00  0.00    +0.000 NA
ATOM     26  O   UNL     1       0.670  12.438  21.775  0.00  0.00    +0.000 OA
ATOM     27  C   UNL     1       1.210  12.909  20.617  0.00  0.00    +0.000 A 
ATOM     28  C   UNL     1       1.543  14.229  20.346  0.00  0.00    +0.000 A 
ATOM     29  C   UNL     1       2.090  14.459  19.087  0.00  0.00    +0.000 A 
ATOM     30  F   UNL     1       2.433  15.713  18.750  0.00  0.00    +0.000 F 
ATOM     31  C   UNL     1       2.292  13.438  18.159  0.00  0.00    +0.000 A 
ATOM     32  C   UNL     1       1.944  12.116  18.470  0.00  0.00    +0.000 A 
ATOM     33  C   UNL     1       1.386  11.858  19.734  0.00  0.00    +0.000 A 
ENDBRANCH  23  24
ENDBRANCH  22  23
ENDBRANCH  21  22
ENDBRANCH   4  21
TORSDOF 7
ENDMDL
MODEL 5
REMARK VINA RESULT:      -8.3      5.013      7.532
REMARK  Name = 
REMARK  7 active torsions:
REMARK  status: ('A' for Active; 'I' for Inactive)
REMARK    1  A    between atoms: S_2  and  N_4
REMARK    2  A    between atoms: S_2  and  C_23
REMARK    3  A    between atoms: N_4  and  C_5
REMARK    4  A    between atoms: N_8  and  C_9
REMARK    5  A    between atoms: C_9  and  C_10
REMARK    6  A    between atoms: C_10  and  C_11
REMARK    7  A    between atoms: C_11  and  C_12
REMARK                            x       y       z     vdW  Elec       q    Type
REMARK                         _______ _______ _______ _____ _____    ______ ____
ROOT
ATOM      1  C   UNL     1       1.594   3.588  19.768  0.00  0.00    +0.000 C 
ATOM      2  C   UNL     1       1.610   4.697  18.738  0.00  0.00    +0.000 C 
ATOM      3  C   UNL     1       2.470   5.751  19.403  0.00  0.00    +0.000 C 
ATOM      4  N   UNL     1       2.033   5.754  20.809  0.00  0.00    +0.000 NA
ATOM      5  C   UNL     1       1.585   4.363  21.097  0.00  0.00    +0.000 C 
ENDROOT
BRANCH   1   6
ATOM      6  N   UNL     1       2.793   2.725  19.691  0.00  0.00    +0.000 NA
ATOM      7  H   UNL     1       3.550   2.961  20.333  0.00  0.00    +0.000 HD
BRANCH   6   9
ATOM      8  O   UNL     1       4.119   1.009  18.398  0.00  0.00    +0.000 OA
ATOM      9  S   UNL     1       3.331   2.202  18.180  0.00  0.00    +0.000 S 
ATOM     10  O   UNL     1       2.203   2.221  17.273  0.00  0.00    +0.000 OA
BRANCH   9  11
ATOM     11  C   UNL     1       4.477   3.467  17.680  0.00  0.00    +0.000 A 
ATOM     12  C   UNL     1       4.388   4.001  16.394  0.00  0.00    +0.000 A 
ATOM     13  C   UNL     1       5.228   5.055  16.028  0.00  0.00    +0.000 A 
ATOM     14  C   UNL     1       6.144   5.597  16.948  0.00  0.00    +0.000 A 
ATOM     15  C   UNL     1       6.950   6.700  16.618  0.00  0.00    +0.000 A 
ATOM     16  C   UNL     1       7.831   7.244  17.555  0.00  0.00    +0.000 A 
ATOM     17  C   UNL     1       7.936   6.682  18.824  0.00  0.00    +0.000 A 
ATOM     18  C   UNL     1       7.151   5.579  19.163  0.00  0.00    +0.000 A 
ATOM     19  C   UNL     1       6.240   5.037  18.244  0.00  0.00    +0.000 A 
ATOM     20  C   UNL     1       5.402   3.970  18.600  0.00  0.00    +0.000 A 
ENDBRANCH   9  11
ENDBRANCH   6   9
ENDBRANCH   1   6
BRANCH   4  21
ATOM     21  C   UNL     1       0.950   6.739  20.999  0.00  0.00    +0.000 C 
BRANCH  21  22
ATOM     22  C   UNL     1       1.408   8.189  20.825  0.00  0.00    +0.000 C 
BRANCH  22  23
ATOM     23  C   UNL     1       1.560   8.909  22.164  0.00  0.00    +0.000 C 
BRANCH  23  24
ATOM     24  C   UNL     1       0.571  10.010  22.309  0.00  0.00    +0.000 A 
ATOM     25  N   UNL     1      -0.167  10.117  23.422  0.00  0.00    +0.000 NA
ATOM     26  O   UNL     1      -0.969  11.232  23.233  0.00  0.00    +0.000 OA
ATOM     27  C   UNL     1      -0.701  11.786  22.018  0.00  0.00    +0.000 A 
ATOM     28  C   UNL     1      -1.305  12.913  21.480  0.00  0.00    +0.000 A 
ATOM     29  C   UNL     1      -0.852  13.288  20.218  0.00  0.00    +0.000 A 
ATOM     30  F   UNL     1      -1.393  14.367  19.630  0.00  0.00    +0.000 F 
ATOM     31  C   UNL     1       0.142  12.584  19.539  0.00  0.00    +0.000 A 
ATOM     32  C   UNL     1       0.730  11.450  20.116  0.00  0.00    +0.000 A 
ATOM     33  C   UNL     1       0.286  11.048  21.387  0.00  0.00    +0.000 A 
ENDBRANCH  23  24
ENDBRANCH  22  23
ENDBRANCH  21  22
ENDBRANCH   4  21
TORSDOF 7
ENDMDL
MODEL 6
REMARK VINA RESULT:      -8.3      4.465      6.347
REMARK  Name = 
REMARK  7 active torsions:
REMARK  status: ('A' for Active; 'I' for Inactive)
REMARK    1  A    between atoms: S_2  and  N_4
REMARK    2  A    between atoms: S_2  and  C_23
REMARK    3  A    between atoms: N_4  and  C_5
REMARK    4  A    between atoms: N_8  and  C_9
REMARK    5  A    between atoms: C_9  and  C_10
REMARK    6  A    between atoms: C_10  and  C_11
REMARK    7  A    between atoms: C_11  and  C_12
REMARK                            x       y       z     vdW  Elec       q    Type
REMARK                         _______ _______ _______ _____ _____    ______ ____
ROOT
ATOM      1  C   UNL     1       2.336  13.119  19.533  0.00  0.00    +0.000 C 
ATOM      2  C   UNL     1       2.387  14.465  20.223  0.00  0.00    +0.000 C 
ATOM      3  C   UNL     1       2.211  15.433  19.072  0.00  0.00    +0.000 C 
ATOM      4  N   UNL     1       3.042  14.878  17.990  0.00  0.00    +0.000 NA
ATOM      5  C   UNL     1       3.037  13.402  18.193  0.00  0.00    +0.000 C 
ENDROOT
BRANCH   1   6
ATOM      6  N   UNL     1       0.951  12.656  19.295  0.00  0.00    +0.000 NA
ATOM      7  H   UNL     1       0.273  13.386  19.075  0.00  0.00    +0.000 HD
BRANCH   6   9
ATOM      8  O   UNL     1       0.907  11.564  21.570  0.00  0.00    +0.000 OA
ATOM      9  S   UNL     1       0.324  11.420  20.255  0.00  0.00    +0.000 S 
ATOM     10  O   UNL     1      -1.108  11.378  20.050  0.00  0.00    +0.000 OA
BRANCH   9  11
ATOM     11  C   UNL     1       1.036   9.945  19.559  0.00  0.00    +0.000 A 
ATOM     12  C   UNL     1       1.527   9.974  18.254  0.00  0.00    +0.000 A 
ATOM     13  C   UNL     1       2.166   8.845  17.735  0.00  0.00    +0.000 A 
ATOM     14  C   UNL     1       2.339   7.692  18.521  0.00  0.00    +0.000 A 
ATOM     15  C   UNL     1       3.037   6.572  18.039  0.00  0.00    +0.000 A 
ATOM     16  C   UNL     1       3.227   5.448  18.845  0.00  0.00    +0.000 A 
ATOM     17  C   UNL     1       2.703   5.418  20.134  0.00  0.00    +0.000 A 
ATOM     18  C   UNL     1       1.997   6.517  20.625  0.00  0.00    +0.000 A 
ATOM     19  C   UNL     1       1.822   7.665  19.838  0.00  0.00    +0.000 A 
ATOM     20  C   UNL     1       1.170   8.798  20.347  0.00  0.00    +0.000 A 
ENDBRANCH   9  11
ENDBRANCH   6   9
ENDBRANCH   1   6
BRANCH   4  21
ATOM     21  C   UNL     1       4.403  15.445  18.057  0.00  0.00    +0.000 C 
BRANCH  21  22
ATOM     22  C   UNL     1       5.508  14.393  17.950  0.00  0.00    +0.000 C 
BRANCH  22  23
ATOM     23  C   UNL     1       6.902  15.019  17.947  0.00  0.00    +0.000 C 
BRANCH  23  24
ATOM     24  C   UNL     1       7.799  14.363  18.935  0.00  0.00    +0.000 A 
ATOM     25  N   UNL     1       7.589  14.516  20.248  0.00  0.00    +0.000 NA
ATOM     26  O   UNL     1       8.586  13.784  20.875  0.00  0.00    +0.000 OA
ATOM     27  C   UNL     1       9.378  13.196  19.935  0.00  0.00    +0.000 A 
ATOM     28  C   UNL     1      10.477  12.386  20.181  0.00  0.00    +0.000 A 
ATOM     29  C   UNL     1      11.122  11.896  19.049  0.00  0.00    +0.000 A 
ATOM     30  F   UNL     1      12.198  11.108  19.206  0.00  0.00    +0.000 F 
ATOM     31  C   UNL     1      10.694  12.193  17.755  0.00  0.00    +0.000 A 
ATOM     32  C   UNL     1       9.577  13.014  17.547  0.00  0.00    +0.000 A 
ATOM     33  C   UNL     1       8.912  13.525  18.674  0.00  0.00    +0.000 A 
ENDBRANCH  23  24
ENDBRANCH  22  23
ENDBRANCH  21  22
ENDBRANCH   4  21
TORSDOF 7
ENDMDL
MODEL 7
REMARK VINA RESULT:      -8.2      4.626      7.114
REMARK  Name = 
REMARK  7 active torsions:
REMARK  status: ('A' for Active; 'I' for Inactive)
REMARK    1  A    between atoms: S_2  and  N_4
REMARK    2  A    between atoms: S_2  and  C_23
REMARK    3  A    between atoms: N_4  and  C_5
REMARK    4  A    between atoms: N_8  and  C_9
REMARK    5  A    between atoms: C_9  and  C_10
REMARK    6  A    between atoms: C_10  and  C_11
REMARK    7  A    between atoms: C_11  and  C_12
REMARK                            x       y       z     vdW  Elec       q    Type
REMARK                         _______ _______ _______ _____ _____    ______ ____
ROOT
ATOM      1  C   UNL     1       2.601   7.449  19.327  0.00  0.00    +0.000 C 
ATOM      2  C   UNL     1       2.701   6.967  17.896  0.00  0.00    +0.000 C 
ATOM      3  C   UNL     1       1.780   5.766  17.888  0.00  0.00    +0.000 C 
ATOM      4  N   UNL     1       2.064   5.072  19.155  0.00  0.00    +0.000 NA
ATOM      5  C   UNL     1       2.471   6.135  20.116  0.00  0.00    +0.000 C 
ENDROOT
BRANCH   1   6
ATOM      6  N   UNL     1       1.413   8.300  19.557  0.00  0.00    +0.000 NA
ATOM      7  H   UNL     1       0.544   7.802  19.754  0.00  0.00    +0.000 HD
BRANCH   6   9
ATOM      8  O   UNL     1       2.490  10.023  18.059  0.00  0.00    +0.000 OA
ATOM      9  S   UNL     1       1.198   9.682  18.614  0.00  0.00    +0.000 S 
ATOM     10  O   UNL     1       0.034   9.476  17.779  0.00  0.00    +0.000 OA
BRANCH   9  11
ATOM     11  C   UNL     1       0.822  10.949  19.804  0.00  0.00    +0.000 A 
ATOM     12  C   UNL     1       1.438  12.196  19.692  0.00  0.00    +0.000 A 
ATOM     13  C   UNL     1       1.080  13.221  20.571  0.00  0.00    +0.000 A 
ATOM     14  C   UNL     1       0.091  13.015  21.550  0.00  0.00    +0.000 A 
ATOM     15  C   UNL     1      -0.329  14.054  22.398  0.00  0.00    +0.000 A 
ATOM     16  C   UNL     1      -1.336  13.840  23.343  0.00  0.00    +0.000 A 
ATOM     17  C   UNL     1      -1.920  12.583  23.468  0.00  0.00    +0.000 A 
ATOM     18  C   UNL     1      -1.506  11.538  22.640  0.00  0.00    +0.000 A 
ATOM     19  C   UNL     1      -0.516  11.743  21.667  0.00  0.00    +0.000 A 
ATOM     20  C   UNL     1      -0.141  10.714  20.790  0.00  0.00    +0.000 A 
ENDBRANCH   9  11
ENDBRANCH   6   9
ENDBRANCH   1   6
BRANCH   4  21
ATOM     21  C   UNL     1       3.125   4.066  18.953  0.00  0.00    +0.000 C 
BRANCH  21  22
ATOM     22  C   UNL     1       3.145   3.476  17.542  0.00  0.00    +0.000 C 
BRANCH  22  23
ATOM     23  C   UNL     1       4.567   3.275  17.021  0.00  0.00    +0.000 C 
BRANCH  23  24
ATOM     24  C   UNL     1       5.240   4.573  16.750  0.00  0.00    +0.000 A 
ATOM     25  N   UNL     1       4.958   5.264  15.639  0.00  0.00    +0.000 NA
ATOM     26  O   UNL     1       5.744   6.406  15.699  0.00  0.00    +0.000 OA
ATOM     27  C   UNL     1       6.482   6.391  16.843  0.00  0.00    +0.000 A 
ATOM     28  C   UNL     1       7.383   7.365  17.249  0.00  0.00    +0.000 A 
ATOM     29  C   UNL     1       8.012   7.125  18.468  0.00  0.00    +0.000 A 
ATOM     30  F   UNL     1       8.902   8.021  18.925  0.00  0.00    +0.000 F 
ATOM     31  C   UNL     1       7.754   5.988  19.233  0.00  0.00    +0.000 A 
ATOM     32  C   UNL     1       6.835   5.027  18.791  0.00  0.00    +0.000 A 
ATOM     33  C   UNL     1       6.191   5.243  17.560  0.00  0.00    +0.000 A 
ENDBRANCH  23  24
ENDBRANCH  22  23
ENDBRANCH  21  22
ENDBRANCH   4  21
TORSDOF 7
ENDMDL
MODEL 8
REMARK VINA RESULT:      -8.2      5.742      9.133
REMARK  Name = 
REMARK  7 active torsions:
REMARK  status: ('A' for Active; 'I' for Inactive)
REMARK    1  A    between atoms: S_2  and  N_4
REMARK    2  A    between atoms: S_2  and  C_23
REMARK    3  A    between atoms: N_4  and  C_5
REMARK    4  A    between atoms: N_8  and  C_9
REMARK    5  A    between atoms: C_9  and  C_10
REMARK    6  A    between atoms: C_10  and  C_11
REMARK    7  A    between atoms: C_11  and  C_12
REMARK                            x       y       z     vdW  Elec       q    Type
REMARK                         _______ _______ _______ _____ _____    ______ ____
ROOT
ATOM      1  C   UNL     1       2.489   5.778  19.186  0.00  0.00    +0.000 C 
ATOM      2  C   UNL     1       2.200   6.581  17.937  0.00  0.00    +0.000 C 
ATOM      3  C   UNL     1       2.572   7.987  18.355  0.00  0.00    +0.000 C 
ATOM      4  N   UNL     1       2.045   8.119  19.724  0.00  0.00    +0.000 NA
ATOM      5  C   UNL     1       2.095   6.751  20.310  0.00  0.00    +0.000 C 
ENDROOT
BRANCH   1   6
ATOM      6  N   UNL     1       3.918   5.413  19.307  0.00  0.00    +0.000 NA
ATOM      7  H   UNL     1       4.582   6.178  19.180  0.00  0.00    +0.000 HD
BRANCH   6   9
ATOM      8  O   UNL     1       5.433   3.411  19.575  0.00  0.00    +0.000 OA
ATOM      9  S   UNL     1       4.447   3.947  18.662  0.00  0.00    +0.000 S 
ATOM     10  O   UNL     1       3.282   3.190  18.259  0.00  0.00    +0.000 OA
BRANCH   9  11
ATOM     11  C   UNL     1       5.340   4.429  17.200  0.00  0.00    +0.000 A 
ATOM     12  C   UNL     1       6.401   5.327  17.313  0.00  0.00    +0.000 A 
ATOM     13  C   UNL     1       7.159   5.640  16.182  0.00  0.00    +0.000 A 
ATOM     14  C   UNL     1       6.879   5.042  14.940  0.00  0.00    +0.000 A 
ATOM     15  C   UNL     1       7.672   5.294  13.808  0.00  0.00    +0.000 A 
ATOM     16  C   UNL     1       7.397   4.666  12.591  0.00  0.00    +0.000 A 
ATOM     17  C   UNL     1       6.315   3.798  12.482  0.00  0.00    +0.000 A 
ATOM     18  C   UNL     1       5.510   3.546  13.594  0.00  0.00    +0.000 A 
ATOM     19  C   UNL     1       5.789   4.146  14.832  0.00  0.00    +0.000 A 
ATOM     20  C   UNL     1       5.024   3.847  15.969  0.00  0.00    +0.000 A 
ENDBRANCH   9  11
ENDBRANCH   6   9
ENDBRANCH   1   6
BRANCH   4  21
ATOM     21  C   UNL     1       0.672   8.660  19.686  0.00  0.00    +0.000 C 
BRANCH  21  22
ATOM     22  C   UNL     1       0.604  10.168  19.937  0.00  0.00    +0.000 C 
BRANCH  22  23
ATOM     23  C   UNL     1       0.314  10.953  18.659  0.00  0.00    +0.000 C 
BRANCH  23  24
ATOM     24  C   UNL     1      -1.107  10.818  18.244  0.00  0.00    +0.000 A 
ATOM     25  N   UNL     1      -1.443  10.020  17.223  0.00  0.00    +0.000 NA
ATOM     26  O   UNL     1      -2.821  10.122  17.105  0.00  0.00    +0.000 OA
ATOM     27  C   UNL     1      -3.298  10.972  18.057  0.00  0.00    +0.000 A 
ATOM     28  C   UNL     1      -4.626  11.322  18.252  0.00  0.00    +0.000 A 
ATOM     29  C   UNL     1      -4.862  12.207  19.301  0.00  0.00    +0.000 A 
ATOM     30  F   UNL     1      -6.124  12.596  19.547  0.00  0.00    +0.000 F 
ATOM     31  C   UNL     1      -3.838  12.706  20.104  0.00  0.00    +0.000 A 
ATOM     32  C   UNL     1      -2.508  12.327  19.878  0.00  0.00    +0.000 A 
ATOM     33  C   UNL     1      -2.243  11.439  18.822  0.00  0.00    +0.000 A 
ENDBRANCH  23  24
ENDBRANCH  22  23
ENDBRANCH  21  22
ENDBRANCH   4  21
TORSDOF 7
ENDMDL
MODEL 9
REMARK VINA RESULT:      -8.2      5.901      9.116
REMARK  Name = 
REMARK  7 active torsions:
REMARK  status: ('A' for Active; 'I' for Inactive)
REMARK    1  A    between atoms: S_2  and  N_4
REMARK    2  A    between atoms: S_2  and  C_23
REMARK    3  A    between atoms: N_4  and  C_5
REMARK    4  A    between atoms: N_8  and  C_9
REMARK    5  A    between atoms: C_9  and  C_10
REMARK    6  A    between atoms: C_10  and  C_11
REMARK    7  A    between atoms: C_11  and  C_12
REMARK                            x       y       z     vdW  Elec       q    Type
REMARK                         _______ _______ _______ _____ _____    ______ ____
ROOT
ATOM      1  C   UNL     1      -0.443  10.211  21.003  0.00  0.00    +0.000 C 
ATOM      2  C   UNL     1      -0.423   9.388  22.273  0.00  0.00    +0.000 C 
ATOM      3  C   UNL     1       1.055   9.126  22.473  0.00  0.00    +0.000 C 
ATOM      4  N   UNL     1       1.564   8.822  21.125  0.00  0.00    +0.000 NA
ATOM      5  C   UNL     1       0.705   9.594  20.184  0.00  0.00    +0.000 C 
ENDROOT
BRANCH   1   6
ATOM      6  N   UNL     1      -0.175  11.645  21.253  0.00  0.00    +0.000 NA
ATOM      7  H   UNL     1      -0.509  12.009  22.145  0.00  0.00    +0.000 HD
BRANCH   6   9
ATOM      8  O   UNL     1      -0.444  14.058  20.563  0.00  0.00    +0.000 OA
ATOM      9  S   UNL     1      -0.326  12.740  19.979  0.00  0.00    +0.000 S 
ATOM     10  O   UNL     1       0.686  12.424  18.995  0.00  0.00    +0.000 OA
BRANCH   9  11
ATOM     11  C   UNL     1      -1.922  12.363  19.288  0.00  0.00    +0.000 A 
ATOM     12  C   UNL     1      -1.998  11.781  18.022  0.00  0.00    +0.000 A 
ATOM     13  C   UNL     1      -3.243  11.403  17.514  0.00  0.00    +0.000 A 
ATOM     14  C   UNL     1      -4.414  11.581  18.273  0.00  0.00    +0.000 A 
ATOM     15  C   UNL     1      -5.665  11.145  17.805  0.00  0.00    +0.000 A 
ATOM     16  C   UNL     1      -6.812  11.301  18.586  0.00  0.00    +0.000 A 
ATOM     17  C   UNL     1      -6.729  11.913  19.833  0.00  0.00    +0.000 A 
ATOM     18  C   UNL     1      -5.496  12.361  20.308  0.00  0.00    +0.000 A 
ATOM     19  C   UNL     1      -4.329  12.187  19.548  0.00  0.00    +0.000 A 
ATOM     20  C   UNL     1      -3.077  12.577  20.046  0.00  0.00    +0.000 A 
ENDBRANCH   9  11
ENDBRANCH   6   9
ENDBRANCH   1   6
BRANCH   4  21
ATOM     21  C   UNL     1       1.498   7.369  20.877  0.00  0.00    +0.000 C 
BRANCH  21  22
ATOM     22  C   UNL     1       2.367   6.912  19.703  0.00  0.00    +0.000 C 
BRANCH  22  23
ATOM     23  C   UNL     1       2.297   5.400  19.490  0.00  0.00    +0.000 C 
BRANCH  23  24
ATOM     24  C   UNL     1       3.612   4.845  19.072  0.00  0.00    +0.000 A 
ATOM     25  N   UNL     1       4.183   3.855  19.768  0.00  0.00    +0.000 NA
ATOM     26  O   UNL     1       5.376   3.579  19.117  0.00  0.00    +0.000 OA
ATOM     27  C   UNL     1       5.506   4.398  18.037  0.00  0.00    +0.000 A 
ATOM     28  C   UNL     1       6.568   4.415  17.144  0.00  0.00    +0.000 A 
ATOM     29  C   UNL     1       6.465   5.344  16.112  0.00  0.00    +0.000 A 
ATOM     30  F   UNL     1       7.457   5.423  15.211  0.00  0.00    +0.000 F 
ATOM     31  C   UNL     1       5.370   6.197  15.979  0.00  0.00    +0.000 A 
ATOM     32  C   UNL     1       4.315   6.149  16.900  0.00  0.00    +0.000 A 
ATOM     33  C   UNL     1       4.398   5.224  17.954  0.00  0.00    +0.000 A 
ENDBRANCH  23  24
ENDBRANCH  22  23
ENDBRANCH  21  22
ENDBRANCH   4  21
TORSDOF 7
ENDMDL
