MODEL 1
REMARK VINA RESULT:      -8.1      0.000      0.000
REMARK  Name = 
REMARK  6 active torsions:
REMARK  status: ('A' for Active; 'I' for Inactive)
REMARK    1  A    between atoms: C_1  and  N_2
REMARK    2  A    between atoms: N_2  and  C_3
REMARK    3  A    between atoms: N_2  and  C_21
REMARK    4  A    between atoms: C_3  and  C_4
REMARK    5  A    between atoms: C_11  and  N_12
REMARK    6  A    between atoms: N_12  and  C_13
REMARK                            x       y       z     vdW  Elec       q    Type
REMARK                         _______ _______ _______ _____ _____    ______ ____
ROOT
ATOM      1  C   UNL     1       4.016   7.112  17.142  0.00  0.00    +0.000 C 
ATOM      2  C   UNL     1       3.199   6.135  18.119  0.00  0.00    +0.000 C 
ATOM      3  C   UNL     1       2.409   6.819  19.228  0.00  0.00    +0.000 A 
ATOM      4  C   UNL     1       1.964   8.121  18.834  0.00  0.00    +0.000 A 
ATOM      5  C   UNL     1       1.374   8.991  19.766  0.00  0.00    +0.000 A 
ATOM      6  C   UNL     1       1.179   8.565  21.061  0.00  0.00    +0.000 A 
ATOM      7  C   UNL     1       1.531   7.262  21.420  0.00  0.00    +0.000 A 
ATOM      8  C   UNL     1       2.130   6.318  20.539  0.00  0.00    +0.000 A 
ATOM      9  C   UNL     1       2.048   8.572  17.387  0.00  0.00    +0.000 C 
ATOM     10  N   UNL     1       3.332   8.357  16.750  0.00  0.00    +0.000 NA
ATOM     11  H   UNL     1       3.955   9.155  16.897  0.00  0.00    +0.000 HD
ENDROOT
BRANCH   8  12
ATOM     12  N   UNL     1       2.405   5.078  21.149  0.00  0.00    +0.000 N 
ATOM     13  H   UNL     1       2.698   5.224  22.113  0.00  0.00    +0.000 HD
BRANCH  12  14
ATOM     14  C   UNL     1       1.714   3.760  21.069  0.00  0.00    +0.000 C 
ATOM     15  C   UNL     1       2.660   2.533  20.965  0.00  0.00    +0.000 C 
ATOM     16  C   UNL     1       3.034   2.027  19.557  0.00  0.00    +0.000 C 
ATOM     17  N   UNL     1       1.882   1.930  18.666  0.00  0.00    +0.000 NA
ATOM     18  C   UNL     1       1.242   3.230  18.527  0.00  0.00    +0.000 C 
ATOM     19  C   UNL     1       0.718   3.752  19.874  0.00  0.00    +0.000 C 
ATOM     20  H   UNL     1       2.192   1.607  17.741  0.00  0.00    +0.000 HD
ENDBRANCH  12  14
ENDBRANCH   8  12
BRANCH   1  21
ATOM     21  C   UNL     1       5.449   7.439  17.685  0.00  0.00    +0.000 C 
BRANCH  21  23
ATOM     22  C   UNL     1       7.776   7.767  17.791  0.00  0.00    +0.000 C 
ATOM     23  N   UNL     1       6.740   7.102  16.954  0.00  0.00    +0.000 NA
BRANCH  23  24
ATOM     24  C   UNL     1       7.059   5.605  16.778  0.00  0.00    +0.000 C 
ATOM     25  C   UNL     1       6.285   4.748  17.814  0.00  0.00    +0.000 C 
ATOM     26  C   UNL     1       5.471   3.517  17.414  0.00  0.00    +0.000 C 
ATOM     27  C   UNL     1       5.169   3.275  15.953  0.00  0.00    +0.000 C 
ATOM     28  C   UNL     1       6.013   4.024  14.983  0.00  0.00    +0.000 A 
ATOM     29  C   UNL     1       5.895   3.659  13.625  0.00  0.00    +0.000 A 
ATOM     30  C   UNL     1       6.700   4.249  12.668  0.00  0.00    +0.000 A 
ATOM     31  C   UNL     1       7.640   5.149  13.109  0.00  0.00    +0.000 A 
ATOM     32  N   UNL     1       7.787   5.515  14.408  0.00  0.00    +0.000 NA
ATOM     33  C   UNL     1       6.922   5.024  15.346  0.00  0.00    +0.000 A 
ENDBRANCH  23  24
ENDBRANCH  21  23
ENDBRANCH   1  21
TORSDOF 5
ENDMDL
MODEL 2
REMARK VINA RESULT:      -7.7      7.545     12.175
REMARK  Name = 
REMARK  6 active torsions:
REMARK  status: ('A' for Active; 'I' for Inactive)
REMARK    1  A    between atoms: C_1  and  N_2
REMARK    2  A    between atoms: N_2  and  C_3
REMARK    3  A    between atoms: N_2  and  C_21
REMARK    4  A    between atoms: C_3  and  C_4
REMARK    5  A    between atoms: C_11  and  N_12
REMARK    6  A    between atoms: N_12  and  C_13
REMARK                            x       y       z     vdW  Elec       q    Type
REMARK                         _______ _______ _______ _____ _____    ______ ____
ROOT
ATOM      1  C   UNL     1      -1.703  11.574  18.216  0.00  0.00    +0.000 C 
ATOM      2  C   UNL     1      -1.317  12.309  19.589  0.00  0.00    +0.000 C 
ATOM      3  C   UNL     1      -0.934  11.391  20.744  0.00  0.00    +0.000 A 
ATOM      4  C   UNL     1      -0.327  10.181  20.279  0.00  0.00    +0.000 A 
ATOM      5  C   UNL     1      -0.062   9.124  21.165  0.00  0.00    +0.000 A 
ATOM      6  C   UNL     1      -0.346   9.275  22.504  0.00  0.00    +0.000 A 
ATOM      7  C   UNL     1      -0.855  10.490  22.970  0.00  0.00    +0.000 A 
ATOM      8  C   UNL     1      -1.148  11.610  22.143  0.00  0.00    +0.000 A 
ATOM      9  C   UNL     1       0.115  10.033  18.835  0.00  0.00    +0.000 C 
ATOM     10  N   UNL     1      -0.876  10.413  17.847  0.00  0.00    +0.000 NA
ATOM     11  H   UNL     1      -1.478   9.621  17.606  0.00  0.00    +0.000 HD
ENDROOT
BRANCH   8  12
ATOM     12  N   UNL     1      -1.669  12.710  22.852  0.00  0.00    +0.000 N 
ATOM     13  H   UNL     1      -0.913  13.213  23.313  0.00  0.00    +0.000 HD
BRANCH  12  14
ATOM     14  C   UNL     1      -2.740  13.689  22.515  0.00  0.00    +0.000 C 
ATOM     15  C   UNL     1      -2.766  14.961  23.405  0.00  0.00    +0.000 C 
ATOM     16  C   UNL     1      -3.662  14.947  24.660  0.00  0.00    +0.000 C 
ATOM     17  N   UNL     1      -4.995  14.414  24.397  0.00  0.00    +0.000 NA
ATOM     18  C   UNL     1      -4.902  13.053  23.888  0.00  0.00    +0.000 C 
ATOM     19  C   UNL     1      -4.131  12.994  22.560  0.00  0.00    +0.000 C 
ATOM     20  H   UNL     1      -5.540  14.410  25.268  0.00  0.00    +0.000 HD
ENDBRANCH  12  14
ENDBRANCH   8  12
BRANCH   1  21
ATOM     21  C   UNL     1      -3.221  11.190  18.149  0.00  0.00    +0.000 C 
BRANCH  21  23
ATOM     22  C   UNL     1      -3.892  10.908  15.912  0.00  0.00    +0.000 C 
ATOM     23  N   UNL     1      -4.197  11.731  17.115  0.00  0.00    +0.000 NA
BRANCH  23  24
ATOM     24  C   UNL     1      -5.694  11.645  17.470  0.00  0.00    +0.000 C 
ATOM     25  C   UNL     1      -5.932  10.633  18.621  0.00  0.00    +0.000 C 
ATOM     26  C   UNL     1      -6.764  10.979  19.857  0.00  0.00    +0.000 C 
ATOM     27  C   UNL     1      -7.134  12.421  20.116  0.00  0.00    +0.000 C 
ATOM     28  C   UNL     1      -7.008  13.343  18.956  0.00  0.00    +0.000 A 
ATOM     29  C   UNL     1      -7.545  14.638  19.112  0.00  0.00    +0.000 A 
ATOM     30  C   UNL     1      -7.541  15.532  18.056  0.00  0.00    +0.000 A 
ATOM     31  C   UNL     1      -7.048  15.080  16.857  0.00  0.00    +0.000 A 
ATOM     32  N   UNL     1      -6.535  13.837  16.668  0.00  0.00    +0.000 NA
ATOM     33  C   UNL     1      -6.429  12.986  17.733  0.00  0.00    +0.000 A 
ENDBRANCH  23  24
ENDBRANCH  21  23
ENDBRANCH   1  21
TORSDOF 5
ENDMDL
MODEL 3
REMARK VINA RESULT:      -7.6      4.316      6.986
REMARK  Name = 
REMARK  6 active torsions:
REMARK  status: ('A' for Active; 'I' for Inactive)
REMARK    1  A    between atoms: C_1  and  N_2
REMARK    2  A    between atoms: N_2  and  C_3
REMARK    3  A    between atoms: N_2  and  C_21
REMARK    4  A    between atoms: C_3  and  C_4
REMARK    5  A    between atoms: C_11  and  N_12
REMARK    6  A    between atoms: N_12  and  C_13
REMARK                            x       y       z     vdW  Elec       q    Type
REMARK                         _______ _______ _______ _____ _____    ______ ____
ROOT
ATOM      1  C   UNL     1       0.815  11.242  19.578  0.00  0.00    +0.000 C 
ATOM      2  C   UNL     1      -0.472  11.977  18.963  0.00  0.00    +0.000 C 
ATOM      3  C   UNL     1      -1.565  12.340  19.961  0.00  0.00    +0.000 A 
ATOM      4  C   UNL     1      -1.027  12.609  21.260  0.00  0.00    +0.000 A 
ATOM      5  C   UNL     1      -1.875  12.788  22.366  0.00  0.00    +0.000 A 
ATOM      6  C   UNL     1      -3.239  12.751  22.185  0.00  0.00    +0.000 A 
ATOM      7  C   UNL     1      -3.762  12.579  20.902  0.00  0.00    +0.000 A 
ATOM      8  C   UNL     1      -2.977  12.393  19.730  0.00  0.00    +0.000 A 
ATOM      9  C   UNL     1       0.466  12.784  21.467  0.00  0.00    +0.000 C 
ATOM     10  N   UNL     1       1.293  11.749  20.876  0.00  0.00    +0.000 NA
ATOM     11  H   UNL     1       1.427  10.969  21.524  0.00  0.00    +0.000 HD
ENDROOT
BRANCH   8  12
ATOM     12  N   UNL     1      -3.745  12.223  18.561  0.00  0.00    +0.000 N 
ATOM     13  H   UNL     1      -3.470  12.912  17.864  0.00  0.00    +0.000 HD
BRANCH  12  14
ATOM     14  C   UNL     1      -4.204  10.999  17.848  0.00  0.00    +0.000 C 
ATOM     15  C   UNL     1      -3.241   9.785  17.948  0.00  0.00    +0.000 C 
ATOM     16  C   UNL     1      -2.184   9.608  16.838  0.00  0.00    +0.000 C 
ATOM     17  N   UNL     1      -2.737   9.783  15.499  0.00  0.00    +0.000 NA
ATOM     18  C   UNL     1      -3.322  11.110  15.364  0.00  0.00    +0.000 C 
ATOM     19  C   UNL     1      -4.479  11.323  16.352  0.00  0.00    +0.000 C 
ATOM     20  H   UNL     1      -1.989   9.673  14.803  0.00  0.00    +0.000 HD
ENDBRANCH  12  14
ENDBRANCH   8  12
BRANCH   1  21
ATOM     21  C   UNL     1       0.640   9.686  19.646  0.00  0.00    +0.000 C 
BRANCH  21  23
ATOM     22  C   UNL     1       2.178   9.594  17.869  0.00  0.00    +0.000 C 
ATOM     23  N   UNL     1       1.381   8.701  18.754  0.00  0.00    +0.000 NA
BRANCH  23  24
ATOM     24  C   UNL     1       2.293   7.681  19.463  0.00  0.00    +0.000 C 
ATOM     25  C   UNL     1       1.531   6.957  20.605  0.00  0.00    +0.000 C 
ATOM     26  C   UNL     1       1.528   5.435  20.751  0.00  0.00    +0.000 C 
ATOM     27  C   UNL     1       2.037   4.584  19.611  0.00  0.00    +0.000 C 
ATOM     28  C   UNL     1       2.867   5.287  18.595  0.00  0.00    +0.000 A 
ATOM     29  C   UNL     1       3.524   4.479  17.643  0.00  0.00    +0.000 A 
ATOM     30  C   UNL     1       4.378   5.045  16.714  0.00  0.00    +0.000 A 
ATOM     31  C   UNL     1       4.590   6.399  16.802  0.00  0.00    +0.000 A 
ATOM     32  N   UNL     1       3.983   7.203  17.711  0.00  0.00    +0.000 NA
ATOM     33  C   UNL     1       3.051   6.673  18.560  0.00  0.00    +0.000 A 
ENDBRANCH  23  24
ENDBRANCH  21  23
ENDBRANCH   1  21
TORSDOF 5
ENDMDL
MODEL 4
REMARK VINA RESULT:      -7.6      2.635      7.993
REMARK  Name = 
REMARK  6 active torsions:
REMARK  status: ('A' for Active; 'I' for Inactive)
REMARK    1  A    between atoms: C_1  and  N_2
REMARK    2  A    between atoms: N_2  and  C_3
REMARK    3  A    between atoms: N_2  and  C_21
REMARK    4  A    between atoms: C_3  and  C_4
REMARK    5  A    between atoms: C_11  and  N_12
REMARK    6  A    between atoms: N_12  and  C_13
REMARK                            x       y       z     vdW  Elec       q    Type
REMARK                         _______ _______ _______ _____ _____    ______ ____
ROOT
ATOM      1  C   UNL     1       2.421   6.994  18.126  0.00  0.00    +0.000 C 
ATOM      2  C   UNL     1       3.912   6.401  18.119  0.00  0.00    +0.000 C 
ATOM      3  C   UNL     1       4.063   4.987  18.668  0.00  0.00    +0.000 A 
ATOM      4  C   UNL     1       2.884   4.206  18.450  0.00  0.00    +0.000 A 
ATOM      5  C   UNL     1       2.745   2.936  19.035  0.00  0.00    +0.000 A 
ATOM      6  C   UNL     1       3.778   2.420  19.785  0.00  0.00    +0.000 A 
ATOM      7  C   UNL     1       4.964   3.146  19.921  0.00  0.00    +0.000 A 
ATOM      8  C   UNL     1       5.187   4.434  19.361  0.00  0.00    +0.000 A 
ATOM      9  C   UNL     1       1.783   4.692  17.525  0.00  0.00    +0.000 C 
ATOM     10  N   UNL     1       1.347   6.056  17.752  0.00  0.00    +0.000 NA
ATOM     11  H   UNL     1       0.598   6.092  18.448  0.00  0.00    +0.000 HD
ENDROOT
BRANCH   8  12
ATOM     12  N   UNL     1       6.460   4.962  19.658  0.00  0.00    +0.000 N 
ATOM     13  H   UNL     1       6.785   4.598  20.551  0.00  0.00    +0.000 HD
BRANCH  12  14
ATOM     14  C   UNL     1       7.650   5.218  18.799  0.00  0.00    +0.000 C 
ATOM     15  C   UNL     1       7.940   6.717  18.515  0.00  0.00    +0.000 C 
ATOM     16  C   UNL     1       7.327   7.343  17.246  0.00  0.00    +0.000 C 
ATOM     17  N   UNL     1       7.492   6.502  16.064  0.00  0.00    +0.000 NA
ATOM     18  C   UNL     1       6.867   5.205  16.279  0.00  0.00    +0.000 C 
ATOM     19  C   UNL     1       7.511   4.451  17.453  0.00  0.00    +0.000 C 
ATOM     20  H   UNL     1       7.051   6.958  15.256  0.00  0.00    +0.000 HD
ENDBRANCH  12  14
ENDBRANCH   8  12
BRANCH   1  21
ATOM     21  C   UNL     1       2.064   7.698  19.480  0.00  0.00    +0.000 C 
BRANCH  21  23
ATOM     22  C   UNL     1       1.497   9.570  18.173  0.00  0.00    +0.000 C 
ATOM     23  N   UNL     1       1.515   9.113  19.591  0.00  0.00    +0.000 NA
BRANCH  23  24
ATOM     24  C   UNL     1       0.122   9.263  20.230  0.00  0.00    +0.000 C 
ATOM     25  C   UNL     1       0.086   8.611  21.638  0.00  0.00    +0.000 C 
ATOM     26  C   UNL     1      -0.458   9.342  22.866  0.00  0.00    +0.000 C 
ATOM     27  C   UNL     1      -0.710  10.830  22.786  0.00  0.00    +0.000 C 
ATOM     28  C   UNL     1      -0.790  11.403  21.416  0.00  0.00    +0.000 A 
ATOM     29  C   UNL     1      -1.230  12.739  21.311  0.00  0.00    +0.000 A 
ATOM     30  C   UNL     1      -1.409  13.323  20.070  0.00  0.00    +0.000 A 
ATOM     31  C   UNL     1      -1.193  12.532  18.969  0.00  0.00    +0.000 A 
ATOM     32  N   UNL     1      -0.779  11.241  19.033  0.00  0.00    +0.000 NA
ATOM     33  C   UNL     1      -0.489  10.689  20.251  0.00  0.00    +0.000 A 
ENDBRANCH  23  24
ENDBRANCH  21  23
ENDBRANCH   1  21
TORSDOF 5
ENDMDL
MODEL 5
REMARK VINA RESULT:      -7.2      2.324      7.836
REMARK  Name = 
REMARK  6 active torsions:
REMARK  status: ('A' for Active; 'I' for Inactive)
REMARK    1  A    between atoms: C_1  and  N_2
REMARK    2  A    between atoms: N_2  and  C_3
REMARK    3  A    between atoms: N_2  and  C_21
REMARK    4  A    between atoms: C_3  and  C_4
REMARK    5  A    between atoms: C_11  and  N_12
REMARK    6  A    between atoms: N_12  and  C_13
REMARK                            x       y       z     vdW  Elec       q    Type
REMARK                         _______ _______ _______ _____ _____    ______ ____
ROOT
ATOM      1  C   UNL     1       1.376   5.871  19.325  0.00  0.00    +0.000 C 
ATOM      2  C   UNL     1       2.086   4.875  18.286  0.00  0.00    +0.000 C 
ATOM      3  C   UNL     1       2.943   3.776  18.905  0.00  0.00    +0.000 A 
ATOM      4  C   UNL     1       2.451   3.383  20.190  0.00  0.00    +0.000 A 
ATOM      5  C   UNL     1       3.192   2.514  21.008  0.00  0.00    +0.000 A 
ATOM      6  C   UNL     1       4.382   1.998  20.545  0.00  0.00    +0.000 A 
ATOM      7  C   UNL     1       4.814   2.312  19.254  0.00  0.00    +0.000 A 
ATOM      8  C   UNL     1       4.124   3.179  18.362  0.00  0.00    +0.000 A 
ATOM      9  C   UNL     1       1.085   3.832  20.676  0.00  0.00    +0.000 C 
ATOM     10  N   UNL     1       0.821   5.252  20.541  0.00  0.00    +0.000 NA
ATOM     11  H   UNL     1       1.138   5.766  21.367  0.00  0.00    +0.000 HD
ENDROOT
BRANCH   8  12
ATOM     12  N   UNL     1       4.778   3.346  17.124  0.00  0.00    +0.000 N 
ATOM     13  H   UNL     1       4.665   2.508  16.558  0.00  0.00    +0.000 HD
BRANCH  12  14
ATOM     14  C   UNL     1       4.879   4.516  16.208  0.00  0.00    +0.000 C 
ATOM     15  C   UNL     1       5.619   4.237  14.872  0.00  0.00    +0.000 C 
ATOM     16  C   UNL     1       7.136   4.508  14.816  0.00  0.00    +0.000 C 
ATOM     17  N   UNL     1       7.503   5.791  15.408  0.00  0.00    +0.000 NA
ATOM     18  C   UNL     1       7.083   5.841  16.801  0.00  0.00    +0.000 C 
ATOM     19  C   UNL     1       5.558   5.709  16.940  0.00  0.00    +0.000 C 
ATOM     20  H   UNL     1       8.522   5.910  15.360  0.00  0.00    +0.000 HD
ENDBRANCH  12  14
ENDBRANCH   8  12
BRANCH   1  21
ATOM     21  C   UNL     1       2.292   7.082  19.714  0.00  0.00    +0.000 C 
BRANCH  21  23
ATOM     22  C   UNL     1       1.807   8.920  18.328  0.00  0.00    +0.000 C 
ATOM     23  N   UNL     1       1.823   8.528  19.765  0.00  0.00    +0.000 NA
BRANCH  23  24
ATOM     24  C   UNL     1       0.450   8.784  20.415  0.00  0.00    +0.000 C 
ATOM     25  C   UNL     1       0.529   8.621  21.957  0.00  0.00    +0.000 C 
ATOM     26  C   UNL     1      -0.023   9.673  22.921  0.00  0.00    +0.000 C 
ATOM     27  C   UNL     1      -0.402  11.035  22.387  0.00  0.00    +0.000 C 
ATOM     28  C   UNL     1      -0.588  11.127  20.914  0.00  0.00    +0.000 A 
ATOM     29  C   UNL     1      -1.144  12.325  20.418  0.00  0.00    +0.000 A 
ATOM     30  C   UNL     1      -1.423  12.464  19.070  0.00  0.00    +0.000 A 
ATOM     31  C   UNL     1      -1.187  11.375  18.268  0.00  0.00    +0.000 A 
ATOM     32  N   UNL     1      -0.664  10.204  18.713  0.00  0.00    +0.000 NA
ATOM     33  C   UNL     1      -0.278  10.096  20.021  0.00  0.00    +0.000 A 
ENDBRANCH  23  24
ENDBRANCH  21  23
ENDBRANCH   1  21
TORSDOF 5
ENDMDL
MODEL 6
REMARK VINA RESULT:      -7.1      4.378      7.493
REMARK  Name = 
REMARK  6 active torsions:
REMARK  status: ('A' for Active; 'I' for Inactive)
REMARK    1  A    between atoms: C_1  and  N_2
REMARK    2  A    between atoms: N_2  and  C_3
REMARK    3  A    between atoms: N_2  and  C_21
REMARK    4  A    between atoms: C_3  and  C_4
REMARK    5  A    between atoms: C_11  and  N_12
REMARK    6  A    between atoms: N_12  and  C_13
REMARK                            x       y       z     vdW  Elec       q    Type
REMARK                         _______ _______ _______ _____ _____    ______ ____
ROOT
ATOM      1  C   UNL     1       0.730  11.241  19.903  0.00  0.00    +0.000 C 
ATOM      2  C   UNL     1      -0.508  11.963  19.182  0.00  0.00    +0.000 C 
ATOM      3  C   UNL     1      -1.665  12.357  20.093  0.00  0.00    +0.000 A 
ATOM      4  C   UNL     1      -1.215  12.660  21.417  0.00  0.00    +0.000 A 
ATOM      5  C   UNL     1      -2.136  12.872  22.457  0.00  0.00    +0.000 A 
ATOM      6  C   UNL     1      -3.485  12.835  22.185  0.00  0.00    +0.000 A 
ATOM      7  C   UNL     1      -3.920  12.629  20.874  0.00  0.00    +0.000 A 
ATOM      8  C   UNL     1      -3.057  12.409  19.764  0.00  0.00    +0.000 A 
ATOM      9  C   UNL     1       0.261  12.835  21.722  0.00  0.00    +0.000 C 
ATOM     10  N   UNL     1       1.121  11.782  21.217  0.00  0.00    +0.000 NA
ATOM     11  H   UNL     1       1.206  11.019  21.893  0.00  0.00    +0.000 HD
ENDROOT
BRANCH   8  12
ATOM     12  N   UNL     1      -3.744  12.210  18.550  0.00  0.00    +0.000 N 
ATOM     13  H   UNL     1      -3.414  12.874  17.853  0.00  0.00    +0.000 HD
BRANCH  12  14
ATOM     14  C   UNL     1      -4.168  10.968  17.845  0.00  0.00    +0.000 C 
ATOM     15  C   UNL     1      -3.160   9.791  17.934  0.00  0.00    +0.000 C 
ATOM     16  C   UNL     1      -2.112   9.651  16.811  0.00  0.00    +0.000 C 
ATOM     17  N   UNL     1      -2.687   9.803  15.478  0.00  0.00    +0.000 NA
ATOM     18  C   UNL     1      -3.322  11.107  15.350  0.00  0.00    +0.000 C 
ATOM     19  C   UNL     1      -4.473  11.280  16.352  0.00  0.00    +0.000 C 
ATOM     20  H   UNL     1      -1.945   9.719  14.774  0.00  0.00    +0.000 HD
ENDBRANCH  12  14
ENDBRANCH   8  12
BRANCH   1  21
ATOM     21  C   UNL     1       0.542   9.688  20.001  0.00  0.00    +0.000 C 
BRANCH  21  23
ATOM     22  C   UNL     1       1.379   8.064  21.484  0.00  0.00    +0.000 C 
ATOM     23  N   UNL     1       1.684   8.697  20.171  0.00  0.00    +0.000 NA
BRANCH  23  24
ATOM     24  C   UNL     1       1.836   7.627  19.072  0.00  0.00    +0.000 C 
ATOM     25  C   UNL     1       2.721   8.150  17.909  0.00  0.00    +0.000 C 
ATOM     26  C   UNL     1       3.896   7.347  17.349  0.00  0.00    +0.000 C 
ATOM     27  C   UNL     1       4.398   6.144  18.113  0.00  0.00    +0.000 C 
ATOM     28  C   UNL     1       3.472   5.594  19.140  0.00  0.00    +0.000 A 
ATOM     29  C   UNL     1       3.826   4.355  19.715  0.00  0.00    +0.000 A 
ATOM     30  C   UNL     1       2.982   3.734  20.618  0.00  0.00    +0.000 A 
ATOM     31  C   UNL     1       1.781   4.349  20.877  0.00  0.00    +0.000 A 
ATOM     32  N   UNL     1       1.405   5.535  20.334  0.00  0.00    +0.000 NA
ATOM     33  C   UNL     1       2.279   6.212  19.529  0.00  0.00    +0.000 A 
ENDBRANCH  23  24
ENDBRANCH  21  23
ENDBRANCH   1  21
TORSDOF 5
ENDMDL
MODEL 7
REMARK VINA RESULT:      -7.1      7.904     11.251
REMARK  Name = 
REMARK  6 active torsions:
REMARK  status: ('A' for Active; 'I' for Inactive)
REMARK    1  A    between atoms: C_1  and  N_2
REMARK    2  A    between atoms: N_2  and  C_3
REMARK    3  A    between atoms: N_2  and  C_21
REMARK    4  A    between atoms: C_3  and  C_4
REMARK    5  A    between atoms: C_11  and  N_12
REMARK    6  A    between atoms: N_12  and  C_13
REMARK                            x       y       z     vdW  Elec       q    Type
REMARK                         _______ _______ _______ _____ _____    ______ ____
ROOT
ATOM      1  C   UNL     1      -1.284  11.639  18.700  0.00  0.00    +0.000 C 
ATOM      2  C   UNL     1      -2.607  11.442  19.586  0.00  0.00    +0.000 C 
ATOM      3  C   UNL     1      -3.924  11.754  18.884  0.00  0.00    +0.000 A 
ATOM      4  C   UNL     1      -3.849  11.493  17.479  0.00  0.00    +0.000 A 
ATOM      5  C   UNL     1      -4.891  11.880  16.620  0.00  0.00    +0.000 A 
ATOM      6  C   UNL     1      -6.018  12.472  17.146  0.00  0.00    +0.000 A 
ATOM      7  C   UNL     1      -6.127  12.642  18.529  0.00  0.00    +0.000 A 
ATOM      8  C   UNL     1      -5.122  12.277  19.467  0.00  0.00    +0.000 A 
ATOM      9  C   UNL     1      -2.680  10.729  16.886  0.00  0.00    +0.000 C 
ATOM     10  N   UNL     1      -1.369  11.194  17.298  0.00  0.00    +0.000 NA
ATOM     11  H   UNL     1      -1.029  11.933  16.679  0.00  0.00    +0.000 HD
ENDROOT
BRANCH   8  12
ATOM     12  N   UNL     1      -5.468  12.569  20.801  0.00  0.00    +0.000 N 
ATOM     13  H   UNL     1      -4.704  12.308  21.421  0.00  0.00    +0.000 HD
BRANCH  12  14
ATOM     14  C   UNL     1      -6.185  13.726  21.408  0.00  0.00    +0.000 C 
ATOM     15  C   UNL     1      -5.306  14.643  22.301  0.00  0.00    +0.000 C 
ATOM     16  C   UNL     1      -5.247  14.338  23.812  0.00  0.00    +0.000 C 
ATOM     17  N   UNL     1      -6.563  14.080  24.388  0.00  0.00    +0.000 NA
ATOM     18  C   UNL     1      -7.193  12.951  23.720  0.00  0.00    +0.000 C 
ATOM     19  C   UNL     1      -7.410  13.225  22.224  0.00  0.00    +0.000 C 
ATOM     20  H   UNL     1      -6.462  13.866  25.388  0.00  0.00    +0.000 HD
ENDBRANCH  12  14
ENDBRANCH   8  12
BRANCH   1  21
ATOM     21  C   UNL     1      -0.736  13.107  18.760  0.00  0.00    +0.000 C 
BRANCH  21  23
ATOM     22  C   UNL     1       0.810  14.875  18.876  0.00  0.00    +0.000 C 
ATOM     23  N   UNL     1       0.583  13.502  19.406  0.00  0.00    +0.000 NA
BRANCH  23  24
ATOM     24  C   UNL     1       0.624  13.498  20.946  0.00  0.00    +0.000 C 
ATOM     25  C   UNL     1      -0.209  14.673  21.525  0.00  0.00    +0.000 C 
ATOM     26  C   UNL     1      -1.252  14.474  22.625  0.00  0.00    +0.000 C 
ATOM     27  C   UNL     1      -1.698  13.072  22.973  0.00  0.00    +0.000 C 
ATOM     28  C   UNL     1      -0.811  11.973  22.505  0.00  0.00    +0.000 A 
ATOM     29  C   UNL     1      -1.091  10.680  22.994  0.00  0.00    +0.000 A 
ATOM     30  C   UNL     1      -0.269   9.615  22.673  0.00  0.00    +0.000 A 
ATOM     31  C   UNL     1       0.843   9.890  21.914  0.00  0.00    +0.000 A 
ATOM     32  N   UNL     1       1.148  11.123  21.436  0.00  0.00    +0.000 NA
ATOM     33  C   UNL     1       0.282  12.160  21.652  0.00  0.00    +0.000 A 
ENDBRANCH  23  24
ENDBRANCH  21  23
ENDBRANCH   1  21
TORSDOF 5
ENDMDL
MODEL 8
REMARK VINA RESULT:      -7.0      8.125     12.927
REMARK  Name = 
REMARK  6 active torsions:
REMARK  status: ('A' for Active; 'I' for Inactive)
REMARK    1  A    between atoms: C_1  and  N_2
REMARK    2  A    between atoms: N_2  and  C_3
REMARK    3  A    between atoms: N_2  and  C_21
REMARK    4  A    between atoms: C_3  and  C_4
REMARK    5  A    between atoms: C_11  and  N_12
REMARK    6  A    between atoms: N_12  and  C_13
REMARK                            x       y       z     vdW  Elec       q    Type
REMARK                         _______ _______ _______ _____ _____    ______ ____
ROOT
ATOM      1  C   UNL     1      -4.167  13.113  23.659  0.00  0.00    +0.000 C 
ATOM      2  C   UNL     1      -3.040  12.929  22.531  0.00  0.00    +0.000 C 
ATOM      3  C   UNL     1      -2.323  14.203  22.100  0.00  0.00    +0.000 A 
ATOM      4  C   UNL     1      -2.248  15.155  23.167  0.00  0.00    +0.000 A 
ATOM      5  C   UNL     1      -1.787  16.461  22.933  0.00  0.00    +0.000 A 
ATOM      6  C   UNL     1      -1.358  16.812  21.673  0.00  0.00    +0.000 A 
ATOM      7  C   UNL     1      -1.347  15.855  20.655  0.00  0.00    +0.000 A 
ATOM      8  C   UNL     1      -1.793  14.513  20.807  0.00  0.00    +0.000 A 
ATOM      9  C   UNL     1      -2.592  14.761  24.592  0.00  0.00    +0.000 C 
ATOM     10  N   UNL     1      -3.848  14.053  24.748  0.00  0.00    +0.000 NA
ATOM     11  H   UNL     1      -4.625  14.706  24.880  0.00  0.00    +0.000 HD
ENDROOT
BRANCH   8  12
ATOM     12  N   UNL     1      -1.696  13.752  19.625  0.00  0.00    +0.000 N 
ATOM     13  H   UNL     1      -2.113  14.263  18.850  0.00  0.00    +0.000 HD
BRANCH  12  14
ATOM     14  C   UNL     1      -0.600  12.900  19.083  0.00  0.00    +0.000 C 
ATOM     15  C   UNL     1      -1.075  11.647  18.300  0.00  0.00    +0.000 C 
ATOM     16  C   UNL     1      -1.240  10.327  19.080  0.00  0.00    +0.000 C 
ATOM     17  N   UNL     1      -0.112  10.047  19.964  0.00  0.00    +0.000 NA
ATOM     18  C   UNL     1       0.053  11.128  20.926  0.00  0.00    +0.000 C 
ATOM     19  C   UNL     1       0.354  12.465  20.232  0.00  0.00    +0.000 C 
ATOM     20  H   UNL     1      -0.283   9.170  20.470  0.00  0.00    +0.000 HD
ENDBRANCH  12  14
ENDBRANCH   8  12
BRANCH   1  21
ATOM     21  C   UNL     1      -5.570  13.458  23.052  0.00  0.00    +0.000 C 
BRANCH  21  23
ATOM     22  C   UNL     1      -7.587  13.019  24.180  0.00  0.00    +0.000 C 
ATOM     23  N   UNL     1      -6.760  12.509  23.052  0.00  0.00    +0.000 NA
BRANCH  23  24
ATOM     24  C   UNL     1      -7.588  12.443  21.754  0.00  0.00    +0.000 C 
ATOM     25  C   UNL     1      -7.365  13.713  20.890  0.00  0.00    +0.000 C 
ATOM     26  C   UNL     1      -7.023  13.641  19.402  0.00  0.00    +0.000 C 
ATOM     27  C   UNL     1      -6.610  12.316  18.803  0.00  0.00    +0.000 C 
ATOM     28  C   UNL     1      -6.947  11.108  19.604  0.00  0.00    +0.000 A 
ATOM     29  C   UNL     1      -6.765   9.858  18.975  0.00  0.00    +0.000 A 
ATOM     30  C   UNL     1      -7.129   8.690  19.619  0.00  0.00    +0.000 A 
ATOM     31  C   UNL     1      -7.716   8.813  20.854  0.00  0.00    +0.000 A 
ATOM     32  N   UNL     1      -7.916   9.999  21.483  0.00  0.00    +0.000 NA
ATOM     33  C   UNL     1      -7.457  11.151  20.906  0.00  0.00    +0.000 A 
ENDBRANCH  23  24
ENDBRANCH  21  23
ENDBRANCH   1  21
TORSDOF 5
ENDMDL
MODEL 9
REMARK VINA RESULT:      -7.0      2.375      7.764
REMARK  Name = 
REMARK  6 active torsions:
REMARK  status: ('A' for Active; 'I' for Inactive)
REMARK    1  A    between atoms: C_1  and  N_2
REMARK    2  A    between atoms: N_2  and  C_3
REMARK    3  A    between atoms: N_2  and  C_21
REMARK    4  A    between atoms: C_3  and  C_4
REMARK    5  A    between atoms: C_11  and  N_12
REMARK    6  A    between atoms: N_12  and  C_13
REMARK                            x       y       z     vdW  Elec       q    Type
REMARK                         _______ _______ _______ _____ _____    ______ ____
ROOT
ATOM      1  C   UNL     1       1.443   5.907  19.264  0.00  0.00    +0.000 C 
ATOM      2  C   UNL     1       2.303   4.896  18.361  0.00  0.00    +0.000 C 
ATOM      3  C   UNL     1       3.041   3.798  19.120  0.00  0.00    +0.000 A 
ATOM      4  C   UNL     1       2.346   3.422  20.313  0.00  0.00    +0.000 A 
ATOM      5  C   UNL     1       2.941   2.557  21.247  0.00  0.00    +0.000 A 
ATOM      6  C   UNL     1       4.185   2.029  20.985  0.00  0.00    +0.000 A 
ATOM      7  C   UNL     1       4.821   2.327  19.777  0.00  0.00    +0.000 A 
ATOM      8  C   UNL     1       4.290   3.188  18.778  0.00  0.00    +0.000 A 
ATOM      9  C   UNL     1       0.924   3.885  20.570  0.00  0.00    +0.000 C 
ATOM     10  N   UNL     1       0.696   5.304  20.381  0.00  0.00    +0.000 NA
ATOM     11  H   UNL     1       0.881   5.825  21.242  0.00  0.00    +0.000 HD
ENDROOT
BRANCH   8  12
ATOM     12  N   UNL     1       5.134   3.339  17.660  0.00  0.00    +0.000 N 
ATOM     13  H   UNL     1       4.635   3.076  16.812  0.00  0.00    +0.000 HD
BRANCH  12  14
ATOM     14  C   UNL     1       6.131   4.388  17.306  0.00  0.00    +0.000 C 
ATOM     15  C   UNL     1       5.748   5.827  17.746  0.00  0.00    +0.000 C 
ATOM     16  C   UNL     1       4.984   6.711  16.740  0.00  0.00    +0.000 C 
ATOM     17  N   UNL     1       5.557   6.664  15.398  0.00  0.00    +0.000 NA
ATOM     18  C   UNL     1       5.554   5.296  14.897  0.00  0.00    +0.000 C 
ATOM     19  C   UNL     1       6.406   4.368  15.776  0.00  0.00    +0.000 C 
ATOM     20  H   UNL     1       5.000   7.253  14.768  0.00  0.00    +0.000 HD
ENDBRANCH  12  14
ENDBRANCH   8  12
BRANCH   1  21
ATOM     21  C   UNL     1       2.294   7.116  19.784  0.00  0.00    +0.000 C 
BRANCH  21  23
ATOM     22  C   UNL     1       1.790   8.936  18.380  0.00  0.00    +0.000 C 
ATOM     23  N   UNL     1       1.803   8.556  19.820  0.00  0.00    +0.000 NA
BRANCH  23  24
ATOM     24  C   UNL     1       0.423   8.796  20.460  0.00  0.00    +0.000 C 
ATOM     25  C   UNL     1       0.491   8.631  22.002  0.00  0.00    +0.000 C 
ATOM     26  C   UNL     1      -0.078   9.674  22.964  0.00  0.00    +0.000 C 
ATOM     27  C   UNL     1      -0.467  11.034  22.431  0.00  0.00    +0.000 C 
ATOM     28  C   UNL     1      -0.642  11.128  20.957  0.00  0.00    +0.000 A 
ATOM     29  C   UNL     1      -1.206  12.322  20.459  0.00  0.00    +0.000 A 
ATOM     30  C   UNL     1      -1.477  12.460  19.110  0.00  0.00    +0.000 A 
ATOM     31  C   UNL     1      -1.224  11.376  18.306  0.00  0.00    +0.000 A 
ATOM     32  N   UNL     1      -0.692  10.209  18.753  0.00  0.00    +0.000 NA
ATOM     33  C   UNL     1      -0.315  10.102  20.063  0.00  0.00    +0.000 A 
ENDBRANCH  23  24
ENDBRANCH  21  23
ENDBRANCH   1  21
TORSDOF 5
ENDMDL
