MODEL 1
REMARK VINA RESULT:      -7.4      0.000      0.000
REMARK  Name = 
REMARK  6 active torsions:
REMARK  status: ('A' for Active; 'I' for Inactive)
REMARK    1  A    between atoms: C_1  and  C_2
REMARK    2  A    between atoms: C_2  and  C_3
REMARK    3  A    between atoms: C_2  and  C_18
REMARK    4  A    between atoms: N_8  and  C_9
REMARK    5  A    between atoms: C_9  and  C_10
REMARK    6  A    between atoms: C_21  and  N_22
REMARK                            x       y       z     vdW  Elec       q    Type
REMARK                         _______ _______ _______ _____ _____    ______ ____
ROOT
ATOM      1  C   UNL     1       1.916   6.236  19.772  0.00  0.00    +0.000 C 
ATOM      2  O   UNL     1       1.826   5.932  20.968  0.00  0.00    +0.000 OA
ATOM      3  N   UNL     1       1.895   7.568  19.378  0.00  0.00    +0.000 N 
ATOM      4  C   UNL     1       1.918   8.066  18.001  0.00  0.00    +0.000 C 
ATOM      5  C   UNL     1       0.849   9.152  17.754  0.00  0.00    +0.000 C 
ATOM      6  N   UNL     1       0.856  10.258  18.740  0.00  0.00    +0.000 NA
ATOM      7  C   UNL     1       0.781   9.668  20.098  0.00  0.00    +0.000 C 
ATOM      8  C   UNL     1       1.871   8.624  20.402  0.00  0.00    +0.000 C 
ENDROOT
BRANCH   1  10
ATOM      9  C   UNL     1       1.195   3.903  19.098  0.00  0.00    +0.000 C 
ATOM     10  C   UNL     1       2.069   5.113  18.738  0.00  0.00    +0.000 C 
BRANCH  10  11
ATOM     11  C   UNL     1       3.514   4.835  18.318  0.00  0.00    +0.000 A 
ATOM     12  C   UNL     1       3.836   4.132  17.144  0.00  0.00    +0.000 A 
ATOM     13  C   UNL     1       5.163   3.989  16.729  0.00  0.00    +0.000 A 
ATOM     14  C   UNL     1       6.190   4.556  17.487  0.00  0.00    +0.000 A 
ATOM     15  C   UNL     1       5.901   5.242  18.669  0.00  0.00    +0.000 A 
ATOM     16  C   UNL     1       4.568   5.381  19.077  0.00  0.00    +0.000 A 
BRANCH  14  17
ATOM     17  N   UNL     1       7.578   4.446  17.019  0.00  0.00    +0.000 N 
ATOM     18  O   UNL     1       7.804   4.661  15.819  0.00  0.00    +0.000 OA
ATOM     19  O   UNL     1       8.446   4.146  17.846  0.00  0.00    +0.000 OA
ENDBRANCH  14  17
ENDBRANCH  10  11
ENDBRANCH   1  10
BRANCH   6  20
ATOM     20  C   UNL     1       2.040  11.112  18.536  0.00  0.00    +0.000 C 
BRANCH  20  21
ATOM     21  C   UNL     1       1.768  12.598  18.584  0.00  0.00    +0.000 A 
ATOM     22  C   UNL     1       0.458  13.068  18.766  0.00  0.00    +0.000 A 
ATOM     23  C   UNL     1       0.203  14.438  18.854  0.00  0.00    +0.000 A 
ATOM     24  C   UNL     1       1.255  15.349  18.764  0.00  0.00    +0.000 A 
ATOM     25  C   UNL     1       2.559  14.892  18.577  0.00  0.00    +0.000 A 
ATOM     26  C   UNL     1       2.816  13.524  18.485  0.00  0.00    +0.000 A 
ENDBRANCH  20  21
ENDBRANCH   6  20
TORSDOF 5
ENDMDL
MODEL 2
REMARK VINA RESULT:      -7.3      0.210      1.144
REMARK  Name = 
REMARK  6 active torsions:
REMARK  status: ('A' for Active; 'I' for Inactive)
REMARK    1  A    between atoms: C_1  and  C_2
REMARK    2  A    between atoms: C_2  and  C_3
REMARK    3  A    between atoms: C_2  and  C_18
REMARK    4  A    between atoms: N_8  and  C_9
REMARK    5  A    between atoms: C_9  and  C_10
REMARK    6  A    between atoms: C_21  and  N_22
REMARK                            x       y       z     vdW  Elec       q    Type
REMARK                         _______ _______ _______ _____ _____    ______ ____
ROOT
ATOM      1  C   UNL     1       1.951   6.229  19.838  0.00  0.00    +0.000 C 
ATOM      2  O   UNL     1       1.886   5.976  21.047  0.00  0.00    +0.000 OA
ATOM      3  N   UNL     1       1.926   7.543  19.388  0.00  0.00    +0.000 N 
ATOM      4  C   UNL     1       1.919   7.982  17.991  0.00  0.00    +0.000 C 
ATOM      5  C   UNL     1       0.849   9.061  17.722  0.00  0.00    +0.000 C 
ATOM      6  N   UNL     1       0.882  10.208  18.659  0.00  0.00    +0.000 NA
ATOM      7  C   UNL     1       0.835   9.677  20.043  0.00  0.00    +0.000 C 
ATOM      8  C   UNL     1       1.928   8.642  20.366  0.00  0.00    +0.000 C 
ENDROOT
BRANCH   1  10
ATOM      9  C   UNL     1       1.254   3.851  19.311  0.00  0.00    +0.000 C 
ATOM     10  C   UNL     1       2.076   5.062  18.849  0.00  0.00    +0.000 C 
BRANCH  10  11
ATOM     11  C   UNL     1       3.504   4.798  18.364  0.00  0.00    +0.000 A 
ATOM     12  C   UNL     1       3.805   4.529  17.018  0.00  0.00    +0.000 A 
ATOM     13  C   UNL     1       5.128   4.401  16.586  0.00  0.00    +0.000 A 
ATOM     14  C   UNL     1       6.172   4.547  17.501  0.00  0.00    +0.000 A 
ATOM     15  C   UNL     1       5.902   4.793  18.849  0.00  0.00    +0.000 A 
ATOM     16  C   UNL     1       4.573   4.920  19.273  0.00  0.00    +0.000 A 
BRANCH  14  17
ATOM     17  N   UNL     1       7.561   4.462  17.032  0.00  0.00    +0.000 N 
ATOM     18  O   UNL     1       8.432   4.136  17.853  0.00  0.00    +0.000 OA
ATOM     19  O   UNL     1       7.789   4.719  15.844  0.00  0.00    +0.000 OA
ENDBRANCH  14  17
ENDBRANCH  10  11
ENDBRANCH   1  10
BRANCH   6  20
ATOM     20  C   UNL     1       2.064  11.048  18.393  0.00  0.00    +0.000 C 
BRANCH  20  21
ATOM     21  C   UNL     1       1.838  12.534  18.554  0.00  0.00    +0.000 A 
ATOM     22  C   UNL     1       2.926  13.418  18.512  0.00  0.00    +0.000 A 
ATOM     23  C   UNL     1       2.723  14.795  18.618  0.00  0.00    +0.000 A 
ATOM     24  C   UNL     1       1.431  15.299  18.763  0.00  0.00    +0.000 A 
ATOM     25  C   UNL     1       0.344  14.428  18.811  0.00  0.00    +0.000 A 
ATOM     26  C   UNL     1       0.544  13.051  18.709  0.00  0.00    +0.000 A 
ENDBRANCH  20  21
ENDBRANCH   6  20
TORSDOF 5
ENDMDL
MODEL 3
REMARK VINA RESULT:      -7.2      0.531      1.361
REMARK  Name = 
REMARK  6 active torsions:
REMARK  status: ('A' for Active; 'I' for Inactive)
REMARK    1  A    between atoms: C_1  and  C_2
REMARK    2  A    between atoms: C_2  and  C_3
REMARK    3  A    between atoms: C_2  and  C_18
REMARK    4  A    between atoms: N_8  and  C_9
REMARK    5  A    between atoms: C_9  and  C_10
REMARK    6  A    between atoms: C_21  and  N_22
REMARK                            x       y       z     vdW  Elec       q    Type
REMARK                         _______ _______ _______ _____ _____    ______ ____
ROOT
ATOM      1  C   UNL     1       1.906   6.477  19.948  0.00  0.00    +0.000 C 
ATOM      2  O   UNL     1       1.797   6.195  21.147  0.00  0.00    +0.000 OA
ATOM      3  N   UNL     1       1.828   7.796  19.521  0.00  0.00    +0.000 N 
ATOM      4  C   UNL     1       1.864   8.264  18.134  0.00  0.00    +0.000 C 
ATOM      5  C   UNL     1       0.748   9.286  17.832  0.00  0.00    +0.000 C 
ATOM      6  N   UNL     1       0.669  10.413  18.790  0.00  0.00    +0.000 NA
ATOM      7  C   UNL     1       0.586   9.851  20.160  0.00  0.00    +0.000 C 
ATOM      8  C   UNL     1       1.720   8.872  20.518  0.00  0.00    +0.000 C 
ENDROOT
BRANCH   1  10
ATOM      9  C   UNL     1       1.441   4.050  19.388  0.00  0.00    +0.000 C 
ATOM     10  C   UNL     1       2.147   5.340  18.945  0.00  0.00    +0.000 C 
BRANCH  10  11
ATOM     11  C   UNL     1       3.595   5.219  18.465  0.00  0.00    +0.000 A 
ATOM     12  C   UNL     1       4.689   5.309  19.343  0.00  0.00    +0.000 A 
ATOM     13  C   UNL     1       5.995   5.084  18.895  0.00  0.00    +0.000 A 
ATOM     14  C   UNL     1       6.220   4.760  17.556  0.00  0.00    +0.000 A 
ATOM     15  C   UNL     1       5.154   4.684  16.657  0.00  0.00    +0.000 A 
ATOM     16  C   UNL     1       3.849   4.911  17.114  0.00  0.00    +0.000 A 
BRANCH  14  17
ATOM     17  N   UNL     1       7.587   4.475  17.102  0.00  0.00    +0.000 N 
ATOM     18  O   UNL     1       7.833   4.590  15.892  0.00  0.00    +0.000 OA
ATOM     19  O   UNL     1       8.421   4.136  17.950  0.00  0.00    +0.000 OA
ENDBRANCH  14  17
ENDBRANCH  10  11
ENDBRANCH   1  10
BRANCH   6  20
ATOM     20  C   UNL     1       1.813  11.323  18.599  0.00  0.00    +0.000 C 
BRANCH  20  21
ATOM     21  C   UNL     1       1.547  12.765  18.967  0.00  0.00    +0.000 A 
ATOM     22  C   UNL     1       2.505  13.494  19.688  0.00  0.00    +0.000 A 
ATOM     23  C   UNL     1       2.286  14.838  19.997  0.00  0.00    +0.000 A 
ATOM     24  C   UNL     1       1.111  15.464  19.586  0.00  0.00    +0.000 A 
ATOM     25  C   UNL     1       0.149  14.747  18.875  0.00  0.00    +0.000 A 
ATOM     26  C   UNL     1       0.364  13.403  18.568  0.00  0.00    +0.000 A 
ENDBRANCH  20  21
ENDBRANCH   6  20
TORSDOF 5
ENDMDL
MODEL 4
REMARK VINA RESULT:      -7.1      3.189      8.389
REMARK  Name = 
REMARK  6 active torsions:
REMARK  status: ('A' for Active; 'I' for Inactive)
REMARK    1  A    between atoms: C_1  and  C_2
REMARK    2  A    between atoms: C_2  and  C_3
REMARK    3  A    between atoms: C_2  and  C_18
REMARK    4  A    between atoms: N_8  and  C_9
REMARK    5  A    between atoms: C_9  and  C_10
REMARK    6  A    between atoms: C_21  and  N_22
REMARK                            x       y       z     vdW  Elec       q    Type
REMARK                         _______ _______ _______ _____ _____    ______ ____
ROOT
ATOM      1  C   UNL     1       2.790   4.901  18.751  0.00  0.00    +0.000 C 
ATOM      2  O   UNL     1       1.832   4.210  18.384  0.00  0.00    +0.000 OA
ATOM      3  N   UNL     1       3.934   4.996  17.969  0.00  0.00    +0.000 N 
ATOM      4  C   UNL     1       5.164   5.712  18.313  0.00  0.00    +0.000 C 
ATOM      5  C   UNL     1       6.427   4.864  18.054  0.00  0.00    +0.000 C 
ATOM      6  N   UNL     1       6.499   4.265  16.700  0.00  0.00    +0.000 NA
ATOM      7  C   UNL     1       5.240   3.522  16.455  0.00  0.00    +0.000 C 
ATOM      8  C   UNL     1       3.959   4.355  16.645  0.00  0.00    +0.000 C 
ENDROOT
BRANCH   1  10
ATOM      9  C   UNL     1       2.092   4.771  21.183  0.00  0.00    +0.000 C 
ATOM     10  C   UNL     1       2.682   5.661  20.080  0.00  0.00    +0.000 C 
BRANCH  10  11
ATOM     11  C   UNL     1       2.123   7.080  19.950  0.00  0.00    +0.000 A 
ATOM     12  C   UNL     1       2.240   7.830  18.767  0.00  0.00    +0.000 A 
ATOM     13  C   UNL     1       1.624   9.079  18.640  0.00  0.00    +0.000 A 
ATOM     14  C   UNL     1       0.876   9.592  19.701  0.00  0.00    +0.000 A 
ATOM     15  C   UNL     1       0.762   8.879  20.896  0.00  0.00    +0.000 A 
ATOM     16  C   UNL     1       1.381   7.628  21.014  0.00  0.00    +0.000 A 
BRANCH  14  17
ATOM     17  N   UNL     1       0.190  10.881  19.544  0.00  0.00    +0.000 N 
ATOM     18  O   UNL     1       0.530  11.607  18.599  0.00  0.00    +0.000 OA
ATOM     19  O   UNL     1      -0.690  11.173  20.362  0.00  0.00    +0.000 OA
ENDBRANCH  14  17
ENDBRANCH  10  11
ENDBRANCH   1  10
BRANCH   6  20
ATOM     20  C   UNL     1       6.768   5.310  15.697  0.00  0.00    +0.000 C 
BRANCH  20  21
ATOM     21  C   UNL     1       6.859   4.815  14.271  0.00  0.00    +0.000 A 
ATOM     22  C   UNL     1       5.982   3.819  13.815  0.00  0.00    +0.000 A 
ATOM     23  C   UNL     1       6.032   3.386  12.489  0.00  0.00    +0.000 A 
ATOM     24  C   UNL     1       6.956   3.946  11.608  0.00  0.00    +0.000 A 
ATOM     25  C   UNL     1       7.836   4.932  12.053  0.00  0.00    +0.000 A 
ATOM     26  C   UNL     1       7.791   5.364  13.378  0.00  0.00    +0.000 A 
ENDBRANCH  20  21
ENDBRANCH   6  20
TORSDOF 5
ENDMDL
MODEL 5
REMARK VINA RESULT:      -7.1      3.148      8.444
REMARK  Name = 
REMARK  6 active torsions:
REMARK  status: ('A' for Active; 'I' for Inactive)
REMARK    1  A    between atoms: C_1  and  C_2
REMARK    2  A    between atoms: C_2  and  C_3
REMARK    3  A    between atoms: C_2  and  C_18
REMARK    4  A    between atoms: N_8  and  C_9
REMARK    5  A    between atoms: C_9  and  C_10
REMARK    6  A    between atoms: C_21  and  N_22
REMARK                            x       y       z     vdW  Elec       q    Type
REMARK                         _______ _______ _______ _____ _____    ______ ____
ROOT
ATOM      1  C   UNL     1       2.794   4.935  18.722  0.00  0.00    +0.000 C 
ATOM      2  O   UNL     1       1.847   4.223  18.365  0.00  0.00    +0.000 OA
ATOM      3  N   UNL     1       3.939   5.031  17.942  0.00  0.00    +0.000 N 
ATOM      4  C   UNL     1       5.157   5.772  18.276  0.00  0.00    +0.000 C 
ATOM      5  C   UNL     1       6.434   4.937  18.039  0.00  0.00    +0.000 C 
ATOM      6  N   UNL     1       6.520   4.312  16.699  0.00  0.00    +0.000 NA
ATOM      7  C   UNL     1       5.273   3.545  16.464  0.00  0.00    +0.000 C 
ATOM      8  C   UNL     1       3.979   4.363  16.631  0.00  0.00    +0.000 C 
ENDROOT
BRANCH   1  10
ATOM      9  C   UNL     1       2.050   4.857  21.142  0.00  0.00    +0.000 C 
ATOM     10  C   UNL     1       2.669   5.721  20.034  0.00  0.00    +0.000 C 
BRANCH  10  11
ATOM     11  C   UNL     1       2.128   7.143  19.867  0.00  0.00    +0.000 A 
ATOM     12  C   UNL     1       2.241   7.856  18.661  0.00  0.00    +0.000 A 
ATOM     13  C   UNL     1       1.640   9.108  18.504  0.00  0.00    +0.000 A 
ATOM     14  C   UNL     1       0.911   9.663  19.557  0.00  0.00    +0.000 A 
ATOM     15  C   UNL     1       0.800   8.987  20.774  0.00  0.00    +0.000 A 
ATOM     16  C   UNL     1       1.405   7.732  20.923  0.00  0.00    +0.000 A 
BRANCH  14  17
ATOM     17  N   UNL     1       0.240  10.956  19.369  0.00  0.00    +0.000 N 
ATOM     18  O   UNL     1       0.635  11.918  20.045  0.00  0.00    +0.000 OA
ATOM     19  O   UNL     1      -0.682  11.016  18.547  0.00  0.00    +0.000 OA
ENDBRANCH  14  17
ENDBRANCH  10  11
ENDBRANCH   1  10
BRANCH   6  20
ATOM     20  C   UNL     1       6.778   5.340  15.674  0.00  0.00    +0.000 C 
BRANCH  20  21
ATOM     21  C   UNL     1       6.796   4.830  14.251  0.00  0.00    +0.000 A 
ATOM     22  C   UNL     1       7.761   5.302  13.348  0.00  0.00    +0.000 A 
ATOM     23  C   UNL     1       7.811   4.807  12.044  0.00  0.00    +0.000 A 
ATOM     24  C   UNL     1       6.900   3.834  11.633  0.00  0.00    +0.000 A 
ATOM     25  C   UNL     1       5.934   3.363  12.521  0.00  0.00    +0.000 A 
ATOM     26  C   UNL     1       5.880   3.859  13.824  0.00  0.00    +0.000 A 
ENDBRANCH  20  21
ENDBRANCH   6  20
TORSDOF 5
ENDMDL
MODEL 6
REMARK VINA RESULT:      -7.0      0.633      1.250
REMARK  Name = 
REMARK  6 active torsions:
REMARK  status: ('A' for Active; 'I' for Inactive)
REMARK    1  A    between atoms: C_1  and  C_2
REMARK    2  A    between atoms: C_2  and  C_3
REMARK    3  A    between atoms: C_2  and  C_18
REMARK    4  A    between atoms: N_8  and  C_9
REMARK    5  A    between atoms: C_9  and  C_10
REMARK    6  A    between atoms: C_21  and  N_22
REMARK                            x       y       z     vdW  Elec       q    Type
REMARK                         _______ _______ _______ _____ _____    ______ ____
ROOT
ATOM      1  C   UNL     1       1.902   6.340  19.490  0.00  0.00    +0.000 C 
ATOM      2  O   UNL     1       1.902   5.906  20.649  0.00  0.00    +0.000 OA
ATOM      3  N   UNL     1       1.796   7.703  19.246  0.00  0.00    +0.000 N 
ATOM      4  C   UNL     1       1.708   8.345  17.933  0.00  0.00    +0.000 C 
ATOM      5  C   UNL     1       0.579   9.395  17.870  0.00  0.00    +0.000 C 
ATOM      6  N   UNL     1       0.601  10.389  18.968  0.00  0.00    +0.000 NA
ATOM      7  C   UNL     1       0.640   9.655  20.256  0.00  0.00    +0.000 C 
ATOM      8  C   UNL     1       1.792   8.641  20.378  0.00  0.00    +0.000 C 
ENDROOT
BRANCH   1  10
ATOM      9  C   UNL     1       1.338   4.014  18.658  0.00  0.00    +0.000 C 
ATOM     10  C   UNL     1       2.037   5.342  18.332  0.00  0.00    +0.000 C 
BRANCH  10  11
ATOM     11  C   UNL     1       3.440   5.267  17.725  0.00  0.00    +0.000 A 
ATOM     12  C   UNL     1       4.444   6.201  18.032  0.00  0.00    +0.000 A 
ATOM     13  C   UNL     1       5.748   6.044  17.551  0.00  0.00    +0.000 A 
ATOM     14  C   UNL     1       6.063   4.941  16.755  0.00  0.00    +0.000 A 
ATOM     15  C   UNL     1       5.080   4.009  16.416  0.00  0.00    +0.000 A 
ATOM     16  C   UNL     1       3.777   4.174  16.904  0.00  0.00    +0.000 A 
BRANCH  14  17
ATOM     17  N   UNL     1       7.445   4.755  16.294  0.00  0.00    +0.000 N 
ATOM     18  O   UNL     1       8.239   4.188  17.058  0.00  0.00    +0.000 OA
ATOM     19  O   UNL     1       7.742   5.174  15.169  0.00  0.00    +0.000 OA
ENDBRANCH  14  17
ENDBRANCH  10  11
ENDBRANCH   1  10
BRANCH   6  20
ATOM     20  C   UNL     1       1.730  11.319  18.789  0.00  0.00    +0.000 C 
BRANCH  20  21
ATOM     21  C   UNL     1       1.355  12.784  18.790  0.00  0.00    +0.000 A 
ATOM     22  C   UNL     1       0.033  13.170  19.059  0.00  0.00    +0.000 A 
ATOM     23  C   UNL     1      -0.314  14.522  19.103  0.00  0.00    +0.000 A 
ATOM     24  C   UNL     1       0.657  15.497  18.880  0.00  0.00    +0.000 A 
ATOM     25  C   UNL     1       1.972  15.123  18.605  0.00  0.00    +0.000 A 
ATOM     26  C   UNL     1       2.320  13.773  18.558  0.00  0.00    +0.000 A 
ENDBRANCH  20  21
ENDBRANCH   6  20
TORSDOF 5
ENDMDL
MODEL 7
REMARK VINA RESULT:      -7.0      3.155      8.366
REMARK  Name = 
REMARK  6 active torsions:
REMARK  status: ('A' for Active; 'I' for Inactive)
REMARK    1  A    between atoms: C_1  and  C_2
REMARK    2  A    between atoms: C_2  and  C_3
REMARK    3  A    between atoms: C_2  and  C_18
REMARK    4  A    between atoms: N_8  and  C_9
REMARK    5  A    between atoms: C_9  and  C_10
REMARK    6  A    between atoms: C_21  and  N_22
REMARK                            x       y       z     vdW  Elec       q    Type
REMARK                         _______ _______ _______ _____ _____    ______ ____
ROOT
ATOM      1  C   UNL     1       2.847   4.771  18.777  0.00  0.00    +0.000 C 
ATOM      2  O   UNL     1       1.948   3.987  18.450  0.00  0.00    +0.000 OA
ATOM      3  N   UNL     1       3.976   4.923  17.981  0.00  0.00    +0.000 N 
ATOM      4  C   UNL     1       5.144   5.753  18.282  0.00  0.00    +0.000 C 
ATOM      5  C   UNL     1       6.471   5.001  18.052  0.00  0.00    +0.000 C 
ATOM      6  N   UNL     1       6.587   4.347  16.728  0.00  0.00    +0.000 NA
ATOM      7  C   UNL     1       5.392   3.492  16.528  0.00  0.00    +0.000 C 
ATOM      8  C   UNL     1       4.048   4.225  16.689  0.00  0.00    +0.000 C 
ENDROOT
BRANCH   1  10
ATOM      9  C   UNL     1       2.134   4.707  21.207  0.00  0.00    +0.000 C 
ATOM     10  C   UNL     1       2.682   5.581  20.069  0.00  0.00    +0.000 C 
BRANCH  10  11
ATOM     11  C   UNL     1       2.042   6.958  19.872  0.00  0.00    +0.000 A 
ATOM     12  C   UNL     1       1.388   7.640  20.912  0.00  0.00    +0.000 A 
ATOM     13  C   UNL     1       0.911   8.942  20.734  0.00  0.00    +0.000 A 
ATOM     14  C   UNL     1       1.090   9.581  19.505  0.00  0.00    +0.000 A 
ATOM     15  C   UNL     1       1.717   8.920  18.447  0.00  0.00    +0.000 A 
ATOM     16  C   UNL     1       2.192   7.615  18.636  0.00  0.00    +0.000 A 
BRANCH  14  17
ATOM     17  N   UNL     1       0.632  10.967  19.339  0.00  0.00    +0.000 N 
ATOM     18  O   UNL     1       1.492  11.852  19.222  0.00  0.00    +0.000 OA
ATOM     19  O   UNL     1      -0.587  11.177  19.325  0.00  0.00    +0.000 OA
ENDBRANCH  14  17
ENDBRANCH  10  11
ENDBRANCH   1  10
BRANCH   6  20
ATOM     20  C   UNL     1       6.764   5.363  15.674  0.00  0.00    +0.000 C 
BRANCH  20  21
ATOM     21  C   UNL     1       6.827   4.815  14.267  0.00  0.00    +0.000 A 
ATOM     22  C   UNL     1       5.890   3.861  13.841  0.00  0.00    +0.000 A 
ATOM     23  C   UNL     1       5.915   3.381  12.530  0.00  0.00    +0.000 A 
ATOM     24  C   UNL     1       6.873   3.853  11.634  0.00  0.00    +0.000 A 
ATOM     25  C   UNL     1       7.812   4.796  12.049  0.00  0.00    +0.000 A 
ATOM     26  C   UNL     1       7.792   5.275  13.359  0.00  0.00    +0.000 A 
ENDBRANCH  20  21
ENDBRANCH   6  20
TORSDOF 5
ENDMDL
MODEL 8
REMARK VINA RESULT:      -7.0      3.210      8.428
REMARK  Name = 
REMARK  6 active torsions:
REMARK  status: ('A' for Active; 'I' for Inactive)
REMARK    1  A    between atoms: C_1  and  C_2
REMARK    2  A    between atoms: C_2  and  C_3
REMARK    3  A    between atoms: C_2  and  C_18
REMARK    4  A    between atoms: N_8  and  C_9
REMARK    5  A    between atoms: C_9  and  C_10
REMARK    6  A    between atoms: C_21  and  N_22
REMARK                            x       y       z     vdW  Elec       q    Type
REMARK                         _______ _______ _______ _____ _____    ______ ____
ROOT
ATOM      1  C   UNL     1       2.776   4.787  18.804  0.00  0.00    +0.000 C 
ATOM      2  O   UNL     1       1.835   4.079  18.425  0.00  0.00    +0.000 OA
ATOM      3  N   UNL     1       3.923   4.911  18.031  0.00  0.00    +0.000 N 
ATOM      4  C   UNL     1       5.135   5.649  18.389  0.00  0.00    +0.000 C 
ATOM      5  C   UNL     1       6.418   4.828  18.135  0.00  0.00    +0.000 C 
ATOM      6  N   UNL     1       6.512   4.240  16.779  0.00  0.00    +0.000 NA
ATOM      7  C   UNL     1       5.270   3.472  16.519  0.00  0.00    +0.000 C 
ATOM      8  C   UNL     1       3.971   4.278  16.704  0.00  0.00    +0.000 C 
ENDROOT
BRANCH   1  10
ATOM      9  C   UNL     1       2.129   4.609  21.247  0.00  0.00    +0.000 C 
ATOM     10  C   UNL     1       2.641   5.537  20.136  0.00  0.00    +0.000 C 
BRANCH  10  11
ATOM     11  C   UNL     1       1.991   6.917  20.019  0.00  0.00    +0.000 A 
ATOM     12  C   UNL     1       1.332   7.533  21.097  0.00  0.00    +0.000 A 
ATOM     13  C   UNL     1       0.845   8.840  20.994  0.00  0.00    +0.000 A 
ATOM     14  C   UNL     1       1.016   9.550  19.804  0.00  0.00    +0.000 A 
ATOM     15  C   UNL     1       1.647   8.955  18.710  0.00  0.00    +0.000 A 
ATOM     16  C   UNL     1       2.133   7.646  18.822  0.00  0.00    +0.000 A 
BRANCH  14  17
ATOM     17  N   UNL     1       0.547  10.939  19.719  0.00  0.00    +0.000 N 
ATOM     18  O   UNL     1      -0.675  11.134  19.637  0.00  0.00    +0.000 OA
ATOM     19  O   UNL     1       1.394  11.839  19.733  0.00  0.00    +0.000 OA
ENDBRANCH  14  17
ENDBRANCH  10  11
ENDBRANCH   1  10
BRANCH   6  20
ATOM     20  C   UNL     1       6.767   5.296  15.783  0.00  0.00    +0.000 C 
BRANCH  20  21
ATOM     21  C   UNL     1       6.810   4.822  14.348  0.00  0.00    +0.000 A 
ATOM     22  C   UNL     1       7.741   5.373  13.454  0.00  0.00    +0.000 A 
ATOM     23  C   UNL     1       7.815   4.912  12.138  0.00  0.00    +0.000 A 
ATOM     24  C   UNL     1       6.964   3.895  11.707  0.00  0.00    +0.000 A 
ATOM     25  C   UNL     1       6.032   3.345  12.587  0.00  0.00    +0.000 A 
ATOM     26  C   UNL     1       5.953   3.807  13.901  0.00  0.00    +0.000 A 
ENDBRANCH  20  21
ENDBRANCH   6  20
TORSDOF 5
ENDMDL
MODEL 9
REMARK VINA RESULT:      -7.0      2.903      4.345
REMARK  Name = 
REMARK  6 active torsions:
REMARK  status: ('A' for Active; 'I' for Inactive)
REMARK    1  A    between atoms: C_1  and  C_2
REMARK    2  A    between atoms: C_2  and  C_3
REMARK    3  A    between atoms: C_2  and  C_18
REMARK    4  A    between atoms: N_8  and  C_9
REMARK    5  A    between atoms: C_9  and  C_10
REMARK    6  A    between atoms: C_21  and  N_22
REMARK                            x       y       z     vdW  Elec       q    Type
REMARK                         _______ _______ _______ _____ _____    ______ ____
ROOT
ATOM      1  C   UNL     1       5.535   4.561  18.854  0.00  0.00    +0.000 C 
ATOM      2  O   UNL     1       5.331   3.518  19.488  0.00  0.00    +0.000 OA
ATOM      3  N   UNL     1       4.621   5.606  18.898  0.00  0.00    +0.000 N 
ATOM      4  C   UNL     1       4.697   6.858  18.145  0.00  0.00    +0.000 C 
ATOM      5  C   UNL     1       3.358   7.214  17.464  0.00  0.00    +0.000 C 
ATOM      6  N   UNL     1       2.183   7.184  18.366  0.00  0.00    +0.000 NA
ATOM      7  C   UNL     1       2.155   5.868  19.049  0.00  0.00    +0.000 C 
ATOM      8  C   UNL     1       3.455   5.507  19.791  0.00  0.00    +0.000 C 
ENDROOT
BRANCH   1  10
ATOM      9  C   UNL     1       7.687   5.856  18.520  0.00  0.00    +0.000 C 
ATOM     10  C   UNL     1       6.826   4.682  18.033  0.00  0.00    +0.000 C 
BRANCH  10  11
ATOM     11  C   UNL     1       6.628   4.536  16.522  0.00  0.00    +0.000 A 
ATOM     12  C   UNL     1       7.510   5.106  15.588  0.00  0.00    +0.000 A 
ATOM     13  C   UNL     1       7.366   4.864  14.218  0.00  0.00    +0.000 A 
ATOM     14  C   UNL     1       6.334   4.039  13.766  0.00  0.00    +0.000 A 
ATOM     15  C   UNL     1       5.430   3.477  14.670  0.00  0.00    +0.000 A 
ATOM     16  C   UNL     1       5.582   3.725  16.041  0.00  0.00    +0.000 A 
BRANCH  14  17
ATOM     17  N   UNL     1       6.219   3.748  12.331  0.00  0.00    +0.000 N 
ATOM     18  O   UNL     1       7.192   4.005  11.608  0.00  0.00    +0.000 OA
ATOM     19  O   UNL     1       5.158   3.262  11.922  0.00  0.00    +0.000 OA
ENDBRANCH  14  17
ENDBRANCH  10  11
ENDBRANCH   1  10
BRANCH   6  20
ATOM     20  C   UNL     1       2.228   8.327  19.297  0.00  0.00    +0.000 C 
BRANCH  20  21
ATOM     21  C   UNL     1       1.021   9.236  19.247  0.00  0.00    +0.000 A 
ATOM     22  C   UNL     1       0.378   9.485  18.024  0.00  0.00    +0.000 A 
ATOM     23  C   UNL     1      -0.761  10.290  17.975  0.00  0.00    +0.000 A 
ATOM     24  C   UNL     1      -1.269  10.850  19.147  0.00  0.00    +0.000 A 
ATOM     25  C   UNL     1      -0.633  10.615  20.365  0.00  0.00    +0.000 A 
ATOM     26  C   UNL     1       0.507   9.813  20.417  0.00  0.00    +0.000 A 
ENDBRANCH  20  21
ENDBRANCH   6  20
TORSDOF 5
ENDMDL
