MODEL 1
REMARK VINA RESULT:      -7.4      0.000      0.000
REMARK  Name = 
REMARK  6 active torsions:
REMARK  status: ('A' for Active; 'I' for Inactive)
REMARK    1  A    between atoms: C_1  and  C_2
REMARK    2  A    between atoms: C_6  and  N_7
REMARK    3  A    between atoms: C_11  and  C_12
REMARK    4  A    between atoms: C_12  and  N_13
REMARK    5  A    between atoms: N_13  and  C_14
REMARK    6  A    between atoms: N_13  and  C_15
REMARK                            x       y       z     vdW  Elec       q    Type
REMARK                         _______ _______ _______ _____ _____    ______ ____
ROOT
ATOM      1  N   UNL     1       3.849   6.098  17.597  0.00  0.00    +0.000 N 
ATOM      2  N   UNL     1       3.662   7.442  17.665  0.00  0.00    +0.000 NA
ATOM      3  N   UNL     1       2.458   7.628  18.175  0.00  0.00    +0.000 NA
ATOM      4  N   UNL     1       1.892   6.443  18.529  0.00  0.00    +0.000 NA
ATOM      5  C   UNL     1       2.758   5.484  18.228  0.00  0.00    +0.000 A 
ENDROOT
BRANCH   1  11
ATOM      6  C   UNL     1       6.104   3.947  13.791  0.00  0.00    +0.000 C 
ATOM      7  C   UNL     1       6.190   4.499  15.184  0.00  0.00    +0.000 A 
ATOM      8  C   UNL     1       7.279   4.246  16.016  0.00  0.00    +0.000 A 
ATOM      9  C   UNL     1       7.285   4.727  17.329  0.00  0.00    +0.000 A 
ATOM     10  C   UNL     1       6.171   5.395  17.844  0.00  0.00    +0.000 A 
ATOM     11  C   UNL     1       5.042   5.581  17.037  0.00  0.00    +0.000 A 
ATOM     12  C   UNL     1       5.111   5.224  15.694  0.00  0.00    +0.000 A 
ENDBRANCH   1  11
BRANCH   5  13
ATOM     13  C   UNL     1       2.654   4.034  18.735  0.00  0.00    +0.000 C 
ATOM     14  C   UNL     1       3.000   3.041  17.576  0.00  0.00    +0.000 C 
ATOM     15  C   UNL     1       3.644   1.810  18.202  0.00  0.00    +0.000 C 
ATOM     16  C   UNL     1       4.332   2.305  19.457  0.00  0.00    +0.000 C 
ATOM     17  C   UNL     1       3.851   3.732  19.688  0.00  0.00    +0.000 C 
BRANCH  13  18
ATOM     18  N   UNL     1       1.312   3.800  19.346  0.00  0.00    +0.000 NA
ATOM     19  C   UNL     1       0.577   2.662  18.773  0.00  0.00    +0.000 C 
ATOM     20  C   UNL     1       1.241   3.715  20.801  0.00  0.00    +0.000 C 
ENDBRANCH  13  18
ENDBRANCH   5  13
TORSDOF 3
ENDMDL
MODEL 2
REMARK VINA RESULT:      -7.3      1.704      4.972
REMARK  Name = 
REMARK  6 active torsions:
REMARK  status: ('A' for Active; 'I' for Inactive)
REMARK    1  A    between atoms: C_1  and  C_2
REMARK    2  A    between atoms: C_6  and  N_7
REMARK    3  A    between atoms: C_11  and  C_12
REMARK    4  A    between atoms: C_12  and  N_13
REMARK    5  A    between atoms: N_13  and  C_14
REMARK    6  A    between atoms: N_13  and  C_15
REMARK                            x       y       z     vdW  Elec       q    Type
REMARK                         _______ _______ _______ _____ _____    ______ ____
ROOT
ATOM      1  N   UNL     1       2.545   6.500  18.173  0.00  0.00    +0.000 N 
ATOM      2  N   UNL     1       1.663   7.500  17.914  0.00  0.00    +0.000 NA
ATOM      3  N   UNL     1       2.378   8.548  17.549  0.00  0.00    +0.000 NA
ATOM      4  N   UNL     1       3.698   8.231  17.472  0.00  0.00    +0.000 NA
ATOM      5  C   UNL     1       3.820   6.952  17.804  0.00  0.00    +0.000 A 
ENDROOT
BRANCH   1  11
ATOM      6  C   UNL     1       2.146   3.296  21.884  0.00  0.00    +0.000 C 
ATOM      7  C   UNL     1       1.874   3.629  20.446  0.00  0.00    +0.000 A 
ATOM      8  C   UNL     1       1.470   2.665  19.525  0.00  0.00    +0.000 A 
ATOM      9  C   UNL     1       1.292   3.009  18.182  0.00  0.00    +0.000 A 
ATOM     10  C   UNL     1       1.591   4.299  17.735  0.00  0.00    +0.000 A 
ATOM     11  C   UNL     1       2.074   5.250  18.642  0.00  0.00    +0.000 A 
ATOM     12  C   UNL     1       2.108   4.931  19.995  0.00  0.00    +0.000 A 
ENDBRANCH   1  11
BRANCH   5  13
ATOM     13  C   UNL     1       5.085   6.111  17.557  0.00  0.00    +0.000 C 
ATOM     14  C   UNL     1       6.311   7.053  17.317  0.00  0.00    +0.000 C 
ATOM     15  C   UNL     1       7.549   6.342  17.848  0.00  0.00    +0.000 C 
ATOM     16  C   UNL     1       7.058   5.455  18.973  0.00  0.00    +0.000 C 
ATOM     17  C   UNL     1       5.536   5.451  18.896  0.00  0.00    +0.000 C 
BRANCH  13  18
ATOM     18  N   UNL     1       4.847   5.140  16.448  0.00  0.00    +0.000 NA
ATOM     19  C   UNL     1       5.543   5.472  15.194  0.00  0.00    +0.000 C 
ATOM     20  C   UNL     1       5.055   3.725  16.734  0.00  0.00    +0.000 C 
ENDBRANCH  13  18
ENDBRANCH   5  13
TORSDOF 3
ENDMDL
MODEL 3
REMARK VINA RESULT:      -7.1      1.520      4.882
REMARK  Name = 
REMARK  6 active torsions:
REMARK  status: ('A' for Active; 'I' for Inactive)
REMARK    1  A    between atoms: C_1  and  C_2
REMARK    2  A    between atoms: C_6  and  N_7
REMARK    3  A    between atoms: C_11  and  C_12
REMARK    4  A    between atoms: C_12  and  N_13
REMARK    5  A    between atoms: N_13  and  C_14
REMARK    6  A    between atoms: N_13  and  C_15
REMARK                            x       y       z     vdW  Elec       q    Type
REMARK                         _______ _______ _______ _____ _____    ______ ____
ROOT
ATOM      1  N   UNL     1       2.609   6.295  18.182  0.00  0.00    +0.000 N 
ATOM      2  N   UNL     1       1.805   7.346  17.874  0.00  0.00    +0.000 NA
ATOM      3  N   UNL     1       2.598   8.322  17.472  0.00  0.00    +0.000 NA
ATOM      4  N   UNL     1       3.892   7.905  17.420  0.00  0.00    +0.000 NA
ATOM      5  C   UNL     1       3.916   6.635  17.805  0.00  0.00    +0.000 A 
ENDROOT
BRANCH   1  11
ATOM      6  C   UNL     1       2.057   3.223  21.983  0.00  0.00    +0.000 C 
ATOM      7  C   UNL     1       1.763   3.549  20.548  0.00  0.00    +0.000 A 
ATOM      8  C   UNL     1       1.239   2.606  19.666  0.00  0.00    +0.000 A 
ATOM      9  C   UNL     1       1.043   2.936  18.322  0.00  0.00    +0.000 A 
ATOM     10  C   UNL     1       1.442   4.183  17.832  0.00  0.00    +0.000 A 
ATOM     11  C   UNL     1       2.043   5.104  18.698  0.00  0.00    +0.000 A 
ATOM     12  C   UNL     1       2.098   4.813  20.057  0.00  0.00    +0.000 A 
ENDBRANCH   1  11
BRANCH   5  13
ATOM     13  C   UNL     1       5.116   5.693  17.605  0.00  0.00    +0.000 C 
ATOM     14  C   UNL     1       4.725   4.536  16.625  0.00  0.00    +0.000 C 
ATOM     15  C   UNL     1       5.980   4.140  15.858  0.00  0.00    +0.000 C 
ATOM     16  C   UNL     1       6.825   5.393  15.783  0.00  0.00    +0.000 C 
ATOM     17  C   UNL     1       6.193   6.406  16.731  0.00  0.00    +0.000 C 
BRANCH  13  18
ATOM     18  N   UNL     1       5.620   5.216  18.926  0.00  0.00    +0.000 NA
ATOM     19  C   UNL     1       5.357   3.793  19.196  0.00  0.00    +0.000 C 
ATOM     20  C   UNL     1       7.010   5.504  19.261  0.00  0.00    +0.000 C 
ENDBRANCH  13  18
ENDBRANCH   5  13
TORSDOF 3
ENDMDL
MODEL 4
REMARK VINA RESULT:      -7.1      0.797      1.649
REMARK  Name = 
REMARK  6 active torsions:
REMARK  status: ('A' for Active; 'I' for Inactive)
REMARK    1  A    between atoms: C_1  and  C_2
REMARK    2  A    between atoms: C_6  and  N_7
REMARK    3  A    between atoms: C_11  and  C_12
REMARK    4  A    between atoms: C_12  and  N_13
REMARK    5  A    between atoms: N_13  and  C_14
REMARK    6  A    between atoms: N_13  and  C_15
REMARK                            x       y       z     vdW  Elec       q    Type
REMARK                         _______ _______ _______ _____ _____    ______ ____
ROOT
ATOM      1  N   UNL     1       3.913   6.263  17.535  0.00  0.00    +0.000 N 
ATOM      2  N   UNL     1       3.725   7.608  17.543  0.00  0.00    +0.000 NA
ATOM      3  N   UNL     1       2.505   7.815  18.002  0.00  0.00    +0.000 NA
ATOM      4  N   UNL     1       1.924   6.646  18.382  0.00  0.00    +0.000 NA
ATOM      5  C   UNL     1       2.799   5.674  18.151  0.00  0.00    +0.000 A 
ENDROOT
BRANCH   1  11
ATOM      6  C   UNL     1       6.337   4.102  13.841  0.00  0.00    +0.000 C 
ATOM      7  C   UNL     1       6.354   4.636  15.243  0.00  0.00    +0.000 A 
ATOM      8  C   UNL     1       7.385   4.348  16.134  0.00  0.00    +0.000 A 
ATOM      9  C   UNL     1       7.326   4.814  17.451  0.00  0.00    +0.000 A 
ATOM     10  C   UNL     1       6.200   5.503  17.908  0.00  0.00    +0.000 A 
ATOM     11  C   UNL     1       5.125   5.725  17.039  0.00  0.00    +0.000 A 
ATOM     12  C   UNL     1       5.263   5.381  15.699  0.00  0.00    +0.000 A 
ENDBRANCH   1  11
BRANCH   5  13
ATOM     13  C   UNL     1       2.675   4.246  18.711  0.00  0.00    +0.000 C 
ATOM     14  C   UNL     1       1.164   3.858  18.842  0.00  0.00    +0.000 C 
ATOM     15  C   UNL     1       1.055   2.355  18.617  0.00  0.00    +0.000 C 
ATOM     16  C   UNL     1       2.196   1.998  17.688  0.00  0.00    +0.000 C 
ATOM     17  C   UNL     1       3.101   3.223  17.615  0.00  0.00    +0.000 C 
BRANCH  13  18
ATOM     18  N   UNL     1       3.439   4.127  19.987  0.00  0.00    +0.000 NA
ATOM     19  C   UNL     1       2.603   4.163  21.198  0.00  0.00    +0.000 C 
ATOM     20  C   UNL     1       4.384   3.023  20.106  0.00  0.00    +0.000 C 
ENDBRANCH  13  18
ENDBRANCH   5  13
TORSDOF 3
ENDMDL
MODEL 5
REMARK VINA RESULT:      -7.1      0.862      2.111
REMARK  Name = 
REMARK  6 active torsions:
REMARK  status: ('A' for Active; 'I' for Inactive)
REMARK    1  A    between atoms: C_1  and  C_2
REMARK    2  A    between atoms: C_6  and  N_7
REMARK    3  A    between atoms: C_11  and  C_12
REMARK    4  A    between atoms: C_12  and  N_13
REMARK    5  A    between atoms: N_13  and  C_14
REMARK    6  A    between atoms: N_13  and  C_15
REMARK                            x       y       z     vdW  Elec       q    Type
REMARK                         _______ _______ _______ _____ _____    ______ ____
ROOT
ATOM      1  N   UNL     1       3.906   6.380  17.678  0.00  0.00    +0.000 N 
ATOM      2  N   UNL     1       3.753   7.729  17.680  0.00  0.00    +0.000 NA
ATOM      3  N   UNL     1       2.556   7.971  18.183  0.00  0.00    +0.000 NA
ATOM      4  N   UNL     1       1.961   6.821  18.596  0.00  0.00    +0.000 NA
ATOM      5  C   UNL     1       2.802   5.825  18.341  0.00  0.00    +0.000 A 
ENDROOT
BRANCH   1  11
ATOM      6  C   UNL     1       6.067   3.883  14.032  0.00  0.00    +0.000 C 
ATOM      7  C   UNL     1       6.185   4.555  15.369  0.00  0.00    +0.000 A 
ATOM      8  C   UNL     1       7.289   4.367  16.198  0.00  0.00    +0.000 A 
ATOM      9  C   UNL     1       7.326   4.961  17.463  0.00  0.00    +0.000 A 
ATOM     10  C   UNL     1       6.228   5.682  17.940  0.00  0.00    +0.000 A 
ATOM     11  C   UNL     1       5.084   5.806  17.142  0.00  0.00    +0.000 A 
ATOM     12  C   UNL     1       5.121   5.331  15.835  0.00  0.00    +0.000 A 
ENDBRANCH   1  11
BRANCH   5  13
ATOM     13  C   UNL     1       2.662   4.406  18.919  0.00  0.00    +0.000 C 
ATOM     14  C   UNL     1       2.413   4.484  20.462  0.00  0.00    +0.000 C 
ATOM     15  C   UNL     1       1.544   3.293  20.848  0.00  0.00    +0.000 C 
ATOM     16  C   UNL     1       0.711   2.983  19.622  0.00  0.00    +0.000 C 
ATOM     17  C   UNL     1       1.296   3.799  18.476  0.00  0.00    +0.000 C 
BRANCH  13  18
ATOM     18  N   UNL     1       3.848   3.580  18.544  0.00  0.00    +0.000 NA
ATOM     19  C   UNL     1       4.624   3.081  19.689  0.00  0.00    +0.000 C 
ATOM     20  C   UNL     1       3.634   2.479  17.611  0.00  0.00    +0.000 C 
ENDBRANCH  13  18
ENDBRANCH   5  13
TORSDOF 3
ENDMDL
MODEL 6
REMARK VINA RESULT:      -7.0      1.746      4.872
REMARK  Name = 
REMARK  6 active torsions:
REMARK  status: ('A' for Active; 'I' for Inactive)
REMARK    1  A    between atoms: C_1  and  C_2
REMARK    2  A    between atoms: C_6  and  N_7
REMARK    3  A    between atoms: C_11  and  C_12
REMARK    4  A    between atoms: C_12  and  N_13
REMARK    5  A    between atoms: N_13  and  C_14
REMARK    6  A    between atoms: N_13  and  C_15
REMARK                            x       y       z     vdW  Elec       q    Type
REMARK                         _______ _______ _______ _____ _____    ______ ____
ROOT
ATOM      1  N   UNL     1       2.684   6.611  18.421  0.00  0.00    +0.000 N 
ATOM      2  N   UNL     1       1.720   7.520  18.119  0.00  0.00    +0.000 NA
ATOM      3  N   UNL     1       2.317   8.497  17.461  0.00  0.00    +0.000 NA
ATOM      4  N   UNL     1       3.628   8.206  17.244  0.00  0.00    +0.000 NA
ATOM      5  C   UNL     1       3.866   7.017  17.784  0.00  0.00    +0.000 A 
ENDROOT
BRANCH   1  11
ATOM      6  C   UNL     1       0.591   2.164  18.596  0.00  0.00    +0.000 C 
ATOM      7  C   UNL     1       1.312   3.268  19.312  0.00  0.00    +0.000 A 
ATOM      8  C   UNL     1       1.385   3.326  20.702  0.00  0.00    +0.000 A 
ATOM      9  C   UNL     1       2.011   4.408  21.327  0.00  0.00    +0.000 A 
ATOM     10  C   UNL     1       2.498   5.478  20.571  0.00  0.00    +0.000 A 
ATOM     11  C   UNL     1       2.355   5.462  19.179  0.00  0.00    +0.000 A 
ATOM     12  C   UNL     1       1.860   4.315  18.568  0.00  0.00    +0.000 A 
ENDBRANCH   1  11
BRANCH   5  13
ATOM     13  C   UNL     1       5.125   6.177  17.507  0.00  0.00    +0.000 C 
ATOM     14  C   UNL     1       6.340   7.121  17.219  0.00  0.00    +0.000 C 
ATOM     15  C   UNL     1       7.596   6.419  17.719  0.00  0.00    +0.000 C 
ATOM     16  C   UNL     1       7.144   5.544  18.868  0.00  0.00    +0.000 C 
ATOM     17  C   UNL     1       5.620   5.534  18.838  0.00  0.00    +0.000 C 
BRANCH  13  18
ATOM     18  N   UNL     1       4.857   5.194  16.417  0.00  0.00    +0.000 NA
ATOM     19  C   UNL     1       5.574   5.471  15.162  0.00  0.00    +0.000 C 
ATOM     20  C   UNL     1       5.006   3.778  16.734  0.00  0.00    +0.000 C 
ENDBRANCH  13  18
ENDBRANCH   5  13
TORSDOF 3
ENDMDL
MODEL 7
REMARK VINA RESULT:      -6.9      2.229      5.316
REMARK  Name = 
REMARK  6 active torsions:
REMARK  status: ('A' for Active; 'I' for Inactive)
REMARK    1  A    between atoms: C_1  and  C_2
REMARK    2  A    between atoms: C_6  and  N_7
REMARK    3  A    between atoms: C_11  and  C_12
REMARK    4  A    between atoms: C_12  and  N_13
REMARK    5  A    between atoms: N_13  and  C_14
REMARK    6  A    between atoms: N_13  and  C_15
REMARK                            x       y       z     vdW  Elec       q    Type
REMARK                         _______ _______ _______ _____ _____    ______ ____
ROOT
ATOM      1  N   UNL     1       6.026   4.938  19.017  0.00  0.00    +0.000 N 
ATOM      2  N   UNL     1       6.853   5.072  20.086  0.00  0.00    +0.000 NA
ATOM      3  N   UNL     1       8.082   5.129  19.607  0.00  0.00    +0.000 NA
ATOM      4  N   UNL     1       8.073   5.129  18.247  0.00  0.00    +0.000 NA
ATOM      5  C   UNL     1       6.806   5.065  17.858  0.00  0.00    +0.000 A 
ENDROOT
BRANCH   1  11
ATOM      6  C   UNL     1       2.066   2.021  19.019  0.00  0.00    +0.000 C 
ATOM      7  C   UNL     1       2.646   3.392  19.210  0.00  0.00    +0.000 A 
ATOM      8  C   UNL     1       1.848   4.532  19.270  0.00  0.00    +0.000 A 
ATOM      9  C   UNL     1       2.437   5.795  19.383  0.00  0.00    +0.000 A 
ATOM     10  C   UNL     1       3.827   5.933  19.359  0.00  0.00    +0.000 A 
ATOM     11  C   UNL     1       4.632   4.797  19.218  0.00  0.00    +0.000 A 
ATOM     12  C   UNL     1       4.034   3.542  19.251  0.00  0.00    +0.000 A 
ENDBRANCH   1  11
BRANCH   5  13
ATOM     13  C   UNL     1       6.326   5.347  16.423  0.00  0.00    +0.000 C 
ATOM     14  C   UNL     1       7.399   4.853  15.397  0.00  0.00    +0.000 C 
ATOM     15  C   UNL     1       6.663   4.410  14.139  0.00  0.00    +0.000 C 
ATOM     16  C   UNL     1       5.304   3.937  14.608  0.00  0.00    +0.000 C 
ATOM     17  C   UNL     1       5.167   4.367  16.064  0.00  0.00    +0.000 C 
BRANCH  13  18
ATOM     18  N   UNL     1       5.972   6.790  16.275  0.00  0.00    +0.000 NA
ATOM     19  C   UNL     1       4.526   7.059  16.254  0.00  0.00    +0.000 C 
ATOM     20  C   UNL     1       6.609   7.736  17.184  0.00  0.00    +0.000 C 
ENDBRANCH  13  18
ENDBRANCH   5  13
TORSDOF 3
ENDMDL
MODEL 8
REMARK VINA RESULT:      -6.8      1.717      4.879
REMARK  Name = 
REMARK  6 active torsions:
REMARK  status: ('A' for Active; 'I' for Inactive)
REMARK    1  A    between atoms: C_1  and  C_2
REMARK    2  A    between atoms: C_6  and  N_7
REMARK    3  A    between atoms: C_11  and  C_12
REMARK    4  A    between atoms: C_12  and  N_13
REMARK    5  A    between atoms: N_13  and  C_14
REMARK    6  A    between atoms: N_13  and  C_15
REMARK                            x       y       z     vdW  Elec       q    Type
REMARK                         _______ _______ _______ _____ _____    ______ ____
ROOT
ATOM      1  N   UNL     1       2.651   6.594  18.389  0.00  0.00    +0.000 N 
ATOM      2  N   UNL     1       1.707   7.555  18.213  0.00  0.00    +0.000 NA
ATOM      3  N   UNL     1       2.270   8.509  17.495  0.00  0.00    +0.000 NA
ATOM      4  N   UNL     1       3.528   8.154  17.117  0.00  0.00    +0.000 NA
ATOM      5  C   UNL     1       3.767   6.948  17.616  0.00  0.00    +0.000 A 
ENDROOT
BRANCH   1  11
ATOM      6  C   UNL     1       0.508   2.180  18.725  0.00  0.00    +0.000 C 
ATOM      7  C   UNL     1       1.292   3.275  19.386  0.00  0.00    +0.000 A 
ATOM      8  C   UNL     1       1.460   3.337  20.768  0.00  0.00    +0.000 A 
ATOM      9  C   UNL     1       2.143   4.412  21.344  0.00  0.00    +0.000 A 
ATOM     10  C   UNL     1       2.595   5.471  20.552  0.00  0.00    +0.000 A 
ATOM     11  C   UNL     1       2.357   5.453  19.173  0.00  0.00    +0.000 A 
ATOM     12  C   UNL     1       1.805   4.311  18.602  0.00  0.00    +0.000 A 
ENDBRANCH   1  11
BRANCH   5  13
ATOM     13  C   UNL     1       4.938   6.049  17.181  0.00  0.00    +0.000 C 
ATOM     14  C   UNL     1       4.405   4.624  16.814  0.00  0.00    +0.000 C 
ATOM     15  C   UNL     1       5.306   4.064  15.721  0.00  0.00    +0.000 C 
ATOM     16  C   UNL     1       5.817   5.267  14.958  0.00  0.00    +0.000 C 
ATOM     17  C   UNL     1       5.440   6.497  15.775  0.00  0.00    +0.000 C 
BRANCH  13  18
ATOM     18  N   UNL     1       5.997   6.041  18.234  0.00  0.00    +0.000 NA
ATOM     19  C   UNL     1       6.019   4.824  19.061  0.00  0.00    +0.000 C 
ATOM     20  C   UNL     1       7.361   6.347  17.819  0.00  0.00    +0.000 C 
ENDBRANCH  13  18
ENDBRANCH   5  13
TORSDOF 3
ENDMDL
MODEL 9
REMARK VINA RESULT:      -6.7      2.225      3.671
REMARK  Name = 
REMARK  6 active torsions:
REMARK  status: ('A' for Active; 'I' for Inactive)
REMARK    1  A    between atoms: C_1  and  C_2
REMARK    2  A    between atoms: C_6  and  N_7
REMARK    3  A    between atoms: C_11  and  C_12
REMARK    4  A    between atoms: C_12  and  N_13
REMARK    5  A    between atoms: N_13  and  C_14
REMARK    6  A    between atoms: N_13  and  C_15
REMARK                            x       y       z     vdW  Elec       q    Type
REMARK                         _______ _______ _______ _____ _____    ______ ____
ROOT
ATOM      1  N   UNL     1       6.889   4.743  17.534  0.00  0.00    +0.000 N 
ATOM      2  N   UNL     1       8.115   4.663  18.113  0.00  0.00    +0.000 NA
ATOM      3  N   UNL     1       7.965   5.052  19.366  0.00  0.00    +0.000 NA
ATOM      4  N   UNL     1       6.656   5.293  19.646  0.00  0.00    +0.000 NA
ATOM      5  C   UNL     1       5.963   5.057  18.540  0.00  0.00    +0.000 A 
ENDROOT
BRANCH   1  11
ATOM      6  C   UNL     1       8.122   5.691  12.868  0.00  0.00    +0.000 C 
ATOM      7  C   UNL     1       7.305   4.888  13.838  0.00  0.00    +0.000 A 
ATOM      8  C   UNL     1       6.228   4.105  13.430  0.00  0.00    +0.000 A 
ATOM      9  C   UNL     1       5.456   3.426  14.377  0.00  0.00    +0.000 A 
ATOM     10  C   UNL     1       5.707   3.586  15.742  0.00  0.00    +0.000 A 
ATOM     11  C   UNL     1       6.738   4.436  16.160  0.00  0.00    +0.000 A 
ATOM     12  C   UNL     1       7.583   4.988  15.203  0.00  0.00    +0.000 A 
ENDBRANCH   1  11
BRANCH   5  13
ATOM     13  C   UNL     1       4.432   4.911  18.492  0.00  0.00    +0.000 C 
ATOM     14  C   UNL     1       3.800   5.525  19.785  0.00  0.00    +0.000 C 
ATOM     15  C   UNL     1       2.430   6.077  19.410  0.00  0.00    +0.000 C 
ATOM     16  C   UNL     1       2.537   6.475  17.953  0.00  0.00    +0.000 C 
ATOM     17  C   UNL     1       3.850   5.899  17.436  0.00  0.00    +0.000 C 
BRANCH  13  18
ATOM     18  N   UNL     1       4.060   3.483  18.262  0.00  0.00    +0.000 NA
ATOM     19  C   UNL     1       4.086   2.649  19.474  0.00  0.00    +0.000 C 
ATOM     20  C   UNL     1       2.820   3.218  17.541  0.00  0.00    +0.000 C 
ENDBRANCH  13  18
ENDBRANCH   5  13
TORSDOF 3
ENDMDL
