MODEL 1
REMARK VINA RESULT:      -7.8      0.000      0.000
REMARK  Name = 
REMARK  6 active torsions:
REMARK  status: ('A' for Active; 'I' for Inactive)
REMARK    1  A    between atoms: C_1  and  C_2
REMARK    2  A    between atoms: C_2  and  C_3
REMARK    3  A    between atoms: C_2  and  C_4
REMARK    4  A    between atoms: C_4  and  C_5
REMARK    5  A    between atoms: N_7  and  C_8
REMARK    6  A    between atoms: C_8  and  C_9
REMARK                            x       y       z     vdW  Elec       q    Type
REMARK                         _______ _______ _______ _____ _____    ______ ____
ROOT
ATOM      1  C   UNL     1       5.704   5.052  16.549  0.00  0.00    +0.000 A 
ATOM      2  C   UNL     1       5.497   6.424  16.632  0.00  0.00    +0.000 A 
ATOM      3  C   UNL     1       4.361   6.873  17.282  0.00  0.00    +0.000 A 
ATOM      4  N   UNL     1       3.435   6.058  17.838  0.00  0.00    +0.000 NA
ATOM      5  C   UNL     1       3.626   4.723  17.773  0.00  0.00    +0.000 A 
ATOM      6  N   UNL     1       2.709   3.876  18.348  0.00  0.00    +0.000 N 
ATOM      7  C   UNL     1       1.459   4.363  18.904  0.00  0.00    +0.000 C 
ATOM      8  C   UNL     1       0.967   3.123  19.646  0.00  0.00    +0.000 C 
ATOM      9  C   UNL     1       1.356   1.975  18.721  0.00  0.00    +0.000 C 
ATOM     10  C   UNL     1       2.584   2.478  17.963  0.00  0.00    +0.000 C 
ATOM     11  C   UNL     1       4.771   4.213  17.159  0.00  0.00    +0.000 A 
ENDROOT
BRANCH   1  12
ATOM     12  C   UNL     1       6.879   4.464  15.822  0.00  0.00    +0.000 C 
BRANCH  12  15
ATOM     13  C   UNL     1       7.183   4.645  13.409  0.00  0.00    +0.000 C 
ATOM     14  O   UNL     1       8.052   5.500  13.534  0.00  0.00    +0.000 OA
ATOM     15  N   UNL     1       6.550   4.055  14.481  0.00  0.00    +0.000 N 
ATOM     16  H   UNL     1       5.880   3.312  14.337  0.00  0.00    +0.000 HD
BRANCH  13  17
ATOM     17  C   UNL     1       6.732   4.156  12.049  0.00  0.00    +0.000 C 
BRANCH  17  19
ATOM     18  C   UNL     1       4.390   3.324  11.542  0.00  0.00    +0.000 C 
ATOM     19  C   UNL     1       5.760   2.969  12.124  0.00  0.00    +0.000 C 
ATOM     20  C   UNL     1       6.337   1.762  11.380  0.00  0.00    +0.000 C 
ENDBRANCH  17  19
ENDBRANCH  13  17
ENDBRANCH  12  15
ENDBRANCH   1  12
TORSDOF 4
ENDMDL
MODEL 2
REMARK VINA RESULT:      -7.1      1.122      1.153
REMARK  Name = 
REMARK  6 active torsions:
REMARK  status: ('A' for Active; 'I' for Inactive)
REMARK    1  A    between atoms: C_1  and  C_2
REMARK    2  A    between atoms: C_2  and  C_3
REMARK    3  A    between atoms: C_2  and  C_4
REMARK    4  A    between atoms: C_4  and  C_5
REMARK    5  A    between atoms: N_7  and  C_8
REMARK    6  A    between atoms: C_8  and  C_9
REMARK                            x       y       z     vdW  Elec       q    Type
REMARK                         _______ _______ _______ _____ _____    ______ ____
ROOT
ATOM      1  C   UNL     1       5.434   5.829  17.119  0.00  0.00    +0.000 A 
ATOM      2  C   UNL     1       4.874   7.099  17.045  0.00  0.00    +0.000 A 
ATOM      3  C   UNL     1       3.613   7.287  17.584  0.00  0.00    +0.000 A 
ATOM      4  N   UNL     1       2.888   6.309  18.174  0.00  0.00    +0.000 NA
ATOM      5  C   UNL     1       3.422   5.071  18.261  0.00  0.00    +0.000 A 
ATOM      6  N   UNL     1       2.713   4.067  18.874  0.00  0.00    +0.000 N 
ATOM      7  C   UNL     1       1.339   4.253  19.309  0.00  0.00    +0.000 C 
ATOM      8  C   UNL     1       1.128   2.997  20.152  0.00  0.00    +0.000 C 
ATOM      9  C   UNL     1       1.871   1.916  19.375  0.00  0.00    +0.000 C 
ATOM     10  C   UNL     1       2.984   2.657  18.634  0.00  0.00    +0.000 C 
ATOM     11  C   UNL     1       4.704   4.831  17.766  0.00  0.00    +0.000 A 
ENDROOT
BRANCH   1  12
ATOM     12  C   UNL     1       6.774   5.511  16.521  0.00  0.00    +0.000 C 
BRANCH  12  15
ATOM     13  C   UNL     1       6.425   4.229  14.477  0.00  0.00    +0.000 C 
ATOM     14  O   UNL     1       6.153   3.212  15.103  0.00  0.00    +0.000 OA
ATOM     15  N   UNL     1       6.731   5.427  15.085  0.00  0.00    +0.000 N 
ATOM     16  H   UNL     1       6.892   6.258  14.532  0.00  0.00    +0.000 HD
BRANCH  13  17
ATOM     17  C   UNL     1       6.442   4.256  12.962  0.00  0.00    +0.000 C 
BRANCH  17  19
ATOM     18  C   UNL     1       4.548   3.327  11.553  0.00  0.00    +0.000 C 
ATOM     19  C   UNL     1       5.827   3.000  12.327  0.00  0.00    +0.000 C 
ATOM     20  C   UNL     1       6.837   2.330  11.391  0.00  0.00    +0.000 C 
ENDBRANCH  17  19
ENDBRANCH  13  17
ENDBRANCH  12  15
ENDBRANCH   1  12
TORSDOF 4
ENDMDL
MODEL 3
REMARK VINA RESULT:      -7.0      1.375      1.965
REMARK  Name = 
REMARK  6 active torsions:
REMARK  status: ('A' for Active; 'I' for Inactive)
REMARK    1  A    between atoms: C_1  and  C_2
REMARK    2  A    between atoms: C_2  and  C_3
REMARK    3  A    between atoms: C_2  and  C_4
REMARK    4  A    between atoms: C_4  and  C_5
REMARK    5  A    between atoms: N_7  and  C_8
REMARK    6  A    between atoms: C_8  and  C_9
REMARK                            x       y       z     vdW  Elec       q    Type
REMARK                         _______ _______ _______ _____ _____    ______ ____
ROOT
ATOM      1  C   UNL     1       4.212   6.659  17.282  0.00  0.00    +0.000 A 
ATOM      2  C   UNL     1       3.558   7.842  17.609  0.00  0.00    +0.000 A 
ATOM      3  C   UNL     1       2.516   7.779  18.518  0.00  0.00    +0.000 A 
ATOM      4  N   UNL     1       2.091   6.638  19.106  0.00  0.00    +0.000 NA
ATOM      5  C   UNL     1       2.722   5.482  18.805  0.00  0.00    +0.000 A 
ATOM      6  N   UNL     1       2.321   4.312  19.405  0.00  0.00    +0.000 N 
ATOM      7  C   UNL     1       1.141   4.249  20.249  0.00  0.00    +0.000 C 
ATOM      8  C   UNL     1       1.304   2.865  20.873  0.00  0.00    +0.000 C 
ATOM      9  C   UNL     1       1.852   2.019  19.729  0.00  0.00    +0.000 C 
ATOM     10  C   UNL     1       2.615   3.003  18.843  0.00  0.00    +0.000 C 
ATOM     11  C   UNL     1       3.802   5.489  17.921  0.00  0.00    +0.000 A 
ENDROOT
BRANCH   1  12
ATOM     12  C   UNL     1       5.320   6.614  16.271  0.00  0.00    +0.000 C 
BRANCH  12  15
ATOM     13  C   UNL     1       6.400   4.754  15.120  0.00  0.00    +0.000 C 
ATOM     14  O   UNL     1       7.503   5.062  15.555  0.00  0.00    +0.000 OA
ATOM     15  N   UNL     1       5.250   5.448  15.428  0.00  0.00    +0.000 N 
ATOM     16  H   UNL     1       4.351   5.127  15.096  0.00  0.00    +0.000 HD
BRANCH  13  17
ATOM     17  C   UNL     1       6.205   3.566  14.200  0.00  0.00    +0.000 C 
BRANCH  17  19
ATOM     18  C   UNL     1       7.316   4.500  12.121  0.00  0.00    +0.000 C 
ATOM     19  C   UNL     1       6.018   3.964  12.728  0.00  0.00    +0.000 C 
ATOM     20  C   UNL     1       5.526   2.766  11.913  0.00  0.00    +0.000 C 
ENDBRANCH  17  19
ENDBRANCH  13  17
ENDBRANCH  12  15
ENDBRANCH   1  12
TORSDOF 4
ENDMDL
MODEL 4
REMARK VINA RESULT:      -6.9      2.138      6.727
REMARK  Name = 
REMARK  6 active torsions:
REMARK  status: ('A' for Active; 'I' for Inactive)
REMARK    1  A    between atoms: C_1  and  C_2
REMARK    2  A    between atoms: C_2  and  C_3
REMARK    3  A    between atoms: C_2  and  C_4
REMARK    4  A    between atoms: C_4  and  C_5
REMARK    5  A    between atoms: N_7  and  C_8
REMARK    6  A    between atoms: C_8  and  C_9
REMARK                            x       y       z     vdW  Elec       q    Type
REMARK                         _______ _______ _______ _____ _____    ______ ____
ROOT
ATOM      1  C   UNL     1       4.866   5.889  17.312  0.00  0.00    +0.000 A 
ATOM      2  C   UNL     1       5.965   6.517  17.885  0.00  0.00    +0.000 A 
ATOM      3  C   UNL     1       7.148   6.544  17.166  0.00  0.00    +0.000 A 
ATOM      4  N   UNL     1       7.301   5.994  15.940  0.00  0.00    +0.000 NA
ATOM      5  C   UNL     1       6.240   5.387  15.366  0.00  0.00    +0.000 A 
ATOM      6  N   UNL     1       6.368   4.838  14.113  0.00  0.00    +0.000 N 
ATOM      7  C   UNL     1       7.651   4.760  13.437  0.00  0.00    +0.000 C 
ATOM      8  C   UNL     1       7.214   4.360  12.029  0.00  0.00    +0.000 C 
ATOM      9  C   UNL     1       6.067   3.384  12.274  0.00  0.00    +0.000 C 
ATOM     10  C   UNL     1       5.464   3.813  13.612  0.00  0.00    +0.000 C 
ATOM     11  C   UNL     1       5.013   5.358  16.030  0.00  0.00    +0.000 A 
ENDROOT
BRANCH   1  12
ATOM     12  C   UNL     1       3.554   5.762  18.030  0.00  0.00    +0.000 C 
BRANCH  12  15
ATOM     13  C   UNL     1       2.599   3.530  18.260  0.00  0.00    +0.000 C 
ATOM     14  O   UNL     1       1.959   3.644  17.222  0.00  0.00    +0.000 OA
ATOM     15  N   UNL     1       3.433   4.515  18.741  0.00  0.00    +0.000 N 
ATOM     16  H   UNL     1       3.989   4.359  19.570  0.00  0.00    +0.000 HD
BRANCH  13  17
ATOM     17  C   UNL     1       2.530   2.278  19.109  0.00  0.00    +0.000 C 
BRANCH  17  19
ATOM     18  C   UNL     1       2.527   2.702  21.610  0.00  0.00    +0.000 C 
ATOM     19  C   UNL     1       1.668   2.447  20.370  0.00  0.00    +0.000 C 
ATOM     20  C   UNL     1       0.677   3.598  20.185  0.00  0.00    +0.000 C 
ENDBRANCH  17  19
ENDBRANCH  13  17
ENDBRANCH  12  15
ENDBRANCH   1  12
TORSDOF 4
ENDMDL
MODEL 5
REMARK VINA RESULT:      -6.9      1.364      1.635
REMARK  Name = 
REMARK  6 active torsions:
REMARK  status: ('A' for Active; 'I' for Inactive)
REMARK    1  A    between atoms: C_1  and  C_2
REMARK    2  A    between atoms: C_2  and  C_3
REMARK    3  A    between atoms: C_2  and  C_4
REMARK    4  A    between atoms: C_4  and  C_5
REMARK    5  A    between atoms: N_7  and  C_8
REMARK    6  A    between atoms: C_8  and  C_9
REMARK                            x       y       z     vdW  Elec       q    Type
REMARK                         _______ _______ _______ _____ _____    ______ ____
ROOT
ATOM      1  C   UNL     1       6.143   4.818  16.088  0.00  0.00    +0.000 A 
ATOM      2  C   UNL     1       7.172   4.993  17.007  0.00  0.00    +0.000 A 
ATOM      3  C   UNL     1       6.940   4.627  18.321  0.00  0.00    +0.000 A 
ATOM      4  N   UNL     1       5.772   4.112  18.769  0.00  0.00    +0.000 NA
ATOM      5  C   UNL     1       4.766   3.928  17.888  0.00  0.00    +0.000 A 
ATOM      6  N   UNL     1       3.577   3.388  18.316  0.00  0.00    +0.000 N 
ATOM      7  C   UNL     1       3.311   3.139  19.722  0.00  0.00    +0.000 C 
ATOM      8  C   UNL     1       2.037   2.301  19.632  0.00  0.00    +0.000 C 
ATOM      9  C   UNL     1       1.261   2.950  18.491  0.00  0.00    +0.000 C 
ATOM     10  C   UNL     1       2.331   3.559  17.584  0.00  0.00    +0.000 C 
ATOM     11  C   UNL     1       4.953   4.248  16.542  0.00  0.00    +0.000 A 
ENDROOT
BRANCH   1  12
ATOM     12  C   UNL     1       6.277   5.230  14.651  0.00  0.00    +0.000 C 
BRANCH  12  15
ATOM     13  C   UNL     1       7.089   4.210  12.591  0.00  0.00    +0.000 C 
ATOM     14  O   UNL     1       7.695   5.225  12.270  0.00  0.00    +0.000 OA
ATOM     15  N   UNL     1       6.368   4.103  13.760  0.00  0.00    +0.000 N 
ATOM     16  H   UNL     1       5.931   3.229  14.017  0.00  0.00    +0.000 HD
BRANCH  13  17
ATOM     17  C   UNL     1       7.086   2.970  11.721  0.00  0.00    +0.000 C 
BRANCH  17  19
ATOM     18  C   UNL     1       4.596   2.987  11.238  0.00  0.00    +0.000 C 
ATOM     19  C   UNL     1       5.771   2.180  11.795  0.00  0.00    +0.000 C 
ATOM     20  C   UNL     1       5.898   0.862  11.028  0.00  0.00    +0.000 C 
ENDBRANCH  17  19
ENDBRANCH  13  17
ENDBRANCH  12  15
ENDBRANCH   1  12
TORSDOF 4
ENDMDL
MODEL 6
REMARK VINA RESULT:      -6.9      1.566      1.962
REMARK  Name = 
REMARK  6 active torsions:
REMARK  status: ('A' for Active; 'I' for Inactive)
REMARK    1  A    between atoms: C_1  and  C_2
REMARK    2  A    between atoms: C_2  and  C_3
REMARK    3  A    between atoms: C_2  and  C_4
REMARK    4  A    between atoms: C_4  and  C_5
REMARK    5  A    between atoms: N_7  and  C_8
REMARK    6  A    between atoms: C_8  and  C_9
REMARK                            x       y       z     vdW  Elec       q    Type
REMARK                         _______ _______ _______ _____ _____    ______ ____
ROOT
ATOM      1  C   UNL     1       4.587   6.385  17.363  0.00  0.00    +0.000 A 
ATOM      2  C   UNL     1       3.899   7.592  17.419  0.00  0.00    +0.000 A 
ATOM      3  C   UNL     1       2.764   7.657  18.209  0.00  0.00    +0.000 A 
ATOM      4  N   UNL     1       2.281   6.618  18.928  0.00  0.00    +0.000 NA
ATOM      5  C   UNL     1       2.943   5.442  18.891  0.00  0.00    +0.000 A 
ATOM      6  N   UNL     1       2.482   4.379  19.629  0.00  0.00    +0.000 N 
ATOM      7  C   UNL     1       1.217   4.430  20.341  0.00  0.00    +0.000 C 
ATOM      8  C   UNL     1       1.314   3.170  21.197  0.00  0.00    +0.000 C 
ATOM      9  C   UNL     1       1.985   2.160  20.274  0.00  0.00    +0.000 C 
ATOM     10  C   UNL     1       2.838   3.001  19.324  0.00  0.00    +0.000 C 
ATOM     11  C   UNL     1       4.112   5.327  18.138  0.00  0.00    +0.000 A 
ENDROOT
BRANCH   1  12
ATOM     12  C   UNL     1       5.799   6.197  16.498  0.00  0.00    +0.000 C 
BRANCH  12  15
ATOM     13  C   UNL     1       5.601   4.450  14.808  0.00  0.00    +0.000 C 
ATOM     14  O   UNL     1       5.976   3.585  15.590  0.00  0.00    +0.000 OA
ATOM     15  N   UNL     1       5.463   5.774  15.163  0.00  0.00    +0.000 N 
ATOM     16  H   UNL     1       5.095   6.447  14.505  0.00  0.00    +0.000 HD
BRANCH  13  17
ATOM     17  C   UNL     1       5.248   4.132  13.370  0.00  0.00    +0.000 C 
BRANCH  17  19
ATOM     18  C   UNL     1       5.797   2.375  11.625  0.00  0.00    +0.000 C 
ATOM     19  C   UNL     1       6.364   3.387  12.622  0.00  0.00    +0.000 C 
ATOM     20  C   UNL     1       7.267   4.381  11.888  0.00  0.00    +0.000 C 
ENDBRANCH  17  19
ENDBRANCH  13  17
ENDBRANCH  12  15
ENDBRANCH   1  12
TORSDOF 4
ENDMDL
MODEL 7
REMARK VINA RESULT:      -6.7      0.655      1.011
REMARK  Name = 
REMARK  6 active torsions:
REMARK  status: ('A' for Active; 'I' for Inactive)
REMARK    1  A    between atoms: C_1  and  C_2
REMARK    2  A    between atoms: C_2  and  C_3
REMARK    3  A    between atoms: C_2  and  C_4
REMARK    4  A    between atoms: C_4  and  C_5
REMARK    5  A    between atoms: N_7  and  C_8
REMARK    6  A    between atoms: C_8  and  C_9
REMARK                            x       y       z     vdW  Elec       q    Type
REMARK                         _______ _______ _______ _____ _____    ______ ____
ROOT
ATOM      1  C   UNL     1       5.621   4.842  16.385  0.00  0.00    +0.000 A 
ATOM      2  C   UNL     1       5.532   6.225  16.497  0.00  0.00    +0.000 A 
ATOM      3  C   UNL     1       4.484   6.752  17.230  0.00  0.00    +0.000 A 
ATOM      4  N   UNL     1       3.537   6.005  17.843  0.00  0.00    +0.000 NA
ATOM      5  C   UNL     1       3.614   4.660  17.751  0.00  0.00    +0.000 A 
ATOM      6  N   UNL     1       2.675   3.880  18.381  0.00  0.00    +0.000 N 
ATOM      7  C   UNL     1       1.510   4.456  19.029  0.00  0.00    +0.000 C 
ATOM      8  C   UNL     1       0.973   3.247  19.792  0.00  0.00    +0.000 C 
ATOM      9  C   UNL     1       1.202   2.086  18.830  0.00  0.00    +0.000 C 
ATOM     10  C   UNL     1       2.412   2.503  17.992  0.00  0.00    +0.000 C 
ATOM     11  C   UNL     1       4.669   4.071  17.052  0.00  0.00    +0.000 A 
ENDROOT
BRANCH   1  12
ATOM     12  C   UNL     1       6.691   4.174  15.571  0.00  0.00    +0.000 C 
BRANCH  12  15
ATOM     13  C   UNL     1       6.466   3.875  13.162  0.00  0.00    +0.000 C 
ATOM     14  O   UNL     1       7.206   4.822  12.926  0.00  0.00    +0.000 OA
ATOM     15  N   UNL     1       6.159   3.460  14.439  0.00  0.00    +0.000 N 
ATOM     16  H   UNL     1       5.592   2.638  14.591  0.00  0.00    +0.000 HD
BRANCH  13  17
ATOM     17  C   UNL     1       5.823   3.066  12.054  0.00  0.00    +0.000 C 
BRANCH  17  19
ATOM     18  C   UNL     1       5.741   0.764  10.992  0.00  0.00    +0.000 C 
ATOM     19  C   UNL     1       6.623   1.811  11.676  0.00  0.00    +0.000 C 
ATOM     20  C   UNL     1       7.788   2.182  10.755  0.00  0.00    +0.000 C 
ENDBRANCH  17  19
ENDBRANCH  13  17
ENDBRANCH  12  15
ENDBRANCH   1  12
TORSDOF 4
ENDMDL
MODEL 8
REMARK VINA RESULT:      -6.7      1.664      2.030
REMARK  Name = 
REMARK  6 active torsions:
REMARK  status: ('A' for Active; 'I' for Inactive)
REMARK    1  A    between atoms: C_1  and  C_2
REMARK    2  A    between atoms: C_2  and  C_3
REMARK    3  A    between atoms: C_2  and  C_4
REMARK    4  A    between atoms: C_4  and  C_5
REMARK    5  A    between atoms: N_7  and  C_8
REMARK    6  A    between atoms: C_8  and  C_9
REMARK                            x       y       z     vdW  Elec       q    Type
REMARK                         _______ _______ _______ _____ _____    ______ ____
ROOT
ATOM      1  C   UNL     1       6.602   4.666  17.178  0.00  0.00    +0.000 A 
ATOM      2  C   UNL     1       7.478   5.228  18.101  0.00  0.00    +0.000 A 
ATOM      3  C   UNL     1       7.022   5.429  19.392  0.00  0.00    +0.000 A 
ATOM      4  N   UNL     1       5.774   5.116  19.812  0.00  0.00    +0.000 NA
ATOM      5  C   UNL     1       4.914   4.562  18.930  0.00  0.00    +0.000 A 
ATOM      6  N   UNL     1       3.649   4.218  19.339  0.00  0.00    +0.000 N 
ATOM      7  C   UNL     1       3.149   4.562  20.659  0.00  0.00    +0.000 C 
ATOM      8  C   UNL     1       1.869   3.732  20.711  0.00  0.00    +0.000 C 
ATOM      9  C   UNL     1       1.317   3.835  19.294  0.00  0.00    +0.000 C 
ATOM     10  C   UNL     1       2.545   4.043  18.407  0.00  0.00    +0.000 C 
ATOM     11  C   UNL     1       5.330   4.305  17.623  0.00  0.00    +0.000 A 
ENDROOT
BRANCH   1  12
ATOM     12  C   UNL     1       6.984   4.454  15.742  0.00  0.00    +0.000 C 
BRANCH  12  15
ATOM     13  C   UNL     1       5.998   3.943  13.571  0.00  0.00    +0.000 C 
ATOM     14  O   UNL     1       7.015   4.277  12.976  0.00  0.00    +0.000 OA
ATOM     15  N   UNL     1       5.884   3.977  14.944  0.00  0.00    +0.000 N 
ATOM     16  H   UNL     1       5.049   3.637  15.399  0.00  0.00    +0.000 HD
BRANCH  13  17
ATOM     17  C   UNL     1       4.766   3.453  12.838  0.00  0.00    +0.000 C 
BRANCH  17  19
ATOM     18  C   UNL     1       5.656   1.700  11.235  0.00  0.00    +0.000 C 
ATOM     19  C   UNL     1       5.037   3.093  11.370  0.00  0.00    +0.000 C 
ATOM     20  C   UNL     1       3.742   3.161  10.558  0.00  0.00    +0.000 C 
ENDBRANCH  17  19
ENDBRANCH  13  17
ENDBRANCH  12  15
ENDBRANCH   1  12
TORSDOF 4
ENDMDL
MODEL 9
REMARK VINA RESULT:      -6.7      4.438      6.018
REMARK  Name = 
REMARK  6 active torsions:
REMARK  status: ('A' for Active; 'I' for Inactive)
REMARK    1  A    between atoms: C_1  and  C_2
REMARK    2  A    between atoms: C_2  and  C_3
REMARK    3  A    between atoms: C_2  and  C_4
REMARK    4  A    between atoms: C_4  and  C_5
REMARK    5  A    between atoms: N_7  and  C_8
REMARK    6  A    between atoms: C_8  and  C_9
REMARK                            x       y       z     vdW  Elec       q    Type
REMARK                         _______ _______ _______ _____ _____    ______ ____
ROOT
ATOM      1  C   UNL     1       2.412   7.081  19.370  0.00  0.00    +0.000 A 
ATOM      2  C   UNL     1       2.473   7.648  18.103  0.00  0.00    +0.000 A 
ATOM      3  C   UNL     1       1.854   8.871  17.907  0.00  0.00    +0.000 A 
ATOM      4  N   UNL     1       1.191   9.547  18.873  0.00  0.00    +0.000 NA
ATOM      5  C   UNL     1       1.130   9.013  20.112  0.00  0.00    +0.000 A 
ATOM      6  N   UNL     1       0.479   9.691  21.114  0.00  0.00    +0.000 N 
ATOM      7  C   UNL     1      -0.277  10.904  20.853  0.00  0.00    +0.000 C 
ATOM      8  C   UNL     1      -0.538  11.395  22.274  0.00  0.00    +0.000 C 
ATOM      9  C   UNL     1      -0.802  10.112  23.054  0.00  0.00    +0.000 C 
ATOM     10  C   UNL     1      -0.015   9.031  22.313  0.00  0.00    +0.000 C 
ATOM     11  C   UNL     1       1.764   7.798  20.376  0.00  0.00    +0.000 A 
ENDROOT
BRANCH   1  12
ATOM     12  C   UNL     1       3.007   5.736  19.672  0.00  0.00    +0.000 C 
BRANCH  12  15
ATOM     13  C   UNL     1       5.132   5.096  18.660  0.00  0.00    +0.000 C 
ATOM     14  O   UNL     1       5.759   5.406  19.666  0.00  0.00    +0.000 OA
ATOM     15  N   UNL     1       3.762   5.206  18.566  0.00  0.00    +0.000 N 
ATOM     16  H   UNL     1       3.275   4.884  17.740  0.00  0.00    +0.000 HD
BRANCH  13  17
ATOM     17  C   UNL     1       5.818   4.555  17.423  0.00  0.00    +0.000 C 
BRANCH  17  19
ATOM     18  C   UNL     1       5.240   6.410  15.791  0.00  0.00    +0.000 C 
ATOM     19  C   UNL     1       5.094   4.922  16.119  0.00  0.00    +0.000 C 
ATOM     20  C   UNL     1       5.634   4.085  14.957  0.00  0.00    +0.000 C 
ENDBRANCH  17  19
ENDBRANCH  13  17
ENDBRANCH  12  15
ENDBRANCH   1  12
TORSDOF 4
ENDMDL
