MODEL 1
REMARK VINA RESULT:      -6.2      0.000      0.000
REMARK  Name = 
REMARK  15 active torsions:
REMARK  status: ('A' for Active; 'I' for Inactive)
REMARK    1  A    between atoms: C_1  and  C_2
REMARK    2  A    between atoms: C_2  and  C_3
REMARK    3  A    between atoms: C_3  and  C_4
REMARK    4  A    between atoms: C_4  and  C_5
REMARK    5  A    between atoms: C_5  and  C_6
REMARK    6  A    between atoms: C_6  and  C_7
REMARK    7  A    between atoms: C_7  and  C_8
REMARK    8  A    between atoms: C_8  and  C_9
REMARK    9  A    between atoms: C_9  and  C_10
REMARK   10  A    between atoms: C_10  and  C_12
REMARK   11  A    between atoms: C_12  and  C_13
REMARK   12  A    between atoms: C_13  and  C_14
REMARK   13  A    between atoms: C_17  and  O_18
REMARK   14  A    between atoms: C_19  and  O_20
REMARK   15  A    between atoms: O_20  and  C_21
REMARK                            x       y       z     vdW  Elec       q    Type
REMARK                         _______ _______ _______ _____ _____    ______ ____
ROOT
ATOM      1  C   UNL     1       2.500   6.364  18.255  0.00  0.00    +0.000 C 
ENDROOT
BRANCH   1   2
ATOM      2  C   UNL     1       2.043   7.148  19.464  0.00  0.00    +0.000 C 
ATOM      3  O   UNL     1       2.049   8.380  19.470  0.00  0.00    +0.000 OA
BRANCH   2   4
ATOM      4  C   UNL     1       1.487   6.354  20.627  0.00  0.00    +0.000 C 
BRANCH   4   5
ATOM      5  C   UNL     1       2.306   5.086  20.835  0.00  0.00    +0.000 C 
BRANCH   5   6
ATOM      6  C   UNL     1       1.419   3.850  20.910  0.00  0.00    +0.000 C 
BRANCH   6   7
ATOM      7  C   UNL     1       0.760   3.595  19.558  0.00  0.00    +0.000 C 
BRANCH   7   8
ATOM      8  C   UNL     1       1.095   2.201  19.044  0.00  0.00    +0.000 C 
BRANCH   8   9
ATOM      9  C   UNL     1       1.994   2.280  17.814  0.00  0.00    +0.000 C 
BRANCH   9  10
ATOM     10  C   UNL     1       3.375   2.808  18.189  0.00  0.00    +0.000 C 
BRANCH  10  12
ATOM     11  C   UNL     1       4.546   2.033  20.268  0.00  0.00    +0.000 C 
ATOM     12  C   UNL     1       4.232   1.714  18.816  0.00  0.00    +0.000 C 
ENDBRANCH  10  12
ENDBRANCH   9  10
ENDBRANCH   8   9
ENDBRANCH   7   8
ENDBRANCH   6   7
ENDBRANCH   5   6
ENDBRANCH   4   5
ENDBRANCH   2   4
ENDBRANCH   1   2
BRANCH   1  13
ATOM     13  C   UNL     1       3.646   7.096  17.564  0.00  0.00    +0.000 C 
BRANCH  13  14
ATOM     14  C   UNL     1       4.914   6.287  17.570  0.00  0.00    +0.000 A 
ATOM     15  C   UNL     1       5.327   5.648  18.743  0.00  0.00    +0.000 A 
ATOM     16  C   UNL     1       6.494   4.886  18.752  0.00  0.00    +0.000 A 
ATOM     17  C   UNL     1       7.264   4.761  17.592  0.00  0.00    +0.000 A 
ATOM     18  C   UNL     1       6.878   5.405  16.411  0.00  0.00    +0.000 A 
ATOM     19  C   UNL     1       5.700   6.170  16.416  0.00  0.00    +0.000 A 
BRANCH  17  20
ATOM     20  O   UNL     1       8.397   3.997  17.654  0.00  0.00    +0.000 OA
ATOM     21  H   UNL     1       9.151   4.523  17.339  0.00  0.00    +0.000 HD
ENDBRANCH  17  20
BRANCH  18  22
ATOM     22  O   UNL     1       7.507   5.400  15.194  0.00  0.00    +0.000 OA
ATOM     23  C   UNL     1       6.884   4.700  14.127  0.00  0.00    +0.000 C 
ENDBRANCH  18  22
ENDBRANCH  13  14
ENDBRANCH   1  13
TORSDOF 13
ENDMDL
MODEL 2
REMARK VINA RESULT:      -6.0      2.828      6.664
REMARK  Name = 
REMARK  15 active torsions:
REMARK  status: ('A' for Active; 'I' for Inactive)
REMARK    1  A    between atoms: C_1  and  C_2
REMARK    2  A    between atoms: C_2  and  C_3
REMARK    3  A    between atoms: C_3  and  C_4
REMARK    4  A    between atoms: C_4  and  C_5
REMARK    5  A    between atoms: C_5  and  C_6
REMARK    6  A    between atoms: C_6  and  C_7
REMARK    7  A    between atoms: C_7  and  C_8
REMARK    8  A    between atoms: C_8  and  C_9
REMARK    9  A    between atoms: C_9  and  C_10
REMARK   10  A    between atoms: C_10  and  C_12
REMARK   11  A    between atoms: C_12  and  C_13
REMARK   12  A    between atoms: C_13  and  C_14
REMARK   13  A    between atoms: C_17  and  O_18
REMARK   14  A    between atoms: C_19  and  O_20
REMARK   15  A    between atoms: O_20  and  C_21
REMARK                            x       y       z     vdW  Elec       q    Type
REMARK                         _______ _______ _______ _____ _____    ______ ____
ROOT
ATOM      1  C   UNL     1       4.854   6.474  17.219  0.00  0.00    +0.000 C 
ENDROOT
BRANCH   1   2
ATOM      2  C   UNL     1       6.351   6.593  17.046  0.00  0.00    +0.000 C 
ATOM      3  O   UNL     1       6.898   7.689  16.912  0.00  0.00    +0.000 OA
BRANCH   2   4
ATOM      4  C   UNL     1       7.157   5.314  17.141  0.00  0.00    +0.000 C 
BRANCH   4   5
ATOM      5  C   UNL     1       7.202   4.621  15.785  0.00  0.00    +0.000 C 
BRANCH   5   6
ATOM      6  C   UNL     1       6.018   3.682  15.595  0.00  0.00    +0.000 C 
BRANCH   6   7
ATOM      7  C   UNL     1       5.406   3.882  14.212  0.00  0.00    +0.000 C 
BRANCH   7   8
ATOM      8  C   UNL     1       6.492   4.073  13.160  0.00  0.00    +0.000 C 
BRANCH   8   9
ATOM      9  C   UNL     1       6.295   3.104  11.997  0.00  0.00    +0.000 C 
BRANCH   9  10
ATOM     10  C   UNL     1       4.810   2.878  11.731  0.00  0.00    +0.000 C 
BRANCH  10  12
ATOM     11  C   UNL     1       3.040   3.513  10.070  0.00  0.00    +0.000 C 
ATOM     12  C   UNL     1       4.223   4.004  10.886  0.00  0.00    +0.000 C 
ENDBRANCH  10  12
ENDBRANCH   9  10
ENDBRANCH   8   9
ENDBRANCH   7   8
ENDBRANCH   6   7
ENDBRANCH   5   6
ENDBRANCH   4   5
ENDBRANCH   2   4
ENDBRANCH   1   2
BRANCH   1  13
ATOM     13  C   UNL     1       4.535   5.928  18.607  0.00  0.00    +0.000 C 
BRANCH  13  14
ATOM     14  C   UNL     1       3.440   4.896  18.566  0.00  0.00    +0.000 A 
ATOM     15  C   UNL     1       3.179   4.205  17.379  0.00  0.00    +0.000 A 
ATOM     16  C   UNL     1       2.175   3.239  17.337  0.00  0.00    +0.000 A 
ATOM     17  C   UNL     1       1.418   2.959  18.478  0.00  0.00    +0.000 A 
ATOM     18  C   UNL     1       1.651   3.650  19.673  0.00  0.00    +0.000 A 
ATOM     19  C   UNL     1       2.665   4.621  19.701  0.00  0.00    +0.000 A 
BRANCH  17  20
ATOM     20  O   UNL     1       0.449   1.998  18.384  0.00  0.00    +0.000 OA
ATOM     21  H   UNL     1       0.360   1.553  19.243  0.00  0.00    +0.000 HD
ENDBRANCH  17  20
BRANCH  18  22
ATOM     22  O   UNL     1       1.009   3.513  20.875  0.00  0.00    +0.000 OA
ATOM     23  C   UNL     1       1.554   2.604  21.819  0.00  0.00    +0.000 C 
ENDBRANCH  18  22
ENDBRANCH  13  14
ENDBRANCH   1  13
TORSDOF 13
ENDMDL
MODEL 3
REMARK VINA RESULT:      -5.7      1.985      4.187
REMARK  Name = 
REMARK  15 active torsions:
REMARK  status: ('A' for Active; 'I' for Inactive)
REMARK    1  A    between atoms: C_1  and  C_2
REMARK    2  A    between atoms: C_2  and  C_3
REMARK    3  A    between atoms: C_3  and  C_4
REMARK    4  A    between atoms: C_4  and  C_5
REMARK    5  A    between atoms: C_5  and  C_6
REMARK    6  A    between atoms: C_6  and  C_7
REMARK    7  A    between atoms: C_7  and  C_8
REMARK    8  A    between atoms: C_8  and  C_9
REMARK    9  A    between atoms: C_9  and  C_10
REMARK   10  A    between atoms: C_10  and  C_12
REMARK   11  A    between atoms: C_12  and  C_13
REMARK   12  A    between atoms: C_13  and  C_14
REMARK   13  A    between atoms: C_17  and  O_18
REMARK   14  A    between atoms: C_19  and  O_20
REMARK   15  A    between atoms: O_20  and  C_21
REMARK                            x       y       z     vdW  Elec       q    Type
REMARK                         _______ _______ _______ _____ _____    ______ ____
ROOT
ATOM      1  C   UNL     1       4.184   3.696  19.050  0.00  0.00    +0.000 C 
ENDROOT
BRANCH   1   2
ATOM      2  C   UNL     1       3.803   2.277  19.408  0.00  0.00    +0.000 C 
ATOM      3  O   UNL     1       3.875   1.365  18.583  0.00  0.00    +0.000 OA
BRANCH   2   4
ATOM      4  C   UNL     1       3.423   2.011  20.850  0.00  0.00    +0.000 C 
BRANCH   4   5
ATOM      5  C   UNL     1       2.517   3.121  21.366  0.00  0.00    +0.000 C 
BRANCH   5   6
ATOM      6  C   UNL     1       1.190   3.156  20.618  0.00  0.00    +0.000 C 
BRANCH   6   7
ATOM      7  C   UNL     1       0.909   4.569  20.116  0.00  0.00    +0.000 C 
BRANCH   7   8
ATOM      8  C   UNL     1       1.741   5.593  20.878  0.00  0.00    +0.000 C 
BRANCH   8   9
ATOM      9  C   UNL     1       2.373   6.598  19.919  0.00  0.00    +0.000 C 
BRANCH   9  10
ATOM     10  C   UNL     1       1.720   7.968  20.067  0.00  0.00    +0.000 C 
BRANCH  10  12
ATOM     11  C   UNL     1       2.672   8.088  17.748  0.00  0.00    +0.000 C 
ATOM     12  C   UNL     1       1.712   8.721  18.741  0.00  0.00    +0.000 C 
ENDBRANCH  10  12
ENDBRANCH   9  10
ENDBRANCH   8   9
ENDBRANCH   7   8
ENDBRANCH   6   7
ENDBRANCH   5   6
ENDBRANCH   4   5
ENDBRANCH   2   4
ENDBRANCH   1   2
BRANCH   1  13
ATOM     13  C   UNL     1       3.713   4.018  17.636  0.00  0.00    +0.000 C 
BRANCH  13  14
ATOM     14  C   UNL     1       4.859   4.390  16.734  0.00  0.00    +0.000 A 
ATOM     15  C   UNL     1       5.093   3.658  15.567  0.00  0.00    +0.000 A 
ATOM     16  C   UNL     1       6.145   4.005  14.721  0.00  0.00    +0.000 A 
ATOM     17  C   UNL     1       6.979   5.082  15.037  0.00  0.00    +0.000 A 
ATOM     18  C   UNL     1       6.773   5.818  16.209  0.00  0.00    +0.000 A 
ATOM     19  C   UNL     1       5.710   5.458  17.053  0.00  0.00    +0.000 A 
BRANCH  17  20
ATOM     20  O   UNL     1       7.992   5.383  14.170  0.00  0.00    +0.000 OA
ATOM     21  H   UNL     1       8.592   6.020  14.593  0.00  0.00    +0.000 HD
ENDBRANCH  17  20
BRANCH  18  22
ATOM     22  O   UNL     1       7.487   6.890  16.677  0.00  0.00    +0.000 OA
ATOM     23  C   UNL     1       7.807   6.921  18.060  0.00  0.00    +0.000 C 
ENDBRANCH  18  22
ENDBRANCH  13  14
ENDBRANCH   1  13
TORSDOF 13
ENDMDL
MODEL 4
REMARK VINA RESULT:      -5.6      2.767      5.945
REMARK  Name = 
REMARK  15 active torsions:
REMARK  status: ('A' for Active; 'I' for Inactive)
REMARK    1  A    between atoms: C_1  and  C_2
REMARK    2  A    between atoms: C_2  and  C_3
REMARK    3  A    between atoms: C_3  and  C_4
REMARK    4  A    between atoms: C_4  and  C_5
REMARK    5  A    between atoms: C_5  and  C_6
REMARK    6  A    between atoms: C_6  and  C_7
REMARK    7  A    between atoms: C_7  and  C_8
REMARK    8  A    between atoms: C_8  and  C_9
REMARK    9  A    between atoms: C_9  and  C_10
REMARK   10  A    between atoms: C_10  and  C_12
REMARK   11  A    between atoms: C_12  and  C_13
REMARK   12  A    between atoms: C_13  and  C_14
REMARK   13  A    between atoms: C_17  and  O_18
REMARK   14  A    between atoms: C_19  and  O_20
REMARK   15  A    between atoms: O_20  and  C_21
REMARK                            x       y       z     vdW  Elec       q    Type
REMARK                         _______ _______ _______ _____ _____    ______ ____
ROOT
ATOM      1  C   UNL     1       1.171   4.486  20.241  0.00  0.00    +0.000 C 
ENDROOT
BRANCH   1   2
ATOM      2  C   UNL     1       1.647   3.098  20.605  0.00  0.00    +0.000 C 
ATOM      3  O   UNL     1       1.667   2.712  21.775  0.00  0.00    +0.000 OA
BRANCH   2   4
ATOM      4  C   UNL     1       2.004   2.173  19.460  0.00  0.00    +0.000 C 
BRANCH   4   5
ATOM      5  C   UNL     1       2.272   2.982  18.197  0.00  0.00    +0.000 C 
BRANCH   5   6
ATOM      6  C   UNL     1       3.675   2.732  17.658  0.00  0.00    +0.000 C 
BRANCH   6   7
ATOM      7  C   UNL     1       4.663   3.701  18.301  0.00  0.00    +0.000 C 
BRANCH   7   8
ATOM      8  C   UNL     1       5.531   4.373  17.244  0.00  0.00    +0.000 C 
BRANCH   8   9
ATOM      9  C   UNL     1       4.936   4.178  15.852  0.00  0.00    +0.000 C 
BRANCH   9  10
ATOM     10  C   UNL     1       6.036   3.909  14.830  0.00  0.00    +0.000 C 
BRANCH  10  12
ATOM     11  C   UNL     1       6.563   3.672  12.389  0.00  0.00    +0.000 C 
ATOM     12  C   UNL     1       5.458   3.747  13.428  0.00  0.00    +0.000 C 
ENDBRANCH  10  12
ENDBRANCH   9  10
ENDBRANCH   8   9
ENDBRANCH   7   8
ENDBRANCH   6   7
ENDBRANCH   5   6
ENDBRANCH   4   5
ENDBRANCH   2   4
ENDBRANCH   1   2
BRANCH   1  13
ATOM     13  C   UNL     1       2.189   5.523  20.704  0.00  0.00    +0.000 C 
BRANCH  13  14
ATOM     14  C   UNL     1       2.147   6.768  19.860  0.00  0.00    +0.000 A 
ATOM     15  C   UNL     1       2.902   6.840  18.686  0.00  0.00    +0.000 A 
ATOM     16  C   UNL     1       2.857   7.985  17.894  0.00  0.00    +0.000 A 
ATOM     17  C   UNL     1       2.063   9.073  18.269  0.00  0.00    +0.000 A 
ATOM     18  C   UNL     1       1.312   9.029  19.449  0.00  0.00    +0.000 A 
ATOM     19  C   UNL     1       1.367   7.869  20.239  0.00  0.00    +0.000 A 
BRANCH  17  20
ATOM     20  O   UNL     1       2.051  10.169  17.453  0.00  0.00    +0.000 OA
ATOM     21  H   UNL     1       1.926  10.966  17.994  0.00  0.00    +0.000 HD
ENDBRANCH  17  20
BRANCH  18  22
ATOM     22  O   UNL     1       0.492   9.993  19.973  0.00  0.00    +0.000 OA
ATOM     23  C   UNL     1       1.098  11.148  20.533  0.00  0.00    +0.000 C 
ENDBRANCH  18  22
ENDBRANCH  13  14
ENDBRANCH   1  13
TORSDOF 13
ENDMDL
MODEL 5
REMARK VINA RESULT:      -5.6      2.225      4.623
REMARK  Name = 
REMARK  15 active torsions:
REMARK  status: ('A' for Active; 'I' for Inactive)
REMARK    1  A    between atoms: C_1  and  C_2
REMARK    2  A    between atoms: C_2  and  C_3
REMARK    3  A    between atoms: C_3  and  C_4
REMARK    4  A    between atoms: C_4  and  C_5
REMARK    5  A    between atoms: C_5  and  C_6
REMARK    6  A    between atoms: C_6  and  C_7
REMARK    7  A    between atoms: C_7  and  C_8
REMARK    8  A    between atoms: C_8  and  C_9
REMARK    9  A    between atoms: C_9  and  C_10
REMARK   10  A    between atoms: C_10  and  C_12
REMARK   11  A    between atoms: C_12  and  C_13
REMARK   12  A    between atoms: C_13  and  C_14
REMARK   13  A    between atoms: C_17  and  O_18
REMARK   14  A    between atoms: C_19  and  O_20
REMARK   15  A    between atoms: O_20  and  C_21
REMARK                            x       y       z     vdW  Elec       q    Type
REMARK                         _______ _______ _______ _____ _____    ______ ____
ROOT
ATOM      1  C   UNL     1       3.142   2.112  19.060  0.00  0.00    +0.000 C 
ENDROOT
BRANCH   1   2
ATOM      2  C   UNL     1       1.679   2.385  19.328  0.00  0.00    +0.000 C 
ATOM      3  O   UNL     1       0.816   2.145  18.483  0.00  0.00    +0.000 OA
BRANCH   2   4
ATOM      4  C   UNL     1       1.315   2.871  20.715  0.00  0.00    +0.000 C 
BRANCH   4   5
ATOM      5  C   UNL     1       1.997   4.204  20.998  0.00  0.00    +0.000 C 
BRANCH   5   6
ATOM      6  C   UNL     1       1.582   5.272  19.994  0.00  0.00    +0.000 C 
BRANCH   6   7
ATOM      7  C   UNL     1       2.630   6.380  19.945  0.00  0.00    +0.000 C 
BRANCH   7   8
ATOM      8  C   UNL     1       1.998   7.709  19.555  0.00  0.00    +0.000 C 
BRANCH   8   9
ATOM      9  C   UNL     1       1.371   8.387  20.770  0.00  0.00    +0.000 C 
BRANCH   9  10
ATOM     10  C   UNL     1       0.598   9.634  20.352  0.00  0.00    +0.000 C 
BRANCH  10  12
ATOM     11  C   UNL     1      -0.678  10.261  18.284  0.00  0.00    +0.000 C 
ATOM     12  C   UNL     1       0.673   9.849  18.844  0.00  0.00    +0.000 C 
ENDBRANCH  10  12
ENDBRANCH   9  10
ENDBRANCH   8   9
ENDBRANCH   7   8
ENDBRANCH   6   7
ENDBRANCH   5   6
ENDBRANCH   4   5
ENDBRANCH   2   4
ENDBRANCH   1   2
BRANCH   1  13
ATOM     13  C   UNL     1       3.528   2.655  17.688  0.00  0.00    +0.000 C 
BRANCH  13  14
ATOM     14  C   UNL     1       4.584   3.723  17.783  0.00  0.00    +0.000 A 
ATOM     15  C   UNL     1       5.048   4.134  19.036  0.00  0.00    +0.000 A 
ATOM     16  C   UNL     1       6.034   5.113  19.132  0.00  0.00    +0.000 A 
ATOM     17  C   UNL     1       6.563   5.697  17.976  0.00  0.00    +0.000 A 
ATOM     18  C   UNL     1       6.101   5.313  16.712  0.00  0.00    +0.000 A 
ATOM     19  C   UNL     1       5.106   4.325  16.631  0.00  0.00    +0.000 A 
BRANCH  17  20
ATOM     20  O   UNL     1       7.532   6.650  18.126  0.00  0.00    +0.000 OA
ATOM     21  H   UNL     1       7.829   6.941  17.248  0.00  0.00    +0.000 HD
ENDBRANCH  17  20
BRANCH  18  22
ATOM     22  O   UNL     1       6.495   5.777  15.485  0.00  0.00    +0.000 OA
ATOM     23  C   UNL     1       6.773   4.823  14.472  0.00  0.00    +0.000 C 
ENDBRANCH  18  22
ENDBRANCH  13  14
ENDBRANCH   1  13
TORSDOF 13
ENDMDL
MODEL 6
REMARK VINA RESULT:      -5.6      2.149      5.722
REMARK  Name = 
REMARK  15 active torsions:
REMARK  status: ('A' for Active; 'I' for Inactive)
REMARK    1  A    between atoms: C_1  and  C_2
REMARK    2  A    between atoms: C_2  and  C_3
REMARK    3  A    between atoms: C_3  and  C_4
REMARK    4  A    between atoms: C_4  and  C_5
REMARK    5  A    between atoms: C_5  and  C_6
REMARK    6  A    between atoms: C_6  and  C_7
REMARK    7  A    between atoms: C_7  and  C_8
REMARK    8  A    between atoms: C_8  and  C_9
REMARK    9  A    between atoms: C_9  and  C_10
REMARK   10  A    between atoms: C_10  and  C_12
REMARK   11  A    between atoms: C_12  and  C_13
REMARK   12  A    between atoms: C_13  and  C_14
REMARK   13  A    between atoms: C_17  and  O_18
REMARK   14  A    between atoms: C_19  and  O_20
REMARK   15  A    between atoms: O_20  and  C_21
REMARK                            x       y       z     vdW  Elec       q    Type
REMARK                         _______ _______ _______ _____ _____    ______ ____
ROOT
ATOM      1  C   UNL     1       3.156   2.951  17.366  0.00  0.00    +0.000 C 
ENDROOT
BRANCH   1   2
ATOM      2  C   UNL     1       3.752   2.272  18.578  0.00  0.00    +0.000 C 
ATOM      3  O   UNL     1       3.550   1.079  18.811  0.00  0.00    +0.000 OA
BRANCH   2   4
ATOM      4  C   UNL     1       4.685   3.098  19.438  0.00  0.00    +0.000 C 
BRANCH   4   5
ATOM      5  C   UNL     1       5.296   4.225  18.614  0.00  0.00    +0.000 C 
BRANCH   5   6
ATOM      6  C   UNL     1       6.282   5.049  19.432  0.00  0.00    +0.000 C 
BRANCH   6   7
ATOM      7  C   UNL     1       7.418   5.543  18.541  0.00  0.00    +0.000 C 
BRANCH   7   8
ATOM      8  C   UNL     1       7.712   4.543  17.430  0.00  0.00    +0.000 C 
BRANCH   8   9
ATOM      9  C   UNL     1       7.428   5.155  16.062  0.00  0.00    +0.000 C 
BRANCH   9  10
ATOM     10  C   UNL     1       6.441   4.293  15.281  0.00  0.00    +0.000 C 
BRANCH  10  12
ATOM     11  C   UNL     1       5.125   6.386  15.708  0.00  0.00    +0.000 C 
ATOM     12  C   UNL     1       5.170   5.069  14.952  0.00  0.00    +0.000 C 
ENDBRANCH  10  12
ENDBRANCH   9  10
ENDBRANCH   8   9
ENDBRANCH   7   8
ENDBRANCH   6   7
ENDBRANCH   5   6
ENDBRANCH   4   5
ENDBRANCH   2   4
ENDBRANCH   1   2
BRANCH   1  13
ATOM     13  C   UNL     1       1.764   3.480  17.699  0.00  0.00    +0.000 C 
BRANCH  13  14
ATOM     14  C   UNL     1       1.824   4.683  18.602  0.00  0.00    +0.000 A 
ATOM     15  C   UNL     1       1.452   4.566  19.944  0.00  0.00    +0.000 A 
ATOM     16  C   UNL     1       1.517   5.672  20.788  0.00  0.00    +0.000 A 
ATOM     17  C   UNL     1       1.946   6.909  20.298  0.00  0.00    +0.000 A 
ATOM     18  C   UNL     1       2.307   7.054  18.954  0.00  0.00    +0.000 A 
ATOM     19  C   UNL     1       2.237   5.930  18.114  0.00  0.00    +0.000 A 
BRANCH  17  20
ATOM     20  O   UNL     1       1.996   7.961  21.170  0.00  0.00    +0.000 OA
ATOM     21  H   UNL     1       1.093   8.282  21.332  0.00  0.00    +0.000 HD
ENDBRANCH  17  20
BRANCH  18  22
ATOM     22  O   UNL     1       2.740   8.180  18.305  0.00  0.00    +0.000 OA
ATOM     23  C   UNL     1       1.761   9.090  17.828  0.00  0.00    +0.000 C 
ENDBRANCH  18  22
ENDBRANCH  13  14
ENDBRANCH   1  13
TORSDOF 13
ENDMDL
MODEL 7
REMARK VINA RESULT:      -5.6      1.979      3.985
REMARK  Name = 
REMARK  15 active torsions:
REMARK  status: ('A' for Active; 'I' for Inactive)
REMARK    1  A    between atoms: C_1  and  C_2
REMARK    2  A    between atoms: C_2  and  C_3
REMARK    3  A    between atoms: C_3  and  C_4
REMARK    4  A    between atoms: C_4  and  C_5
REMARK    5  A    between atoms: C_5  and  C_6
REMARK    6  A    between atoms: C_6  and  C_7
REMARK    7  A    between atoms: C_7  and  C_8
REMARK    8  A    between atoms: C_8  and  C_9
REMARK    9  A    between atoms: C_9  and  C_10
REMARK   10  A    between atoms: C_10  and  C_12
REMARK   11  A    between atoms: C_12  and  C_13
REMARK   12  A    between atoms: C_13  and  C_14
REMARK   13  A    between atoms: C_17  and  O_18
REMARK   14  A    between atoms: C_19  and  O_20
REMARK   15  A    between atoms: O_20  and  C_21
REMARK                            x       y       z     vdW  Elec       q    Type
REMARK                         _______ _______ _______ _____ _____    ______ ____
ROOT
ATOM      1  C   UNL     1       1.992   3.711  17.538  0.00  0.00    +0.000 C 
ENDROOT
BRANCH   1   2
ATOM      2  C   UNL     1       1.508   2.575  18.411  0.00  0.00    +0.000 C 
ATOM      3  O   UNL     1       0.309   2.323  18.531  0.00  0.00    +0.000 OA
BRANCH   2   4
ATOM      4  C   UNL     1       2.568   1.702  19.050  0.00  0.00    +0.000 C 
BRANCH   4   5
ATOM      5  C   UNL     1       3.385   2.515  20.047  0.00  0.00    +0.000 C 
BRANCH   5   6
ATOM      6  C   UNL     1       2.738   2.526  21.426  0.00  0.00    +0.000 C 
BRANCH   6   7
ATOM      7  C   UNL     1       1.814   3.732  21.562  0.00  0.00    +0.000 C 
BRANCH   7   8
ATOM      8  C   UNL     1       2.499   5.001  21.072  0.00  0.00    +0.000 C 
BRANCH   8   9
ATOM      9  C   UNL     1       1.533   5.859  20.260  0.00  0.00    +0.000 C 
BRANCH   9  10
ATOM     10  C   UNL     1       1.952   7.325  20.299  0.00  0.00    +0.000 C 
BRANCH  10  12
ATOM     11  C   UNL     1       0.661   9.453  20.622  0.00  0.00    +0.000 C 
ATOM     12  C   UNL     1       1.065   8.128  21.245  0.00  0.00    +0.000 C 
ENDBRANCH  10  12
ENDBRANCH   9  10
ENDBRANCH   8   9
ENDBRANCH   7   8
ENDBRANCH   6   7
ENDBRANCH   5   6
ENDBRANCH   4   5
ENDBRANCH   2   4
ENDBRANCH   1   2
BRANCH   1  13
ATOM     13  C   UNL     1       3.260   3.295  16.799  0.00  0.00    +0.000 C 
BRANCH  13  14
ATOM     14  C   UNL     1       4.297   4.385  16.806  0.00  0.00    +0.000 A 
ATOM     15  C   UNL     1       4.333   5.305  17.857  0.00  0.00    +0.000 A 
ATOM     16  C   UNL     1       5.299   6.310  17.876  0.00  0.00    +0.000 A 
ATOM     17  C   UNL     1       6.234   6.409  16.841  0.00  0.00    +0.000 A 
ATOM     18  C   UNL     1       6.205   5.509  15.770  0.00  0.00    +0.000 A 
ATOM     19  C   UNL     1       5.226   4.502  15.763  0.00  0.00    +0.000 A 
BRANCH  17  20
ATOM     20  O   UNL     1       7.163   7.410  16.912  0.00  0.00    +0.000 OA
ATOM     21  H   UNL     1       7.816   7.286  16.202  0.00  0.00    +0.000 HD
ENDBRANCH  17  20
BRANCH  18  22
ATOM     22  O   UNL     1       7.029   5.460  14.677  0.00  0.00    +0.000 OA
ATOM     23  C   UNL     1       6.862   4.384  13.767  0.00  0.00    +0.000 C 
ENDBRANCH  18  22
ENDBRANCH  13  14
ENDBRANCH   1  13
TORSDOF 13
ENDMDL
MODEL 8
REMARK VINA RESULT:      -5.6      4.568      7.980
REMARK  Name = 
REMARK  15 active torsions:
REMARK  status: ('A' for Active; 'I' for Inactive)
REMARK    1  A    between atoms: C_1  and  C_2
REMARK    2  A    between atoms: C_2  and  C_3
REMARK    3  A    between atoms: C_3  and  C_4
REMARK    4  A    between atoms: C_4  and  C_5
REMARK    5  A    between atoms: C_5  and  C_6
REMARK    6  A    between atoms: C_6  and  C_7
REMARK    7  A    between atoms: C_7  and  C_8
REMARK    8  A    between atoms: C_8  and  C_9
REMARK    9  A    between atoms: C_9  and  C_10
REMARK   10  A    between atoms: C_10  and  C_12
REMARK   11  A    between atoms: C_12  and  C_13
REMARK   12  A    between atoms: C_13  and  C_14
REMARK   13  A    between atoms: C_17  and  O_18
REMARK   14  A    between atoms: C_19  and  O_20
REMARK   15  A    between atoms: O_20  and  C_21
REMARK                            x       y       z     vdW  Elec       q    Type
REMARK                         _______ _______ _______ _____ _____    ______ ____
ROOT
ATOM      1  C   UNL     1       4.939   6.449  17.942  0.00  0.00    +0.000 C 
ENDROOT
BRANCH   1   2
ATOM      2  C   UNL     1       5.826   6.538  16.721  0.00  0.00    +0.000 C 
ATOM      3  O   UNL     1       5.371   6.840  15.617  0.00  0.00    +0.000 OA
BRANCH   2   4
ATOM      4  C   UNL     1       7.312   6.336  16.935  0.00  0.00    +0.000 C 
BRANCH   4   5
ATOM      5  C   UNL     1       7.787   7.165  18.121  0.00  0.00    +0.000 C 
BRANCH   5   6
ATOM      6  C   UNL     1       7.980   8.628  17.743  0.00  0.00    +0.000 C 
BRANCH   6   7
ATOM      7  C   UNL     1       8.794   9.344  18.817  0.00  0.00    +0.000 C 
BRANCH   7   8
ATOM      8  C   UNL     1       9.277  10.700  18.319  0.00  0.00    +0.000 C 
BRANCH   8   9
ATOM      9  C   UNL     1      10.366  11.255  19.233  0.00  0.00    +0.000 C 
BRANCH   9  10
ATOM     10  C   UNL     1      11.523  11.816  18.413  0.00  0.00    +0.000 C 
BRANCH  10  12
ATOM     11  C   UNL     1      10.850  14.094  17.605  0.00  0.00    +0.000 C 
ATOM     12  C   UNL     1      11.016  12.631  17.228  0.00  0.00    +0.000 C 
ENDBRANCH  10  12
ENDBRANCH   9  10
ENDBRANCH   8   9
ENDBRANCH   7   8
ENDBRANCH   6   7
ENDBRANCH   5   6
ENDBRANCH   4   5
ENDBRANCH   2   4
ENDBRANCH   1   2
BRANCH   1  13
ATOM     13  C   UNL     1       3.483   6.295  17.516  0.00  0.00    +0.000 C 
BRANCH  13  14
ATOM     14  C   UNL     1       2.922   4.955  17.910  0.00  0.00    +0.000 A 
ATOM     15  C   UNL     1       1.548   4.718  17.808  0.00  0.00    +0.000 A 
ATOM     16  C   UNL     1       1.024   3.476  18.160  0.00  0.00    +0.000 A 
ATOM     17  C   UNL     1       1.865   2.460  18.623  0.00  0.00    +0.000 A 
ATOM     18  C   UNL     1       3.242   2.681  18.749  0.00  0.00    +0.000 A 
ATOM     19  C   UNL     1       3.757   3.938  18.392  0.00  0.00    +0.000 A 
BRANCH  17  20
ATOM     20  O   UNL     1       1.300   1.259  18.949  0.00  0.00    +0.000 OA
ATOM     21  H   UNL     1       0.585   1.064  18.320  0.00  0.00    +0.000 HD
ENDBRANCH  17  20
BRANCH  18  22
ATOM     22  O   UNL     1       4.206   1.813  19.188  0.00  0.00    +0.000 OA
ATOM     23  C   UNL     1       4.701   1.982  20.508  0.00  0.00    +0.000 C 
ENDBRANCH  18  22
ENDBRANCH  13  14
ENDBRANCH   1  13
TORSDOF 13
ENDMDL
MODEL 9
REMARK VINA RESULT:      -5.6      2.909      6.019
REMARK  Name = 
REMARK  15 active torsions:
REMARK  status: ('A' for Active; 'I' for Inactive)
REMARK    1  A    between atoms: C_1  and  C_2
REMARK    2  A    between atoms: C_2  and  C_3
REMARK    3  A    between atoms: C_3  and  C_4
REMARK    4  A    between atoms: C_4  and  C_5
REMARK    5  A    between atoms: C_5  and  C_6
REMARK    6  A    between atoms: C_6  and  C_7
REMARK    7  A    between atoms: C_7  and  C_8
REMARK    8  A    between atoms: C_8  and  C_9
REMARK    9  A    between atoms: C_9  and  C_10
REMARK   10  A    between atoms: C_10  and  C_12
REMARK   11  A    between atoms: C_12  and  C_13
REMARK   12  A    between atoms: C_13  and  C_14
REMARK   13  A    between atoms: C_17  and  O_18
REMARK   14  A    between atoms: C_19  and  O_20
REMARK   15  A    between atoms: O_20  and  C_21
REMARK                            x       y       z     vdW  Elec       q    Type
REMARK                         _______ _______ _______ _____ _____    ______ ____
ROOT
ATOM      1  C   UNL     1       1.324   4.840  20.574  0.00  0.00    +0.000 C 
ENDROOT
BRANCH   1   2
ATOM      2  C   UNL     1       1.505   3.465  19.971  0.00  0.00    +0.000 C 
ATOM      3  O   UNL     1       0.538   2.762  19.673  0.00  0.00    +0.000 OA
BRANCH   2   4
ATOM      4  C   UNL     1       2.922   3.033  19.658  0.00  0.00    +0.000 C 
BRANCH   4   5
ATOM      5  C   UNL     1       2.962   2.292  18.327  0.00  0.00    +0.000 C 
BRANCH   5   6
ATOM      6  C   UNL     1       2.705   3.229  17.155  0.00  0.00    +0.000 C 
BRANCH   6   7
ATOM      7  C   UNL     1       3.749   4.341  17.133  0.00  0.00    +0.000 C 
BRANCH   7   8
ATOM      8  C   UNL     1       5.051   3.853  16.510  0.00  0.00    +0.000 C 
BRANCH   8   9
ATOM      9  C   UNL     1       5.700   4.956  15.680  0.00  0.00    +0.000 C 
BRANCH   9  10
ATOM     10  C   UNL     1       7.052   5.347  16.267  0.00  0.00    +0.000 C 
BRANCH  10  12
ATOM     11  C   UNL     1       7.694   5.925  18.623  0.00  0.00    +0.000 C 
ATOM     12  C   UNL     1       7.205   4.828  17.693  0.00  0.00    +0.000 C 
ENDBRANCH  10  12
ENDBRANCH   9  10
ENDBRANCH   8   9
ENDBRANCH   7   8
ENDBRANCH   6   7
ENDBRANCH   5   6
ENDBRANCH   4   5
ENDBRANCH   2   4
ENDBRANCH   1   2
BRANCH   1  13
ATOM     13  C   UNL     1       2.543   5.704  20.269  0.00  0.00    +0.000 C 
BRANCH  13  14
ATOM     14  C   UNL     1       2.154   7.041  19.698  0.00  0.00    +0.000 A 
ATOM     15  C   UNL     1       2.427   7.333  18.358  0.00  0.00    +0.000 A 
ATOM     16  C   UNL     1       2.058   8.564  17.820  0.00  0.00    +0.000 A 
ATOM     17  C   UNL     1       1.419   9.519  18.616  0.00  0.00    +0.000 A 
ATOM     18  C   UNL     1       1.151   9.255  19.964  0.00  0.00    +0.000 A 
ATOM     19  C   UNL     1       1.529   8.010  20.494  0.00  0.00    +0.000 A 
BRANCH  17  20
ATOM     20  O   UNL     1       1.073  10.708  18.037  0.00  0.00    +0.000 OA
ATOM     21  H   UNL     1       0.106  10.795  18.043  0.00  0.00    +0.000 HD
ENDBRANCH  17  20
BRANCH  18  22
ATOM     22  O   UNL     1       0.545  10.067  20.886  0.00  0.00    +0.000 OA
ATOM     23  C   UNL     1      -0.009   9.459  22.044  0.00  0.00    +0.000 C 
ENDBRANCH  18  22
ENDBRANCH  13  14
ENDBRANCH   1  13
TORSDOF 13
ENDMDL
