MODEL 1
REMARK VINA RESULT:      -7.9      0.000      0.000
REMARK  Name = 
REMARK  9 active torsions:
REMARK  status: ('A' for Active; 'I' for Inactive)
REMARK    1  A    between atoms: C_1  and  N_2
REMARK    2  A    between atoms: N_2  and  C_3
REMARK    3  A    between atoms: C_10  and  C_11
REMARK    4  A    between atoms: C_11  and  N_12
REMARK    5  A    between atoms: N_12  and  C_13
REMARK    6  A    between atoms: C_13  and  C_14
REMARK    7  A    between atoms: C_14  and  C_15
REMARK    8  A    between atoms: C_15  and  N_16
REMARK    9  A    between atoms: C_19  and  O_20
REMARK                            x       y       z     vdW  Elec       q    Type
REMARK                         _______ _______ _______ _____ _____    ______ ____
ROOT
ATOM      1  C   UNL     1       7.862   6.982  18.164  0.00  0.00    +0.000 C 
ENDROOT
BRANCH   1   2
ATOM      2  C   UNL     1       7.436   6.134  16.962  0.00  0.00    +0.000 C 
BRANCH   2   3
ATOM      3  N   UNL     1       6.759   4.886  17.332  0.00  0.00    +0.000 NA
ATOM      4  H   UNL     1       7.350   4.099  17.060  0.00  0.00    +0.000 HD
BRANCH   3   5
ATOM      5  C   UNL     1       5.458   4.741  16.673  0.00  0.00    +0.000 C 
BRANCH   5  13
ATOM      6  C   UNL     1       3.794   4.196  18.602  0.00  0.00    +0.000 A 
ATOM      7  C   UNL     1       2.838   4.735  19.496  0.00  0.00    +0.000 A 
ATOM      8 BR   UNL     1       2.155   3.862  21.053  0.00  0.00    +0.000 Br
ATOM      9  C   UNL     1       2.335   6.038  19.337  0.00  0.00    +0.000 A 
ATOM     10  C   UNL     1       2.797   6.851  18.315  0.00  0.00    +0.000 A 
ATOM     11 BR   UNL     1       2.132   8.609  18.129  0.00  0.00    +0.000 Br
ATOM     12  C   UNL     1       3.782   6.391  17.460  0.00  0.00    +0.000 A 
ATOM     13  C   UNL     1       4.312   5.089  17.611  0.00  0.00    +0.000 A 
BRANCH   6  15
ATOM     14  C   UNL     1       3.629   1.694  18.444  0.00  0.00    +0.000 C 
ATOM     15  N   UNL     1       4.376   2.917  18.689  0.00  0.00    +0.000 N 
ATOM     16  H   UNL     1       5.235   2.885  18.142  0.00  0.00    +0.000 HD
ENDBRANCH   6  15
ENDBRANCH   5  13
ENDBRANCH   3   5
ENDBRANCH   2   3
ENDBRANCH   1   2
BRANCH   1  17
ATOM     17  C   UNL     1       7.960   8.454  17.778  0.00  0.00    +0.000 C 
BRANCH  17  18
ATOM     18  N   UNL     1       8.683   9.206  18.788  0.00  0.00    +0.000 N 
ATOM     19  C   UNL     1       8.985  10.536  18.511  0.00  0.00    +0.000 A 
ATOM     20  C   UNL     1       8.134  11.357  17.791  0.00  0.00    +0.000 A 
ATOM     21  C   UNL     1       8.471  12.689  17.616  0.00  0.00    +0.000 A 
ATOM     22  C   UNL     1       9.628  13.207  18.200  0.00  0.00    +0.000 A 
ATOM     23  C   UNL     1       9.987  14.569  18.104  0.00  0.00    +0.000 A 
ATOM     24  C   UNL     1      11.134  15.043  18.732  0.00  0.00    +0.000 A 
ATOM     25  C   UNL     1      11.937  14.158  19.442  0.00  0.00    +0.000 A 
ATOM     26  C   UNL     1      11.583  12.807  19.523  0.00  0.00    +0.000 A 
ATOM     27  C   UNL     1      10.436  12.306  18.918  0.00  0.00    +0.000 A 
ATOM     28  N   UNL     1      10.122  11.002  19.056  0.00  0.00    +0.000 NA
ATOM     29  H   UNL     1       9.538   8.781  19.145  0.00  0.00    +0.000 HD
BRANCH  21  30
ATOM     30  O   UNL     1       7.648  13.510  16.886  0.00  0.00    +0.000 OA
ATOM     31  H   UNL     1       7.957  13.531  15.964  0.00  0.00    +0.000 HD
ENDBRANCH  21  30
ENDBRANCH  17  18
ENDBRANCH   1  17
TORSDOF 8
ENDMDL
MODEL 2
REMARK VINA RESULT:      -7.7      1.193      1.320
REMARK  Name = 
REMARK  9 active torsions:
REMARK  status: ('A' for Active; 'I' for Inactive)
REMARK    1  A    between atoms: C_1  and  N_2
REMARK    2  A    between atoms: N_2  and  C_3
REMARK    3  A    between atoms: C_10  and  C_11
REMARK    4  A    between atoms: C_11  and  N_12
REMARK    5  A    between atoms: N_12  and  C_13
REMARK    6  A    between atoms: C_13  and  C_14
REMARK    7  A    between atoms: C_14  and  C_15
REMARK    8  A    between atoms: C_15  and  N_16
REMARK    9  A    between atoms: C_19  and  O_20
REMARK                            x       y       z     vdW  Elec       q    Type
REMARK                         _______ _______ _______ _____ _____    ______ ____
ROOT
ATOM      1  C   UNL     1       7.263   6.472  17.331  0.00  0.00    +0.000 C 
ENDROOT
BRANCH   1   2
ATOM      2  C   UNL     1       7.458   6.011  18.779  0.00  0.00    +0.000 C 
BRANCH   2   3
ATOM      3  N   UNL     1       6.720   4.787  19.111  0.00  0.00    +0.000 NA
ATOM      4  H   UNL     1       7.348   3.988  19.012  0.00  0.00    +0.000 HD
BRANCH   3   5
ATOM      5  C   UNL     1       5.561   4.581  18.237  0.00  0.00    +0.000 C 
BRANCH   5  13
ATOM      6  C   UNL     1       3.617   3.554  19.633  0.00  0.00    +0.000 A 
ATOM      7  C   UNL     1       2.493   3.843  20.445  0.00  0.00    +0.000 A 
ATOM      8 BR   UNL     1       1.594   2.599  21.583  0.00  0.00    +0.000 Br
ATOM      9  C   UNL     1       1.961   5.142  20.528  0.00  0.00    +0.000 A 
ATOM     10  C   UNL     1       2.552   6.190  19.843  0.00  0.00    +0.000 A 
ATOM     11 BR   UNL     1       1.841   7.934  19.984  0.00  0.00    +0.000 Br
ATOM     12  C   UNL     1       3.693   5.967  19.093  0.00  0.00    +0.000 A 
ATOM     13  C   UNL     1       4.254   4.673  19.008  0.00  0.00    +0.000 A 
BRANCH   6  15
ATOM     14  C   UNL     1       3.792   1.294  18.550  0.00  0.00    +0.000 C 
ATOM     15  N   UNL     1       4.239   2.298  19.502  0.00  0.00    +0.000 N 
ATOM     16  H   UNL     1       5.245   2.415  19.399  0.00  0.00    +0.000 HD
ENDBRANCH   6  15
ENDBRANCH   5  13
ENDBRANCH   3   5
ENDBRANCH   2   3
ENDBRANCH   1   2
BRANCH   1  17
ATOM     17  C   UNL     1       7.849   7.864  17.124  0.00  0.00    +0.000 C 
BRANCH  17  18
ATOM     18  N   UNL     1       8.239   8.454  18.393  0.00  0.00    +0.000 N 
ATOM     19  C   UNL     1       8.609   9.795  18.395  0.00  0.00    +0.000 A 
ATOM     20  C   UNL     1       8.009  10.733  17.572  0.00  0.00    +0.000 A 
ATOM     21  C   UNL     1       8.382  12.063  17.682  0.00  0.00    +0.000 A 
ATOM     22  C   UNL     1       9.312  12.458  18.643  0.00  0.00    +0.000 A 
ATOM     23  C   UNL     1       9.683  13.805  18.839  0.00  0.00    +0.000 A 
ATOM     24  C   UNL     1      10.592  14.152  19.833  0.00  0.00    +0.000 A 
ATOM     25  C   UNL     1      11.148  13.154  20.624  0.00  0.00    +0.000 A 
ATOM     26  C   UNL     1      10.788  11.818  20.418  0.00  0.00    +0.000 A 
ATOM     27  C   UNL     1       9.872  11.443  19.441  0.00  0.00    +0.000 A 
ATOM     28  N   UNL     1       9.533  10.144  19.307  0.00  0.00    +0.000 NA
ATOM     29  H   UNL     1       8.950   7.954  18.925  0.00  0.00    +0.000 HD
BRANCH  21  30
ATOM     30  O   UNL     1       7.812  13.001  16.858  0.00  0.00    +0.000 OA
ATOM     31  H   UNL     1       6.949  12.673  16.552  0.00  0.00    +0.000 HD
ENDBRANCH  21  30
ENDBRANCH  17  18
ENDBRANCH   1  17
TORSDOF 8
ENDMDL
MODEL 3
REMARK VINA RESULT:      -7.3      3.560      9.860
REMARK  Name = 
REMARK  9 active torsions:
REMARK  status: ('A' for Active; 'I' for Inactive)
REMARK    1  A    between atoms: C_1  and  N_2
REMARK    2  A    between atoms: N_2  and  C_3
REMARK    3  A    between atoms: C_10  and  C_11
REMARK    4  A    between atoms: C_11  and  N_12
REMARK    5  A    between atoms: N_12  and  C_13
REMARK    6  A    between atoms: C_13  and  C_14
REMARK    7  A    between atoms: C_14  and  C_15
REMARK    8  A    between atoms: C_15  and  N_16
REMARK    9  A    between atoms: C_19  and  O_20
REMARK                            x       y       z     vdW  Elec       q    Type
REMARK                         _______ _______ _______ _____ _____    ______ ____
ROOT
ATOM      1  C   UNL     1       7.929   7.275  18.170  0.00  0.00    +0.000 C 
ENDROOT
BRANCH   1   2
ATOM      2  C   UNL     1       8.188   8.778  18.023  0.00  0.00    +0.000 C 
BRANCH   2   3
ATOM      3  N   UNL     1       8.957   9.354  19.132  0.00  0.00    +0.000 NA
ATOM      4  H   UNL     1       8.307   9.656  19.859  0.00  0.00    +0.000 HD
BRANCH   3   5
ATOM      5  C   UNL     1       9.758  10.509  18.713  0.00  0.00    +0.000 C 
BRANCH   5  13
ATOM      6  C   UNL     1      10.298  12.913  19.558  0.00  0.00    +0.000 A 
ATOM      7  C   UNL     1      10.068  13.861  20.584  0.00  0.00    +0.000 A 
ATOM      8 BR   UNL     1      10.460  15.728  20.482  0.00  0.00    +0.000 Br
ATOM      9  C   UNL     1       9.450  13.499  21.794  0.00  0.00    +0.000 A 
ATOM     10  C   UNL     1       9.009  12.202  21.999  0.00  0.00    +0.000 A 
ATOM     11 BR   UNL     1       8.156  11.736  23.619  0.00  0.00    +0.000 Br
ATOM     12  C   UNL     1       9.150  11.259  20.996  0.00  0.00    +0.000 A 
ATOM     13  C   UNL     1       9.755  11.605  19.767  0.00  0.00    +0.000 A 
BRANCH   6  15
ATOM     14  C   UNL     1      12.321  13.147  18.087  0.00  0.00    +0.000 C 
ATOM     15  N   UNL     1      10.884  13.178  18.306  0.00  0.00    +0.000 N 
ATOM     16  H   UNL     1      10.435  12.618  17.583  0.00  0.00    +0.000 HD
ENDBRANCH   6  15
ENDBRANCH   5  13
ENDBRANCH   3   5
ENDBRANCH   2   3
ENDBRANCH   1   2
BRANCH   1  17
ATOM     17  C   UNL     1       7.120   6.749  16.989  0.00  0.00    +0.000 C 
BRANCH  17  18
ATOM     18  N   UNL     1       6.561   5.443  17.287  0.00  0.00    +0.000 N 
ATOM     19  C   UNL     1       5.363   5.399  17.994  0.00  0.00    +0.000 A 
ATOM     20  C   UNL     1       4.365   6.343  17.825  0.00  0.00    +0.000 A 
ATOM     21  C   UNL     1       3.172   6.193  18.513  0.00  0.00    +0.000 A 
ATOM     22  C   UNL     1       2.961   5.079  19.326  0.00  0.00    +0.000 A 
ATOM     23  C   UNL     1       1.744   4.846  20.001  0.00  0.00    +0.000 A 
ATOM     24  C   UNL     1       1.573   3.703  20.775  0.00  0.00    +0.000 A 
ATOM     25  C   UNL     1       2.620   2.797  20.894  0.00  0.00    +0.000 A 
ATOM     26  C   UNL     1       3.829   3.040  20.233  0.00  0.00    +0.000 A 
ATOM     27  C   UNL     1       4.026   4.166  19.441  0.00  0.00    +0.000 A 
ATOM     28  N   UNL     1       5.199   4.334  18.798  0.00  0.00    +0.000 NA
ATOM     29  H   UNL     1       7.187   4.772  17.731  0.00  0.00    +0.000 HD
BRANCH  21  30
ATOM     30  O   UNL     1       2.181   7.132  18.372  0.00  0.00    +0.000 OA
ATOM     31  H   UNL     1       1.407   6.717  17.955  0.00  0.00    +0.000 HD
ENDBRANCH  21  30
ENDBRANCH  17  18
ENDBRANCH   1  17
TORSDOF 8
ENDMDL
MODEL 4
REMARK VINA RESULT:      -7.3      6.581     10.321
REMARK  Name = 
REMARK  9 active torsions:
REMARK  status: ('A' for Active; 'I' for Inactive)
REMARK    1  A    between atoms: C_1  and  N_2
REMARK    2  A    between atoms: N_2  and  C_3
REMARK    3  A    between atoms: C_10  and  C_11
REMARK    4  A    between atoms: C_11  and  N_12
REMARK    5  A    between atoms: N_12  and  C_13
REMARK    6  A    between atoms: C_13  and  C_14
REMARK    7  A    between atoms: C_14  and  C_15
REMARK    8  A    between atoms: C_15  and  N_16
REMARK    9  A    between atoms: C_19  and  O_20
REMARK                            x       y       z     vdW  Elec       q    Type
REMARK                         _______ _______ _______ _____ _____    ______ ____
ROOT
ATOM      1  C   UNL     1       1.149  10.053  18.259  0.00  0.00    +0.000 C 
ENDROOT
BRANCH   1   2
ATOM      2  C   UNL     1       0.587   9.901  19.676  0.00  0.00    +0.000 C 
BRANCH   2   3
ATOM      3  N   UNL     1      -0.580  10.751  19.940  0.00  0.00    +0.000 NA
ATOM      4  H   UNL     1      -1.401  10.156  20.052  0.00  0.00    +0.000 HD
BRANCH   3   5
ATOM      5  C   UNL     1      -0.836  11.700  18.852  0.00  0.00    +0.000 C 
BRANCH   5  13
ATOM      6  C   UNL     1      -3.432  11.874  18.957  0.00  0.00    +0.000 A 
ATOM      7  C   UNL     1      -4.632  11.794  18.208  0.00  0.00    +0.000 A 
ATOM      8 BR   UNL     1      -6.344  12.420  18.781  0.00  0.00    +0.000 Br
ATOM      9  C   UNL     1      -4.649  11.278  16.901  0.00  0.00    +0.000 A 
ATOM     10  C   UNL     1      -3.475  10.868  16.291  0.00  0.00    +0.000 A 
ATOM     11 BR   UNL     1      -3.510  10.201  14.524  0.00  0.00    +0.000 Br
ATOM     12  C   UNL     1      -2.270  10.992  16.959  0.00  0.00    +0.000 A 
ATOM     13  C   UNL     1      -2.228  11.522  18.268  0.00  0.00    +0.000 A 
BRANCH   6  15
ATOM     14  C   UNL     1      -3.294  13.823  20.537  0.00  0.00    +0.000 C 
ATOM     15  N   UNL     1      -3.305  12.395  20.259  0.00  0.00    +0.000 N 
ATOM     16  H   UNL     1      -3.976  11.950  20.881  0.00  0.00    +0.000 HD
ENDBRANCH   6  15
ENDBRANCH   5  13
ENDBRANCH   3   5
ENDBRANCH   2   3
ENDBRANCH   1   2
BRANCH   1  17
ATOM     17  C   UNL     1       2.267   9.047  18.011  0.00  0.00    +0.000 C 
BRANCH  17  18
ATOM     18  N   UNL     1       2.180   7.938  18.945  0.00  0.00    +0.000 N 
ATOM     19  C   UNL     1       2.613   6.690  18.509  0.00  0.00    +0.000 A 
ATOM     20  C   UNL     1       3.687   6.535  17.649  0.00  0.00    +0.000 A 
ATOM     21  C   UNL     1       4.104   5.257  17.315  0.00  0.00    +0.000 A 
ATOM     22  C   UNL     1       3.482   4.142  17.877  0.00  0.00    +0.000 A 
ATOM     23  C   UNL     1       3.904   2.820  17.619  0.00  0.00    +0.000 A 
ATOM     24  C   UNL     1       3.271   1.743  18.230  0.00  0.00    +0.000 A 
ATOM     25  C   UNL     1       2.202   1.979  19.087  0.00  0.00    +0.000 A 
ATOM     26  C   UNL     1       1.778   3.290  19.329  0.00  0.00    +0.000 A 
ATOM     27  C   UNL     1       2.400   4.387  18.744  0.00  0.00    +0.000 A 
ATOM     28  N   UNL     1       1.974   5.633  19.039  0.00  0.00    +0.000 NA
ATOM     29  H   UNL     1       1.276   7.793  19.393  0.00  0.00    +0.000 HD
BRANCH  21  30
ATOM     30  O   UNL     1       5.153   5.087  16.447  0.00  0.00    +0.000 OA
ATOM     31  H   UNL     1       5.498   4.183  16.538  0.00  0.00    +0.000 HD
ENDBRANCH  21  30
ENDBRANCH  17  18
ENDBRANCH   1  17
TORSDOF 8
ENDMDL
MODEL 5
REMARK VINA RESULT:      -7.3      7.190     10.505
REMARK  Name = 
REMARK  9 active torsions:
REMARK  status: ('A' for Active; 'I' for Inactive)
REMARK    1  A    between atoms: C_1  and  N_2
REMARK    2  A    between atoms: N_2  and  C_3
REMARK    3  A    between atoms: C_10  and  C_11
REMARK    4  A    between atoms: C_11  and  N_12
REMARK    5  A    between atoms: N_12  and  C_13
REMARK    6  A    between atoms: C_13  and  C_14
REMARK    7  A    between atoms: C_14  and  C_15
REMARK    8  A    between atoms: C_15  and  N_16
REMARK    9  A    between atoms: C_19  and  O_20
REMARK                            x       y       z     vdW  Elec       q    Type
REMARK                         _______ _______ _______ _____ _____    ______ ____
ROOT
ATOM      1  C   UNL     1      -0.045   9.288  21.849  0.00  0.00    +0.000 C 
ENDROOT
BRANCH   1   2
ATOM      2  C   UNL     1      -0.084  10.819  21.840  0.00  0.00    +0.000 C 
BRANCH   2   3
ATOM      3  N   UNL     1      -1.425  11.372  21.623  0.00  0.00    +0.000 NA
ATOM      4  H   UNL     1      -2.040  10.624  21.301  0.00  0.00    +0.000 HD
BRANCH   3   5
ATOM      5  C   UNL     1      -1.431  12.443  20.621  0.00  0.00    +0.000 C 
BRANCH   5  13
ATOM      6  C   UNL     1      -2.075  11.671  18.219  0.00  0.00    +0.000 A 
ATOM      7  C   UNL     1      -3.145  11.319  17.361  0.00  0.00    +0.000 A 
ATOM      8 BR   UNL     1      -2.978  10.414  15.686  0.00  0.00    +0.000 Br
ATOM      9  C   UNL     1      -4.483  11.565  17.716  0.00  0.00    +0.000 A 
ATOM     10  C   UNL     1      -4.793  12.126  18.944  0.00  0.00    +0.000 A 
ATOM     11 BR   UNL     1      -6.597  12.427  19.419  0.00  0.00    +0.000 Br
ATOM     12  C   UNL     1      -3.784  12.422  19.842  0.00  0.00    +0.000 A 
ATOM     13  C   UNL     1      -2.433  12.169  19.512  0.00  0.00    +0.000 A 
BRANCH   6  15
ATOM     14  C   UNL     1      -0.077  10.149  18.158  0.00  0.00    +0.000 C 
ATOM     15  N   UNL     1      -0.708  11.445  17.968  0.00  0.00    +0.000 N 
ATOM     16  H   UNL     1      -0.459  11.794  17.044  0.00  0.00    +0.000 HD
ENDBRANCH   6  15
ENDBRANCH   5  13
ENDBRANCH   3   5
ENDBRANCH   2   3
ENDBRANCH   1   2
BRANCH   1  17
ATOM     17  C   UNL     1       1.241   8.778  21.207  0.00  0.00    +0.000 C 
BRANCH  17  18
ATOM     18  N   UNL     1       1.445   7.371  21.505  0.00  0.00    +0.000 N 
ATOM     19  C   UNL     1       1.754   6.524  20.445  0.00  0.00    +0.000 A 
ATOM     20  C   UNL     1       2.536   6.927  19.376  0.00  0.00    +0.000 A 
ATOM     21  C   UNL     1       2.859   6.005  18.394  0.00  0.00    +0.000 A 
ATOM     22  C   UNL     1       2.443   4.678  18.506  0.00  0.00    +0.000 A 
ATOM     23  C   UNL     1       2.795   3.685  17.566  0.00  0.00    +0.000 A 
ATOM     24  C   UNL     1       2.382   2.369  17.741  0.00  0.00    +0.000 A 
ATOM     25  C   UNL     1       1.602   2.040  18.843  0.00  0.00    +0.000 A 
ATOM     26  C   UNL     1       1.246   3.030  19.765  0.00  0.00    +0.000 A 
ATOM     27  C   UNL     1       1.655   4.352  19.625  0.00  0.00    +0.000 A 
ATOM     28  N   UNL     1       1.312   5.260  20.561  0.00  0.00    +0.000 NA
ATOM     29  H   UNL     1       0.711   6.911  22.043  0.00  0.00    +0.000 HD
BRANCH  21  30
ATOM     30  O   UNL     1       3.616   6.394  17.317  0.00  0.00    +0.000 OA
ATOM     31  H   UNL     1       3.857   5.608  16.798  0.00  0.00    +0.000 HD
ENDBRANCH  21  30
ENDBRANCH  17  18
ENDBRANCH   1  17
TORSDOF 8
ENDMDL
MODEL 6
REMARK VINA RESULT:      -7.3      6.014      9.480
REMARK  Name = 
REMARK  9 active torsions:
REMARK  status: ('A' for Active; 'I' for Inactive)
REMARK    1  A    between atoms: C_1  and  N_2
REMARK    2  A    between atoms: N_2  and  C_3
REMARK    3  A    between atoms: C_10  and  C_11
REMARK    4  A    between atoms: C_11  and  N_12
REMARK    5  A    between atoms: N_12  and  C_13
REMARK    6  A    between atoms: C_13  and  C_14
REMARK    7  A    between atoms: C_14  and  C_15
REMARK    8  A    between atoms: C_15  and  N_16
REMARK    9  A    between atoms: C_19  and  O_20
REMARK                            x       y       z     vdW  Elec       q    Type
REMARK                         _______ _______ _______ _____ _____    ______ ____
ROOT
ATOM      1  C   UNL     1       0.538   9.541  22.954  0.00  0.00    +0.000 C 
ENDROOT
BRANCH   1   2
ATOM      2  C   UNL     1       1.667   9.016  22.062  0.00  0.00    +0.000 C 
BRANCH   2   3
ATOM      3  N   UNL     1       1.317   7.794  21.328  0.00  0.00    +0.000 NA
ATOM      4  H   UNL     1       1.562   6.986  21.902  0.00  0.00    +0.000 HD
BRANCH   3   5
ATOM      5  C   UNL     1       2.027   7.690  20.049  0.00  0.00    +0.000 C 
BRANCH   5  13
ATOM      6  C   UNL     1       2.915   5.839  18.446  0.00  0.00    +0.000 A 
ATOM      7  C   UNL     1       3.200   4.458  18.313  0.00  0.00    +0.000 A 
ATOM      8 BR   UNL     1       4.259   3.669  16.931  0.00  0.00    +0.000 Br
ATOM      9  C   UNL     1       2.757   3.521  19.263  0.00  0.00    +0.000 A 
ATOM     10  C   UNL     1       2.058   3.933  20.385  0.00  0.00    +0.000 A 
ATOM     11 BR   UNL     1       1.491   2.666  21.666  0.00  0.00    +0.000 Br
ATOM     12  C   UNL     1       1.816   5.280  20.591  0.00  0.00    +0.000 A 
ATOM     13  C   UNL     1       2.266   6.240  19.657  0.00  0.00    +0.000 A 
BRANCH   6  15
ATOM     14  C   UNL     1       4.730   7.088  17.239  0.00  0.00    +0.000 C 
ATOM     15  N   UNL     1       3.332   6.856  17.567  0.00  0.00    +0.000 N 
ATOM     16  H   UNL     1       2.800   6.811  16.701  0.00  0.00    +0.000 HD
ENDBRANCH   6  15
ENDBRANCH   5  13
ENDBRANCH   3   5
ENDBRANCH   2   3
ENDBRANCH   1   2
BRANCH   1  17
ATOM     17  C   UNL     1      -0.286  10.592  22.217  0.00  0.00    +0.000 C 
BRANCH  17  18
ATOM     18  N   UNL     1      -0.019  10.551  20.790  0.00  0.00    +0.000 N 
ATOM     19  C   UNL     1      -1.080  10.803  19.926  0.00  0.00    +0.000 A 
ATOM     20  C   UNL     1      -2.078  11.717  20.221  0.00  0.00    +0.000 A 
ATOM     21  C   UNL     1      -3.063  11.965  19.280  0.00  0.00    +0.000 A 
ATOM     22  C   UNL     1      -3.023  11.340  18.033  0.00  0.00    +0.000 A 
ATOM     23  C   UNL     1      -3.966  11.602  17.017  0.00  0.00    +0.000 A 
ATOM     24  C   UNL     1      -3.863  10.977  15.779  0.00  0.00    +0.000 A 
ATOM     25  C   UNL     1      -2.831  10.075  15.555  0.00  0.00    +0.000 A 
ATOM     26  C   UNL     1      -1.906   9.809  16.570  0.00  0.00    +0.000 A 
ATOM     27  C   UNL     1      -1.974  10.428  17.813  0.00  0.00    +0.000 A 
ATOM     28  N   UNL     1      -1.036  10.162  18.746  0.00  0.00    +0.000 NA
ATOM     29  H   UNL     1       0.450   9.716  20.441  0.00  0.00    +0.000 HD
BRANCH  21  30
ATOM     30  O   UNL     1      -4.071  12.852  19.566  0.00  0.00    +0.000 OA
ATOM     31  H   UNL     1      -4.925  12.446  19.342  0.00  0.00    +0.000 HD
ENDBRANCH  21  30
ENDBRANCH  17  18
ENDBRANCH   1  17
TORSDOF 8
ENDMDL
MODEL 7
REMARK VINA RESULT:      -7.2      3.871     10.026
REMARK  Name = 
REMARK  9 active torsions:
REMARK  status: ('A' for Active; 'I' for Inactive)
REMARK    1  A    between atoms: C_1  and  N_2
REMARK    2  A    between atoms: N_2  and  C_3
REMARK    3  A    between atoms: C_10  and  C_11
REMARK    4  A    between atoms: C_11  and  N_12
REMARK    5  A    between atoms: N_12  and  C_13
REMARK    6  A    between atoms: C_13  and  C_14
REMARK    7  A    between atoms: C_14  and  C_15
REMARK    8  A    between atoms: C_15  and  N_16
REMARK    9  A    between atoms: C_19  and  O_20
REMARK                            x       y       z     vdW  Elec       q    Type
REMARK                         _______ _______ _______ _____ _____    ______ ____
ROOT
ATOM      1  C   UNL     1       6.699   7.856  17.452  0.00  0.00    +0.000 C 
ENDROOT
BRANCH   1   2
ATOM      2  C   UNL     1       8.156   8.277  17.672  0.00  0.00    +0.000 C 
BRANCH   2   3
ATOM      3  N   UNL     1       8.306   9.673  18.096  0.00  0.00    +0.000 NA
ATOM      4  H   UNL     1       8.534  10.242  17.280  0.00  0.00    +0.000 HD
BRANCH   3   5
ATOM      5  C   UNL     1       9.369   9.841  19.093  0.00  0.00    +0.000 C 
BRANCH   5  13
ATOM      6  C   UNL     1       9.405  12.445  19.153  0.00  0.00    +0.000 A 
ATOM      7  C   UNL     1       9.117  13.591  19.933  0.00  0.00    +0.000 A 
ATOM      8 BR   UNL     1       8.990  15.381  19.275  0.00  0.00    +0.000 Br
ATOM      9  C   UNL     1       8.831  13.493  21.306  0.00  0.00    +0.000 A 
ATOM     10  C   UNL     1       8.782  12.258  21.928  0.00  0.00    +0.000 A 
ATOM     11 BR   UNL     1       8.370  12.139  23.768  0.00  0.00    +0.000 Br
ATOM     12  C   UNL     1       8.988  11.105  21.191  0.00  0.00    +0.000 A 
ATOM     13  C   UNL     1       9.263  11.179  19.807  0.00  0.00    +0.000 A 
BRANCH   6  15
ATOM     14  C   UNL     1      10.989  12.751  17.227  0.00  0.00    +0.000 C 
ATOM     15  N   UNL     1       9.679  12.433  17.772  0.00  0.00    +0.000 N 
ATOM     16  H   UNL     1       9.361  11.558  17.360  0.00  0.00    +0.000 HD
ENDBRANCH   6  15
ENDBRANCH   5  13
ENDBRANCH   3   5
ENDBRANCH   2   3
ENDBRANCH   1   2
BRANCH   1  17
ATOM     17  C   UNL     1       6.606   6.356  17.191  0.00  0.00    +0.000 C 
BRANCH  17  18
ATOM     18  N   UNL     1       6.207   5.646  18.393  0.00  0.00    +0.000 N 
ATOM     19  C   UNL     1       4.943   5.063  18.410  0.00  0.00    +0.000 A 
ATOM     20  C   UNL     1       4.370   4.499  17.283  0.00  0.00    +0.000 A 
ATOM     21  C   UNL     1       3.138   3.875  17.394  0.00  0.00    +0.000 A 
ATOM     22  C   UNL     1       2.508   3.773  18.635  0.00  0.00    +0.000 A 
ATOM     23  C   UNL     1       1.283   3.096  18.816  0.00  0.00    +0.000 A 
ATOM     24  C   UNL     1       0.711   2.995  20.080  0.00  0.00    +0.000 A 
ATOM     25  C   UNL     1       1.349   3.583  21.165  0.00  0.00    +0.000 A 
ATOM     26  C   UNL     1       2.557   4.264  20.978  0.00  0.00    +0.000 A 
ATOM     27  C   UNL     1       3.160   4.371  19.730  0.00  0.00    +0.000 A 
ATOM     28  N   UNL     1       4.342   5.009  19.611  0.00  0.00    +0.000 NA
ATOM     29  H   UNL     1       6.307   6.152  19.272  0.00  0.00    +0.000 HD
BRANCH  21  30
ATOM     30  O   UNL     1       2.547   3.330  16.282  0.00  0.00    +0.000 OA
ATOM     31  H   UNL     1       3.186   3.332  15.550  0.00  0.00    +0.000 HD
ENDBRANCH  21  30
ENDBRANCH  17  18
ENDBRANCH   1  17
TORSDOF 8
ENDMDL
MODEL 8
REMARK VINA RESULT:      -7.2      1.590      1.934
REMARK  Name = 
REMARK  9 active torsions:
REMARK  status: ('A' for Active; 'I' for Inactive)
REMARK    1  A    between atoms: C_1  and  N_2
REMARK    2  A    between atoms: N_2  and  C_3
REMARK    3  A    between atoms: C_10  and  C_11
REMARK    4  A    between atoms: C_11  and  N_12
REMARK    5  A    between atoms: N_12  and  C_13
REMARK    6  A    between atoms: C_13  and  C_14
REMARK    7  A    between atoms: C_14  and  C_15
REMARK    8  A    between atoms: C_15  and  N_16
REMARK    9  A    between atoms: C_19  and  O_20
REMARK                            x       y       z     vdW  Elec       q    Type
REMARK                         _______ _______ _______ _____ _____    ______ ____
ROOT
ATOM      1  C   UNL     1       7.254   8.159  17.436  0.00  0.00    +0.000 C 
ENDROOT
BRANCH   1   2
ATOM      2  C   UNL     1       7.444   6.672  17.118  0.00  0.00    +0.000 C 
BRANCH   2   3
ATOM      3  N   UNL     1       6.321   6.079  16.383  0.00  0.00    +0.000 NA
ATOM      4  H   UNL     1       5.578   6.775  16.303  0.00  0.00    +0.000 HD
BRANCH   3   5
ATOM      5  C   UNL     1       5.781   4.893  17.054  0.00  0.00    +0.000 C 
BRANCH   5  13
ATOM      6  C   UNL     1       3.711   4.226  18.487  0.00  0.00    +0.000 A 
ATOM      7  C   UNL     1       2.564   4.709  19.164  0.00  0.00    +0.000 A 
ATOM      8 BR   UNL     1       1.537   3.733  20.447  0.00  0.00    +0.000 Br
ATOM      9  C   UNL     1       2.103   6.024  18.983  0.00  0.00    +0.000 A 
ATOM     10  C   UNL     1       2.788   6.903  18.161  0.00  0.00    +0.000 A 
ATOM     11 BR   UNL     1       2.171   8.676  17.947  0.00  0.00    +0.000 Br
ATOM     12  C   UNL     1       3.952   6.496  17.534  0.00  0.00    +0.000 A 
ATOM     13  C   UNL     1       4.442   5.183  17.714  0.00  0.00    +0.000 A 
BRANCH   6  15
ATOM     14  C   UNL     1       3.608   1.743  18.118  0.00  0.00    +0.000 C 
ATOM     15  N   UNL     1       4.266   2.939  18.619  0.00  0.00    +0.000 N 
ATOM     16  H   UNL     1       5.230   2.939  18.291  0.00  0.00    +0.000 HD
ENDBRANCH   6  15
ENDBRANCH   5  13
ENDBRANCH   3   5
ENDBRANCH   2   3
ENDBRANCH   1   2
BRANCH   1  17
ATOM     17  C   UNL     1       8.359   8.658  18.360  0.00  0.00    +0.000 C 
BRANCH  17  18
ATOM     18  N   UNL     1       8.999   9.840  17.809  0.00  0.00    +0.000 N 
ATOM     19  C   UNL     1       9.150  10.942  18.645  0.00  0.00    +0.000 A 
ATOM     20  C   UNL     1       9.414  10.817  19.998  0.00  0.00    +0.000 A 
ATOM     21  C   UNL     1       9.622  11.960  20.752  0.00  0.00    +0.000 A 
ATOM     22  C   UNL     1       9.616  13.217  20.146  0.00  0.00    +0.000 A 
ATOM     23  C   UNL     1       9.882  14.408  20.854  0.00  0.00    +0.000 A 
ATOM     24  C   UNL     1       9.896  15.633  20.197  0.00  0.00    +0.000 A 
ATOM     25  C   UNL     1       9.628  15.678  18.835  0.00  0.00    +0.000 A 
ATOM     26  C   UNL     1       9.352  14.497  18.139  0.00  0.00    +0.000 A 
ATOM     27  C   UNL     1       9.344  13.255  18.766  0.00  0.00    +0.000 A 
ATOM     28  N   UNL     1       9.106  12.142  18.042  0.00  0.00    +0.000 NA
ATOM     29  H   UNL     1       8.621  10.191  16.929  0.00  0.00    +0.000 HD
BRANCH  21  30
ATOM     30  O   UNL     1       9.863  11.854  22.099  0.00  0.00    +0.000 OA
ATOM     31  H   UNL     1       9.885  12.744  22.489  0.00  0.00    +0.000 HD
ENDBRANCH  21  30
ENDBRANCH  17  18
ENDBRANCH   1  17
TORSDOF 8
ENDMDL
MODEL 9
REMARK VINA RESULT:      -7.2      6.420      9.494
REMARK  Name = 
REMARK  9 active torsions:
REMARK  status: ('A' for Active; 'I' for Inactive)
REMARK    1  A    between atoms: C_1  and  N_2
REMARK    2  A    between atoms: N_2  and  C_3
REMARK    3  A    between atoms: C_10  and  C_11
REMARK    4  A    between atoms: C_11  and  N_12
REMARK    5  A    between atoms: N_12  and  C_13
REMARK    6  A    between atoms: C_13  and  C_14
REMARK    7  A    between atoms: C_14  and  C_15
REMARK    8  A    between atoms: C_15  and  N_16
REMARK    9  A    between atoms: C_19  and  O_20
REMARK                            x       y       z     vdW  Elec       q    Type
REMARK                         _______ _______ _______ _____ _____    ______ ____
ROOT
ATOM      1  C   UNL     1       1.218   8.744  21.541  0.00  0.00    +0.000 C 
ENDROOT
BRANCH   1   2
ATOM      2  C   UNL     1       0.220   9.531  20.685  0.00  0.00    +0.000 C 
BRANCH   2   3
ATOM      3  N   UNL     1       0.856  10.379  19.669  0.00  0.00    +0.000 NA
ATOM      4  H   UNL     1       1.840  10.501  19.913  0.00  0.00    +0.000 HD
BRANCH   3   5
ATOM      5  C   UNL     1       0.231  11.702  19.577  0.00  0.00    +0.000 C 
BRANCH   5  13
ATOM      6  C   UNL     1      -2.319  12.141  19.878  0.00  0.00    +0.000 A 
ATOM      7  C   UNL     1      -3.585  12.109  19.242  0.00  0.00    +0.000 A 
ATOM      8 BR   UNL     1      -5.173  12.954  19.885  0.00  0.00    +0.000 Br
ATOM      9  C   UNL     1      -3.769  11.473  18.002  0.00  0.00    +0.000 A 
ATOM     10  C   UNL     1      -2.698  10.891  17.344  0.00  0.00    +0.000 A 
ATOM     11 BR   UNL     1      -2.955  10.063  15.666  0.00  0.00    +0.000 Br
ATOM     12  C   UNL     1      -1.430  10.960  17.893  0.00  0.00    +0.000 A 
ATOM     13  C   UNL     1      -1.220  11.607  19.132  0.00  0.00    +0.000 A 
BRANCH   6  15
ATOM     14  C   UNL     1      -2.251  12.132  22.389  0.00  0.00    +0.000 C 
ATOM     15  N   UNL     1      -2.026  12.771  21.102  0.00  0.00    +0.000 N 
ATOM     16  H   UNL     1      -1.078  13.142  21.086  0.00  0.00    +0.000 HD
ENDBRANCH   6  15
ENDBRANCH   5  13
ENDBRANCH   3   5
ENDBRANCH   2   3
ENDBRANCH   1   2
BRANCH   1  17
ATOM     17  C   UNL     1       1.596   7.434  20.859  0.00  0.00    +0.000 C 
BRANCH  17  18
ATOM     18  N   UNL     1       1.998   7.664  19.483  0.00  0.00    +0.000 N 
ATOM     19  C   UNL     1       2.684   6.644  18.831  0.00  0.00    +0.000 A 
ATOM     20  C   UNL     1       2.413   5.305  19.054  0.00  0.00    +0.000 A 
ATOM     21  C   UNL     1       3.089   4.348  18.315  0.00  0.00    +0.000 A 
ATOM     22  C   UNL     1       3.994   4.731  17.324  0.00  0.00    +0.000 A 
ATOM     23  C   UNL     1       4.664   3.800  16.501  0.00  0.00    +0.000 A 
ATOM     24  C   UNL     1       5.533   4.234  15.506  0.00  0.00    +0.000 A 
ATOM     25  C   UNL     1       5.750   5.596  15.338  0.00  0.00    +0.000 A 
ATOM     26  C   UNL     1       5.094   6.514  16.164  0.00  0.00    +0.000 A 
ATOM     27  C   UNL     1       4.209   6.112  17.159  0.00  0.00    +0.000 A 
ATOM     28  N   UNL     1       3.576   7.039  17.906  0.00  0.00    +0.000 NA
ATOM     29  H   UNL     1       2.512   8.525  19.299  0.00  0.00    +0.000 HD
BRANCH  21  30
ATOM     30  O   UNL     1       2.846   3.016  18.540  0.00  0.00    +0.000 OA
ATOM     31  H   UNL     1       1.927   2.907  18.837  0.00  0.00    +0.000 HD
ENDBRANCH  21  30
ENDBRANCH  17  18
ENDBRANCH   1  17
TORSDOF 8
ENDMDL
