MODEL 1
REMARK VINA RESULT:      -8.5      0.000      0.000
REMARK  Name = 
REMARK  5 active torsions:
REMARK  status: ('A' for Active; 'I' for Inactive)
REMARK    1  A    between atoms: C_1  and  C_2
REMARK    2  A    between atoms: N_14  and  C_15
REMARK    3  A    between atoms: C_15  and  C_16
REMARK    4  A    between atoms: N_18  and  C_19
REMARK    5  A    between atoms: C_23  and  C_24
REMARK                            x       y       z     vdW  Elec       q    Type
REMARK                         _______ _______ _______ _____ _____    ______ ____
ROOT
ATOM      1  C   UNL     1      -1.544  12.302  22.882  0.00  0.00    +0.000 C 
ATOM      2  C   UNL     1      -3.029  12.448  22.965  0.00  0.00    +0.000 C 
ATOM      3  O   UNL     1      -3.577  12.044  23.999  0.00  0.00    +0.000 OA
ATOM      4  N   UNL     1      -3.767  12.924  21.887  0.00  0.00    +0.000 N 
ATOM      5  C   UNL     1      -5.033  13.500  22.165  0.00  0.00    +0.000 C 
ATOM      6  S   UNL     1      -5.514  14.493  23.412  0.00  0.00    +0.000 S 
ATOM      7  N   UNL     1      -5.909  13.142  21.178  0.00  0.00    +0.000 N 
ATOM      8  C   UNL     1      -5.331  12.236  20.346  0.00  0.00    +0.000 C 
ATOM      9  O   UNL     1      -5.933  11.410  19.688  0.00  0.00    +0.000 OA
ATOM     10  C   UNL     1      -3.859  12.337  20.608  0.00  0.00    +0.000 C 
ATOM     11  C   UNL     1      -2.958  11.974  19.675  0.00  0.00    +0.000 C 
ATOM     12  C   UNL     1      -1.472  12.108  19.791  0.00  0.00    +0.000 C 
ATOM     13  O   UNL     1      -0.859  12.956  20.401  0.00  0.00    +0.000 OA
ATOM     14  N   UNL     1      -0.939  11.167  18.912  0.00  0.00    +0.000 N 
ATOM     15  C   UNL     1      -1.902  10.883  17.924  0.00  0.00    +0.000 A 
ATOM     16  C   UNL     1      -1.697  10.349  16.660  0.00  0.00    +0.000 A 
ATOM     17  C   UNL     1      -2.760  10.362  15.756  0.00  0.00    +0.000 A 
ATOM     18  C   UNL     1      -3.998  10.901  16.126  0.00  0.00    +0.000 A 
ATOM     19  C   UNL     1      -4.193  11.430  17.405  0.00  0.00    +0.000 A 
ATOM     20  C   UNL     1      -3.152  11.392  18.322  0.00  0.00    +0.000 A 
ATOM     21  H   UNL     1      -6.912  13.228  21.283  0.00  0.00    +0.000 HD
ENDROOT
BRANCH  14  22
ATOM     22  C   UNL     1       0.491  11.018  18.742  0.00  0.00    +0.000 C 
BRANCH  22  23
ATOM     23  C   UNL     1       1.048   9.597  18.930  0.00  0.00    +0.000 C 
ATOM     24  O   UNL     1       0.888   9.054  20.024  0.00  0.00    +0.000 OA
ATOM     25  N   UNL     1       1.784   9.065  17.877  0.00  0.00    +0.000 N 
ATOM     26  H   UNL     1       2.006   9.695  17.117  0.00  0.00    +0.000 HD
BRANCH  25  27
ATOM     27  C   UNL     1       2.438   7.806  17.887  0.00  0.00    +0.000 A 
ATOM     28  C   UNL     1       3.812   7.661  17.670  0.00  0.00    +0.000 A 
ATOM     29  C   UNL     1       4.396   6.397  17.569  0.00  0.00    +0.000 A 
ATOM     30  C   UNL     1       3.614   5.254  17.688  0.00  0.00    +0.000 A 
ATOM     31  C   UNL     1       2.244   5.368  17.948  0.00  0.00    +0.000 A 
ATOM     32  C   UNL     1       1.402   4.129  18.061  0.00  0.00    +0.000 C 
ATOM     33  C   UNL     1       1.670   6.647  18.082  0.00  0.00    +0.000 A 
ENDBRANCH  25  27
ENDBRANCH  22  23
ENDBRANCH  14  22
TORSDOF 3
ENDMDL
MODEL 2
REMARK VINA RESULT:      -8.4      0.825      1.247
REMARK  Name = 
REMARK  5 active torsions:
REMARK  status: ('A' for Active; 'I' for Inactive)
REMARK    1  A    between atoms: C_1  and  C_2
REMARK    2  A    between atoms: N_14  and  C_15
REMARK    3  A    between atoms: C_15  and  C_16
REMARK    4  A    between atoms: N_18  and  C_19
REMARK    5  A    between atoms: C_23  and  C_24
REMARK                            x       y       z     vdW  Elec       q    Type
REMARK                         _______ _______ _______ _____ _____    ______ ____
ROOT
ATOM      1  C   UNL     1      -1.538  12.716  22.957  0.00  0.00    +0.000 C 
ATOM      2  C   UNL     1      -3.021  12.836  23.095  0.00  0.00    +0.000 C 
ATOM      3  O   UNL     1      -3.519  12.462  24.164  0.00  0.00    +0.000 OA
ATOM      4  N   UNL     1      -3.812  13.258  22.031  0.00  0.00    +0.000 N 
ATOM      5  C   UNL     1      -5.077  13.819  22.340  0.00  0.00    +0.000 C 
ATOM      6  S   UNL     1      -5.527  14.849  23.568  0.00  0.00    +0.000 S 
ATOM      7  N   UNL     1      -5.985  13.408  21.403  0.00  0.00    +0.000 N 
ATOM      8  C   UNL     1      -5.422  12.482  20.582  0.00  0.00    +0.000 C 
ATOM      9  O   UNL     1      -6.033  11.621  19.980  0.00  0.00    +0.000 OA
ATOM     10  C   UNL     1      -3.943  12.621  20.779  0.00  0.00    +0.000 C 
ATOM     11  C   UNL     1      -3.074  12.240  19.825  0.00  0.00    +0.000 C 
ATOM     12  C   UNL     1      -1.587  12.407  19.874  0.00  0.00    +0.000 C 
ATOM     13  O   UNL     1      -0.967  13.289  20.427  0.00  0.00    +0.000 OA
ATOM     14  N   UNL     1      -1.071  11.444  19.009  0.00  0.00    +0.000 N 
ATOM     15  C   UNL     1      -2.067  11.105  18.073  0.00  0.00    +0.000 A 
ATOM     16  C   UNL     1      -1.902  10.528  16.821  0.00  0.00    +0.000 A 
ATOM     17  C   UNL     1      -3.001  10.486  15.962  0.00  0.00    +0.000 A 
ATOM     18  C   UNL     1      -4.233  11.015  16.362  0.00  0.00    +0.000 A 
ATOM     19  C   UNL     1      -4.387  11.589  17.629  0.00  0.00    +0.000 A 
ATOM     20  C   UNL     1      -3.310  11.604  18.503  0.00  0.00    +0.000 A 
ATOM     21  H   UNL     1      -6.984  13.479  21.546  0.00  0.00    +0.000 HD
ENDROOT
BRANCH  14  22
ATOM     22  C   UNL     1       0.354  11.316  18.786  0.00  0.00    +0.000 C 
BRANCH  22  23
ATOM     23  C   UNL     1       0.985   9.979  19.210  0.00  0.00    +0.000 C 
ATOM     24  O   UNL     1       0.985   9.694  20.409  0.00  0.00    +0.000 OA
ATOM     25  N   UNL     1       1.603   9.232  18.214  0.00  0.00    +0.000 N 
ATOM     26  H   UNL     1       1.703   9.676  17.311  0.00  0.00    +0.000 HD
BRANCH  25  27
ATOM     27  C   UNL     1       2.303   8.013  18.416  0.00  0.00    +0.000 A 
ATOM     28  C   UNL     1       2.105   7.201  19.538  0.00  0.00    +0.000 A 
ATOM     29  C   UNL     1       2.899   6.073  19.759  0.00  0.00    +0.000 A 
ATOM     30  C   UNL     1       3.900   5.735  18.856  0.00  0.00    +0.000 A 
ATOM     31  C   UNL     1       4.092   6.505  17.703  0.00  0.00    +0.000 A 
ATOM     32  C   UNL     1       5.185   6.142  16.739  0.00  0.00    +0.000 C 
ATOM     33  C   UNL     1       3.264   7.621  17.472  0.00  0.00    +0.000 A 
ENDBRANCH  25  27
ENDBRANCH  22  23
ENDBRANCH  14  22
TORSDOF 3
ENDMDL
MODEL 3
REMARK VINA RESULT:      -8.4      1.615      2.217
REMARK  Name = 
REMARK  5 active torsions:
REMARK  status: ('A' for Active; 'I' for Inactive)
REMARK    1  A    between atoms: C_1  and  C_2
REMARK    2  A    between atoms: N_14  and  C_15
REMARK    3  A    between atoms: C_15  and  C_16
REMARK    4  A    between atoms: N_18  and  C_19
REMARK    5  A    between atoms: C_23  and  C_24
REMARK                            x       y       z     vdW  Elec       q    Type
REMARK                         _______ _______ _______ _____ _____    ______ ____
ROOT
ATOM      1  C   UNL     1      -2.908  13.154  23.440  0.00  0.00    +0.000 C 
ATOM      2  C   UNL     1      -4.351  12.771  23.518  0.00  0.00    +0.000 C 
ATOM      3  O   UNL     1      -4.718  12.164  24.532  0.00  0.00    +0.000 OA
ATOM      4  N   UNL     1      -5.215  13.001  22.452  0.00  0.00    +0.000 N 
ATOM      5  C   UNL     1      -6.601  13.090  22.743  0.00  0.00    +0.000 C 
ATOM      6  S   UNL     1      -7.388  13.807  24.022  0.00  0.00    +0.000 S 
ATOM      7  N   UNL     1      -7.304  12.487  21.737  0.00  0.00    +0.000 N 
ATOM      8  C   UNL     1      -6.452  11.870  20.876  0.00  0.00    +0.000 C 
ATOM      9  O   UNL     1      -6.733  10.912  20.184  0.00  0.00    +0.000 OA
ATOM     10  C   UNL     1      -5.105  12.467  21.152  0.00  0.00    +0.000 C 
ATOM     11  C   UNL     1      -4.141  12.474  20.213  0.00  0.00    +0.000 C 
ATOM     12  C   UNL     1      -2.792  13.112  20.344  0.00  0.00    +0.000 C 
ATOM     13  O   UNL     1      -2.509  14.096  20.990  0.00  0.00    +0.000 OA
ATOM     14  N   UNL     1      -1.972  12.448  19.435  0.00  0.00    +0.000 N 
ATOM     15  C   UNL     1      -2.782  11.884  18.430  0.00  0.00    +0.000 A 
ATOM     16  C   UNL     1      -2.411  11.502  17.148  0.00  0.00    +0.000 A 
ATOM     17  C   UNL     1      -3.418  11.178  16.238  0.00  0.00    +0.000 A 
ATOM     18  C   UNL     1      -4.764  11.239  16.619  0.00  0.00    +0.000 A 
ATOM     19  C   UNL     1      -5.123  11.620  17.916  0.00  0.00    +0.000 A 
ATOM     20  C   UNL     1      -4.128  11.911  18.838  0.00  0.00    +0.000 A 
ATOM     21  H   UNL     1      -8.273  12.216  21.838  0.00  0.00    +0.000 HD
ENDROOT
BRANCH  14  22
ATOM     22  C   UNL     1      -0.580  12.811  19.270  0.00  0.00    +0.000 C 
BRANCH  22  23
ATOM     23  C   UNL     1       0.443  11.686  19.499  0.00  0.00    +0.000 C 
ATOM     24  O   UNL     1       1.629  11.998  19.610  0.00  0.00    +0.000 OA
ATOM     25  N   UNL     1      -0.038  10.382  19.461  0.00  0.00    +0.000 N 
ATOM     26  H   UNL     1      -0.997  10.262  19.164  0.00  0.00    +0.000 HD
BRANCH  25  27
ATOM     27  C   UNL     1       0.756   9.211  19.576  0.00  0.00    +0.000 A 
ATOM     28  C   UNL     1       0.818   8.446  20.745  0.00  0.00    +0.000 A 
ATOM     29  C   UNL     1       1.702   7.371  20.856  0.00  0.00    +0.000 A 
ATOM     30  C   UNL     1       2.536   7.039  19.794  0.00  0.00    +0.000 A 
ATOM     31  C   UNL     1       2.466   7.760  18.597  0.00  0.00    +0.000 A 
ATOM     32  C   UNL     1       3.380   7.405  17.460  0.00  0.00    +0.000 C 
ATOM     33  C   UNL     1       1.546   8.822  18.483  0.00  0.00    +0.000 A 
ENDBRANCH  25  27
ENDBRANCH  22  23
ENDBRANCH  14  22
TORSDOF 3
ENDMDL
MODEL 4
REMARK VINA RESULT:      -8.1      1.702      2.091
REMARK  Name = 
REMARK  5 active torsions:
REMARK  status: ('A' for Active; 'I' for Inactive)
REMARK    1  A    between atoms: C_1  and  C_2
REMARK    2  A    between atoms: N_14  and  C_15
REMARK    3  A    between atoms: C_15  and  C_16
REMARK    4  A    between atoms: N_18  and  C_19
REMARK    5  A    between atoms: C_23  and  C_24
REMARK                            x       y       z     vdW  Elec       q    Type
REMARK                         _______ _______ _______ _____ _____    ______ ____
ROOT
ATOM      1  C   UNL     1      -3.269  13.166  23.788  0.00  0.00    +0.000 C 
ATOM      2  C   UNL     1      -4.708  12.782  23.664  0.00  0.00    +0.000 C 
ATOM      3  O   UNL     1      -5.209  12.163  24.612  0.00  0.00    +0.000 OA
ATOM      4  N   UNL     1      -5.420  13.023  22.494  0.00  0.00    +0.000 N 
ATOM      5  C   UNL     1      -6.832  13.108  22.594  0.00  0.00    +0.000 C 
ATOM      6  S   UNL     1      -7.788  13.810  23.762  0.00  0.00    +0.000 S 
ATOM      7  N   UNL     1      -7.391  12.516  21.495  0.00  0.00    +0.000 N 
ATOM      8  C   UNL     1      -6.428  11.908  20.752  0.00  0.00    +0.000 C 
ATOM      9  O   UNL     1      -6.610  10.958  20.017  0.00  0.00    +0.000 OA
ATOM     10  C   UNL     1      -5.132  12.503  21.215  0.00  0.00    +0.000 C 
ATOM     11  C   UNL     1      -4.049  12.521  20.416  0.00  0.00    +0.000 C 
ATOM     12  C   UNL     1      -2.733  13.159  20.736  0.00  0.00    +0.000 C 
ATOM     13  O   UNL     1      -2.542  14.136  21.425  0.00  0.00    +0.000 OA
ATOM     14  N   UNL     1      -1.795  12.506  19.940  0.00  0.00    +0.000 N 
ATOM     15  C   UNL     1      -2.459  11.953  18.828  0.00  0.00    +0.000 A 
ATOM     16  C   UNL     1      -1.917  11.585  17.605  0.00  0.00    +0.000 A 
ATOM     17  C   UNL     1      -2.790  11.271  16.562  0.00  0.00    +0.000 A 
ATOM     18  C   UNL     1      -4.175  11.327  16.757  0.00  0.00    +0.000 A 
ATOM     19  C   UNL     1      -4.708  11.692  17.997  0.00  0.00    +0.000 A 
ATOM     20  C   UNL     1      -3.849  11.974  19.049  0.00  0.00    +0.000 A 
ATOM     21  H   UNL     1      -8.364  12.242  21.460  0.00  0.00    +0.000 HD
ENDROOT
BRANCH  14  22
ATOM     22  C   UNL     1      -0.394  12.872  19.970  0.00  0.00    +0.000 C 
BRANCH  22  23
ATOM     23  C   UNL     1       0.587  11.834  19.399  0.00  0.00    +0.000 C 
ATOM     24  O   UNL     1       1.344  12.192  18.495  0.00  0.00    +0.000 OA
ATOM     25  N   UNL     1       0.477  10.534  19.879  0.00  0.00    +0.000 N 
ATOM     26  H   UNL     1      -0.317  10.337  20.473  0.00  0.00    +0.000 HD
BRANCH  25  27
ATOM     27  C   UNL     1       1.238   9.425  19.425  0.00  0.00    +0.000 A 
ATOM     28  C   UNL     1       1.832   9.377  18.161  0.00  0.00    +0.000 A 
ATOM     29  C   UNL     1       2.471   8.220  17.708  0.00  0.00    +0.000 A 
ATOM     30  C   UNL     1       2.528   7.092  18.518  0.00  0.00    +0.000 A 
ATOM     31  C   UNL     1       1.980   7.125  19.805  0.00  0.00    +0.000 A 
ATOM     32  C   UNL     1       2.034   5.897  20.668  0.00  0.00    +0.000 C 
ATOM     33  C   UNL     1       1.368   8.308  20.265  0.00  0.00    +0.000 A 
ENDBRANCH  25  27
ENDBRANCH  22  23
ENDBRANCH  14  22
TORSDOF 3
ENDMDL
MODEL 5
REMARK VINA RESULT:      -8.0      2.676      3.471
REMARK  Name = 
REMARK  5 active torsions:
REMARK  status: ('A' for Active; 'I' for Inactive)
REMARK    1  A    between atoms: C_1  and  C_2
REMARK    2  A    between atoms: N_14  and  C_15
REMARK    3  A    between atoms: C_15  and  C_16
REMARK    4  A    between atoms: N_18  and  C_19
REMARK    5  A    between atoms: C_23  and  C_24
REMARK                            x       y       z     vdW  Elec       q    Type
REMARK                         _______ _______ _______ _____ _____    ______ ____
ROOT
ATOM      1  C   UNL     1       2.928  13.591  20.769  0.00  0.00    +0.000 C 
ATOM      2  C   UNL     1       1.842  14.472  21.295  0.00  0.00    +0.000 C 
ATOM      3  O   UNL     1       1.946  14.857  22.467  0.00  0.00    +0.000 OA
ATOM      4  N   UNL     1       0.717  14.763  20.530  0.00  0.00    +0.000 N 
ATOM      5  C   UNL     1      -0.001  15.945  20.847  0.00  0.00    +0.000 C 
ATOM      6  S   UNL     1       0.550  17.454  21.286  0.00  0.00    +0.000 S 
ATOM      7  N   UNL     1      -1.339  15.701  20.708  0.00  0.00    +0.000 N 
ATOM      8  C   UNL     1      -1.551  14.381  20.468  0.00  0.00    +0.000 C 
ATOM      9  O   UNL     1      -2.570  13.777  20.742  0.00  0.00    +0.000 OA
ATOM     10  C   UNL     1      -0.224  13.836  20.035  0.00  0.00    +0.000 C 
ATOM     11  C   UNL     1      -0.139  12.731  19.271  0.00  0.00    +0.000 C 
ATOM     12  C   UNL     1       1.119  12.144  18.711  0.00  0.00    +0.000 C 
ATOM     13  O   UNL     1       2.122  12.741  18.386  0.00  0.00    +0.000 OA
ATOM     14  N   UNL     1       0.838  10.801  18.477  0.00  0.00    +0.000 N 
ATOM     15  C   UNL     1      -0.555  10.656  18.325  0.00  0.00    +0.000 A 
ATOM     16  C   UNL     1      -1.244   9.629  17.696  0.00  0.00    +0.000 A 
ATOM     17  C   UNL     1      -2.609   9.796  17.459  0.00  0.00    +0.000 A 
ATOM     18  C   UNL     1      -3.257  10.973  17.850  0.00  0.00    +0.000 A 
ATOM     19  C   UNL     1      -2.552  11.998  18.489  0.00  0.00    +0.000 A 
ATOM     20  C   UNL     1      -1.202  11.828  18.760  0.00  0.00    +0.000 A 
ATOM     21  H   UNL     1      -2.046  16.307  21.104  0.00  0.00    +0.000 HD
ENDROOT
BRANCH  14  22
ATOM     22  C   UNL     1       1.829   9.909  17.913  0.00  0.00    +0.000 C 
BRANCH  22  23
ATOM     23  C   UNL     1       1.990   8.550  18.615  0.00  0.00    +0.000 C 
ATOM     24  O   UNL     1       1.637   8.462  19.792  0.00  0.00    +0.000 OA
ATOM     25  N   UNL     1       2.620   7.541  17.895  0.00  0.00    +0.000 N 
ATOM     26  H   UNL     1       3.037   7.807  17.013  0.00  0.00    +0.000 HD
BRANCH  25  27
ATOM     27  C   UNL     1       2.927   6.247  18.392  0.00  0.00    +0.000 A 
ATOM     28  C   UNL     1       4.178   5.911  18.917  0.00  0.00    +0.000 A 
ATOM     29  C   UNL     1       4.476   4.597  19.284  0.00  0.00    +0.000 A 
ATOM     30  C   UNL     1       3.523   3.596  19.135  0.00  0.00    +0.000 A 
ATOM     31  C   UNL     1       2.248   3.911  18.652  0.00  0.00    +0.000 A 
ATOM     32  C   UNL     1       1.227   2.822  18.481  0.00  0.00    +0.000 C 
ATOM     33  C   UNL     1       1.945   5.246  18.317  0.00  0.00    +0.000 A 
ENDBRANCH  25  27
ENDBRANCH  22  23
ENDBRANCH  14  22
TORSDOF 3
ENDMDL
MODEL 6
REMARK VINA RESULT:      -7.9      2.892      4.533
REMARK  Name = 
REMARK  5 active torsions:
REMARK  status: ('A' for Active; 'I' for Inactive)
REMARK    1  A    between atoms: C_1  and  C_2
REMARK    2  A    between atoms: N_14  and  C_15
REMARK    3  A    between atoms: C_15  and  C_16
REMARK    4  A    between atoms: N_18  and  C_19
REMARK    5  A    between atoms: C_23  and  C_24
REMARK                            x       y       z     vdW  Elec       q    Type
REMARK                         _______ _______ _______ _____ _____    ______ ____
ROOT
ATOM      1  C   UNL     1      -2.628  12.344  22.861  0.00  0.00    +0.000 C 
ATOM      2  C   UNL     1      -4.064  12.700  22.653  0.00  0.00    +0.000 C 
ATOM      3  O   UNL     1      -4.846  12.450  23.579  0.00  0.00    +0.000 OA
ATOM      4  N   UNL     1      -4.514  13.196  21.434  0.00  0.00    +0.000 N 
ATOM      5  C   UNL     1      -5.710  13.959  21.440  0.00  0.00    +0.000 C 
ATOM      6  S   UNL     1      -6.256  15.095  22.528  0.00  0.00    +0.000 S 
ATOM      7  N   UNL     1      -6.434  13.657  20.320  0.00  0.00    +0.000 N 
ATOM      8  C   UNL     1      -5.856  12.623  19.655  0.00  0.00    +0.000 C 
ATOM      9  O   UNL     1      -6.444  11.844  18.930  0.00  0.00    +0.000 OA
ATOM     10  C   UNL     1      -4.458  12.538  20.188  0.00  0.00    +0.000 C 
ATOM     11  C   UNL     1      -3.467  11.989  19.461  0.00  0.00    +0.000 C 
ATOM     12  C   UNL     1      -2.023  11.924  19.851  0.00  0.00    +0.000 C 
ATOM     13  O   UNL     1      -1.413  12.720  20.530  0.00  0.00    +0.000 OA
ATOM     14  N   UNL     1      -1.485  10.859  19.132  0.00  0.00    +0.000 N 
ATOM     15  C   UNL     1      -2.283  10.641  17.992  0.00  0.00    +0.000 A 
ATOM     16  C   UNL     1      -1.933   9.996  16.815  0.00  0.00    +0.000 A 
ATOM     17  C   UNL     1      -2.799  10.091  15.725  0.00  0.00    +0.000 A 
ATOM     18  C   UNL     1      -3.989  10.821  15.828  0.00  0.00    +0.000 A 
ATOM     19  C   UNL     1      -4.333  11.461  17.023  0.00  0.00    +0.000 A 
ATOM     20  C   UNL     1      -3.495  11.344  18.122  0.00  0.00    +0.000 A 
ATOM     21  H   UNL     1      -7.415  13.888  20.228  0.00  0.00    +0.000 HD
ENDROOT
BRANCH  14  22
ATOM     22  C   UNL     1      -0.087  10.502  19.245  0.00  0.00    +0.000 C 
BRANCH  22  23
ATOM     23  C   UNL     1       0.891  11.667  19.468  0.00  0.00    +0.000 C 
ATOM     24  O   UNL     1       1.473  11.734  20.552  0.00  0.00    +0.000 OA
ATOM     25  N   UNL     1       0.972  12.622  18.460  0.00  0.00    +0.000 N 
ATOM     26  H   UNL     1       0.294  12.550  17.714  0.00  0.00    +0.000 HD
BRANCH  25  27
ATOM     27  C   UNL     1       1.757  13.804  18.511  0.00  0.00    +0.000 A 
ATOM     28  C   UNL     1       1.212  15.069  18.747  0.00  0.00    +0.000 A 
ATOM     29  C   UNL     1       2.000  16.219  18.669  0.00  0.00    +0.000 A 
ATOM     30  C   UNL     1       3.352  16.120  18.360  0.00  0.00    +0.000 A 
ATOM     31  C   UNL     1       3.934  14.864  18.161  0.00  0.00    +0.000 A 
ATOM     32  C   UNL     1       5.392  14.765  17.813  0.00  0.00    +0.000 C 
ATOM     33  C   UNL     1       3.138  13.707  18.275  0.00  0.00    +0.000 A 
ENDBRANCH  25  27
ENDBRANCH  22  23
ENDBRANCH  14  22
TORSDOF 3
ENDMDL
MODEL 7
REMARK VINA RESULT:      -7.9      1.124      1.142
REMARK  Name = 
REMARK  5 active torsions:
REMARK  status: ('A' for Active; 'I' for Inactive)
REMARK    1  A    between atoms: C_1  and  C_2
REMARK    2  A    between atoms: N_14  and  C_15
REMARK    3  A    between atoms: C_15  and  C_16
REMARK    4  A    between atoms: N_18  and  C_19
REMARK    5  A    between atoms: C_23  and  C_24
REMARK                            x       y       z     vdW  Elec       q    Type
REMARK                         _______ _______ _______ _____ _____    ______ ____
ROOT
ATOM      1  C   UNL     1      -1.856  12.277  22.963  0.00  0.00    +0.000 C 
ATOM      2  C   UNL     1      -3.335  12.399  23.138  0.00  0.00    +0.000 C 
ATOM      3  O   UNL     1      -3.825  11.899  24.159  0.00  0.00    +0.000 OA
ATOM      4  N   UNL     1      -4.134  12.961  22.147  0.00  0.00    +0.000 N 
ATOM      5  C   UNL     1      -5.386  13.496  22.543  0.00  0.00    +0.000 C 
ATOM      6  S   UNL     1      -5.805  14.368  23.898  0.00  0.00    +0.000 S 
ATOM      7  N   UNL     1      -6.312  13.218  21.576  0.00  0.00    +0.000 N 
ATOM      8  C   UNL     1      -5.774  12.396  20.636  0.00  0.00    +0.000 C 
ATOM      9  O   UNL     1      -6.405  11.626  19.940  0.00  0.00    +0.000 OA
ATOM     10  C   UNL     1      -4.291  12.489  20.828  0.00  0.00    +0.000 C 
ATOM     11  C   UNL     1      -3.440  12.221  19.820  0.00  0.00    +0.000 C 
ATOM     12  C   UNL     1      -1.950  12.360  19.867  0.00  0.00    +0.000 C 
ATOM     13  O   UNL     1      -1.310  13.157  20.518  0.00  0.00    +0.000 OA
ATOM     14  N   UNL     1      -1.460  11.507  18.881  0.00  0.00    +0.000 N 
ATOM     15  C   UNL     1      -2.473  11.302  17.924  0.00  0.00    +0.000 A 
ATOM     16  C   UNL     1      -2.332  10.885  16.608  0.00  0.00    +0.000 A 
ATOM     17  C   UNL     1      -3.443  10.967  15.766  0.00  0.00    +0.000 A 
ATOM     18  C   UNL     1      -4.662  11.457  16.248  0.00  0.00    +0.000 A 
ATOM     19  C   UNL     1      -4.791  11.868  17.579  0.00  0.00    +0.000 A 
ATOM     20  C   UNL     1      -3.703  11.759  18.432  0.00  0.00    +0.000 A 
ATOM     21  H   UNL     1      -7.308  13.284  21.741  0.00  0.00    +0.000 HD
ENDROOT
BRANCH  14  22
ATOM     22  C   UNL     1      -0.040  11.389  18.623  0.00  0.00    +0.000 C 
BRANCH  22  23
ATOM     23  C   UNL     1       0.476   9.971  18.325  0.00  0.00    +0.000 C 
ATOM     24  O   UNL     1      -0.163   9.279  17.531  0.00  0.00    +0.000 OA
ATOM     25  N   UNL     1       1.576   9.536  19.056  0.00  0.00    +0.000 N 
ATOM     26  H   UNL     1       1.880  10.132  19.814  0.00  0.00    +0.000 HD
BRANCH  25  27
ATOM     27  C   UNL     1       2.152   8.241  18.979  0.00  0.00    +0.000 A 
ATOM     28  C   UNL     1       2.949   7.826  17.908  0.00  0.00    +0.000 A 
ATOM     29  C   UNL     1       3.397   6.506  17.812  0.00  0.00    +0.000 A 
ATOM     30  C   UNL     1       3.057   5.580  18.792  0.00  0.00    +0.000 A 
ATOM     31  C   UNL     1       2.296   5.978  19.898  0.00  0.00    +0.000 A 
ATOM     32  C   UNL     1       1.921   4.969  20.945  0.00  0.00    +0.000 C 
ATOM     33  C   UNL     1       1.878   7.319  20.002  0.00  0.00    +0.000 A 
ENDBRANCH  25  27
ENDBRANCH  22  23
ENDBRANCH  14  22
TORSDOF 3
ENDMDL
MODEL 8
REMARK VINA RESULT:      -7.8      2.981      4.658
REMARK  Name = 
REMARK  5 active torsions:
REMARK  status: ('A' for Active; 'I' for Inactive)
REMARK    1  A    between atoms: C_1  and  C_2
REMARK    2  A    between atoms: N_14  and  C_15
REMARK    3  A    between atoms: C_15  and  C_16
REMARK    4  A    between atoms: N_18  and  C_19
REMARK    5  A    between atoms: C_23  and  C_24
REMARK                            x       y       z     vdW  Elec       q    Type
REMARK                         _______ _______ _______ _____ _____    ______ ____
ROOT
ATOM      1  C   UNL     1      -3.013  12.462  22.805  0.00  0.00    +0.000 C 
ATOM      2  C   UNL     1      -4.417  12.849  22.472  0.00  0.00    +0.000 C 
ATOM      3  O   UNL     1      -5.279  12.640  23.335  0.00  0.00    +0.000 OA
ATOM      4  N   UNL     1      -4.752  13.329  21.210  0.00  0.00    +0.000 N 
ATOM      5  C   UNL     1      -5.922  14.123  21.102  0.00  0.00    +0.000 C 
ATOM      6  S   UNL     1      -6.525  15.296  22.118  0.00  0.00    +0.000 S 
ATOM      7  N   UNL     1      -6.561  13.815  19.933  0.00  0.00    +0.000 N 
ATOM      8  C   UNL     1      -5.959  12.751  19.338  0.00  0.00    +0.000 C 
ATOM      9  O   UNL     1      -6.506  11.972  18.584  0.00  0.00    +0.000 OA
ATOM     10  C   UNL     1      -4.611  12.642  19.986  0.00  0.00    +0.000 C 
ATOM     11  C   UNL     1      -3.580  12.052  19.355  0.00  0.00    +0.000 C 
ATOM     12  C   UNL     1      -2.175  11.959  19.864  0.00  0.00    +0.000 C 
ATOM     13  O   UNL     1      -1.601  12.754  20.575  0.00  0.00    +0.000 OA
ATOM     14  N   UNL     1      -1.610  10.865  19.214  0.00  0.00    +0.000 N 
ATOM     15  C   UNL     1      -2.317  10.642  18.016  0.00  0.00    +0.000 A 
ATOM     16  C   UNL     1      -1.889   9.961  16.885  0.00  0.00    +0.000 A 
ATOM     17  C   UNL     1      -2.661  10.055  15.726  0.00  0.00    +0.000 A 
ATOM     18  C   UNL     1      -3.835  10.817  15.716  0.00  0.00    +0.000 A 
ATOM     19  C   UNL     1      -4.258  11.493  16.865  0.00  0.00    +0.000 A 
ATOM     20  C   UNL     1      -3.516  11.379  18.032  0.00  0.00    +0.000 A 
ATOM     21  H   UNL     1      -7.524  14.069  19.756  0.00  0.00    +0.000 HD
ENDROOT
BRANCH  14  22
ATOM     22  C   UNL     1      -0.236  10.474  19.449  0.00  0.00    +0.000 C 
BRANCH  22  23
ATOM     23  C   UNL     1       0.785  11.621  19.542  0.00  0.00    +0.000 C 
ATOM     24  O   UNL     1       1.434  11.733  20.583  0.00  0.00    +0.000 OA
ATOM     25  N   UNL     1       0.828  12.513  18.476  0.00  0.00    +0.000 N 
ATOM     26  H   UNL     1       0.103  12.418  17.777  0.00  0.00    +0.000 HD
BRANCH  25  27
ATOM     27  C   UNL     1       1.646  13.671  18.408  0.00  0.00    +0.000 A 
ATOM     28  C   UNL     1       2.992  13.630  18.034  0.00  0.00    +0.000 A 
ATOM     29  C   UNL     1       3.792  14.773  18.096  0.00  0.00    +0.000 A 
ATOM     30  C   UNL     1       3.254  15.980  18.528  0.00  0.00    +0.000 A 
ATOM     31  C   UNL     1       1.899  16.061  18.866  0.00  0.00    +0.000 A 
ATOM     32  C   UNL     1       1.328  17.364  19.346  0.00  0.00    +0.000 C 
ATOM     33  C   UNL     1       1.092  14.910  18.769  0.00  0.00    +0.000 A 
ENDBRANCH  25  27
ENDBRANCH  22  23
ENDBRANCH  14  22
TORSDOF 3
ENDMDL
MODEL 9
REMARK VINA RESULT:      -7.8      1.767      1.995
REMARK  Name = 
REMARK  5 active torsions:
REMARK  status: ('A' for Active; 'I' for Inactive)
REMARK    1  A    between atoms: C_1  and  C_2
REMARK    2  A    between atoms: N_14  and  C_15
REMARK    3  A    between atoms: C_15  and  C_16
REMARK    4  A    between atoms: N_18  and  C_19
REMARK    5  A    between atoms: C_23  and  C_24
REMARK                            x       y       z     vdW  Elec       q    Type
REMARK                         _______ _______ _______ _____ _____    ______ ____
ROOT
ATOM      1  C   UNL     1       1.070  13.649  21.688  0.00  0.00    +0.000 C 
ATOM      2  C   UNL     1      -0.256  14.149  22.162  0.00  0.00    +0.000 C 
ATOM      3  O   UNL     1      -0.407  14.273  23.385  0.00  0.00    +0.000 OA
ATOM      4  N   UNL     1      -1.303  14.368  21.273  0.00  0.00    +0.000 N 
ATOM      5  C   UNL     1      -2.317  15.277  21.670  0.00  0.00    +0.000 C 
ATOM      6  S   UNL     1      -2.207  16.728  22.479  0.00  0.00    +0.000 S 
ATOM      7  N   UNL     1      -3.528  14.803  21.245  0.00  0.00    +0.000 N 
ATOM      8  C   UNL     1      -3.385  13.555  20.726  0.00  0.00    +0.000 C 
ATOM      9  O   UNL     1      -4.257  12.710  20.690  0.00  0.00    +0.000 OA
ATOM     10  C   UNL     1      -1.919  13.404  20.449  0.00  0.00    +0.000 C 
ATOM     11  C   UNL     1      -1.471  12.541  19.519  0.00  0.00    +0.000 C 
ATOM     12  C   UNL     1      -0.045  12.364  19.098  0.00  0.00    +0.000 C 
ATOM     13  O   UNL     1       0.822  13.210  19.081  0.00  0.00    +0.000 OA
ATOM     14  N   UNL     1       0.035  11.080  18.567  0.00  0.00    +0.000 N 
ATOM     15  C   UNL     1      -1.249  10.692  18.138  0.00  0.00    +0.000 A 
ATOM     16  C   UNL     1      -1.581   9.714  17.211  0.00  0.00    +0.000 A 
ATOM     17  C   UNL     1      -2.902   9.648  16.764  0.00  0.00    +0.000 A 
ATOM     18  C   UNL     1      -3.858  10.549  17.245  0.00  0.00    +0.000 A 
ATOM     19  C   UNL     1      -3.511  11.526  18.184  0.00  0.00    +0.000 A 
ATOM     20  C   UNL     1      -2.209  11.578  18.660  0.00  0.00    +0.000 A 
ATOM     21  H   UNL     1      -4.406  15.146  21.613  0.00  0.00    +0.000 HD
ENDROOT
BRANCH  14  22
ATOM     22  C   UNL     1       1.278  10.559  18.037  0.00  0.00    +0.000 C 
BRANCH  22  23
ATOM     23  C   UNL     1       1.673   9.148  18.506  0.00  0.00    +0.000 C 
ATOM     24  O   UNL     1       1.451   8.847  19.680  0.00  0.00    +0.000 OA
ATOM     25  N   UNL     1       2.348   8.347  17.591  0.00  0.00    +0.000 N 
ATOM     26  H   UNL     1       2.640   8.791  16.731  0.00  0.00    +0.000 HD
BRANCH  25  27
ATOM     27  C   UNL     1       2.859   7.050  17.857  0.00  0.00    +0.000 A 
ATOM     28  C   UNL     1       4.227   6.764  17.895  0.00  0.00    +0.000 A 
ATOM     29  C   UNL     1       4.685   5.453  18.041  0.00  0.00    +0.000 A 
ATOM     30  C   UNL     1       3.779   4.405  18.157  0.00  0.00    +0.000 A 
ATOM     31  C   UNL     1       2.405   4.665  18.166  0.00  0.00    +0.000 A 
ATOM     32  C   UNL     1       1.432   3.527  18.277  0.00  0.00    +0.000 C 
ATOM     33  C   UNL     1       1.953   5.995  18.053  0.00  0.00    +0.000 A 
ENDBRANCH  25  27
ENDBRANCH  22  23
ENDBRANCH  14  22
TORSDOF 3
ENDMDL
