MODEL 1
REMARK VINA RESULT:      -6.7      0.000      0.000
REMARK  Name = 
REMARK  4 active torsions:
REMARK  status: ('A' for Active; 'I' for Inactive)
REMARK    1  A    between atoms: C_2  and  OXT_3
REMARK    2  A    between atoms: C_2  and  CA_4
REMARK    3  A    between atoms: N_12  and  C_13
REMARK    4  A    between atoms: N_21  and  C_22
REMARK                            x       y       z     vdW  Elec       q    Type
REMARK                         _______ _______ _______ _____ _____    ______ ____
ROOT
ATOM      1  C   UNL     1      -1.280  13.181  21.360  0.00  0.00    +0.000 C 
ATOM      2  C   UNL     1      -1.507  14.294  20.350  0.00  0.00    +0.000 C 
ATOM      3  C   UNL     1      -0.255  14.570  19.444  0.00  0.00    +0.000 C 
ATOM      4  C   UNL     1       0.383  13.413  18.701  0.00  0.00    +0.000 C 
ATOM      5  C   UNL     1       1.463  12.563  19.381  0.00  0.00    +0.000 C 
ATOM      6  C   UNL     1       1.912  13.017  20.764  0.00  0.00    +0.000 C 
ATOM      7  C   UNL     1       1.189  14.260  21.298  0.00  0.00    +0.000 C 
ATOM      8  C   UNL     1      -0.031  13.755  22.161  0.00  0.00    +0.000 C 
ATOM      9  N   UNL     1       0.757  15.250  20.271  0.00  0.00    +0.000 NA
ENDROOT
BRANCH   1  18
ATOM     10  CA  UNL     1       0.049   9.615  20.948  0.00  0.00    +0.000 A 
ATOM     11  N   UNL     1      -0.263   9.303  19.717  0.00  0.00    +0.000 NA
ATOM     12  C   UNL     1      -1.189  10.109  19.045  0.00  0.00    +0.000 A 
ATOM     13  C   UNL     1      -1.306   9.881  17.669  0.00  0.00    +0.000 A 
ATOM     14  C   UNL     1      -2.104  10.697  16.870  0.00  0.00    +0.000 A 
ATOM     15  C   UNL     1      -2.920  11.633  17.488  0.00  0.00    +0.000 A 
ATOM     16  C   UNL     1      -2.847  11.835  18.884  0.00  0.00    +0.000 A 
ATOM     17  C   UNL     1      -1.835  11.216  19.647  0.00  0.00    +0.000 A 
ATOM     18  N   UNL     1      -1.225  11.752  20.867  0.00  0.00    +0.000 N 
ATOM     19  C   UNL     1      -0.480  10.855  21.636  0.00  0.00    +0.000 A 
ATOM     20  O   UNL     1      -0.150  11.052  22.797  0.00  0.00    +0.000 OA
BRANCH  10  22
ATOM     21  O   UNL     1       1.243   7.529  21.360  0.00  0.00    +0.000 OA
ATOM     22  C   UNL     1       1.104   8.715  21.586  0.00  0.00    +0.000 C 
BRANCH  22  23
ATOM     23  OXT UNL     1       1.866   9.433  22.446  0.00  0.00    +0.000 OA
ATOM     24  HXT UNL     1       2.208   8.839  23.155  0.00  0.00    +0.000 HD
ENDBRANCH  22  23
ENDBRANCH  10  22
ENDBRANCH   1  18
BRANCH   9  25
ATOM     25  C   UNL     1       1.777  16.059  19.468  0.00  0.00    +0.000 C 
ATOM     26  C   UNL     1       1.159  17.245  18.678  0.00  0.00    +0.000 C 
ATOM     27  C   UNL     1       1.847  17.968  17.545  0.00  0.00    +0.000 C 
ATOM     28  C   UNL     1       2.717  17.046  16.734  0.00  0.00    +0.000 C 
ATOM     29  C   UNL     1       3.520  16.110  17.635  0.00  0.00    +0.000 C 
ATOM     30  C   UNL     1       4.506  16.912  18.508  0.00  0.00    +0.000 C 
ATOM     31  C   UNL     1       4.039  17.323  19.905  0.00  0.00    +0.000 C 
ATOM     32  C   UNL     1       2.840  16.585  20.486  0.00  0.00    +0.000 C 
ATOM     33  C   UNL     1       2.583  15.208  18.472  0.00  0.00    +0.000 C 
ENDBRANCH   9  25
TORSDOF 4
ENDMDL
MODEL 2
REMARK VINA RESULT:      -6.7      6.215      8.861
REMARK  Name = 
REMARK  4 active torsions:
REMARK  status: ('A' for Active; 'I' for Inactive)
REMARK    1  A    between atoms: C_2  and  OXT_3
REMARK    2  A    between atoms: C_2  and  CA_4
REMARK    3  A    between atoms: N_12  and  C_13
REMARK    4  A    between atoms: N_21  and  C_22
REMARK                            x       y       z     vdW  Elec       q    Type
REMARK                         _______ _______ _______ _____ _____    ______ ____
ROOT
ATOM      1  C   UNL     1       8.278  16.576  22.811  0.00  0.00    +0.000 C 
ATOM      2  C   UNL     1       8.538  16.893  21.346  0.00  0.00    +0.000 C 
ATOM      3  C   UNL     1       8.716  15.611  20.459  0.00  0.00    +0.000 C 
ATOM      4  C   UNL     1       7.649  14.534  20.503  0.00  0.00    +0.000 C 
ATOM      5  C   UNL     1       7.720  13.423  21.558  0.00  0.00    +0.000 C 
ATOM      6  C   UNL     1       8.952  13.416  22.453  0.00  0.00    +0.000 C 
ATOM      7  C   UNL     1       9.945  14.553  22.187  0.00  0.00    +0.000 C 
ATOM      8  C   UNL     1       9.578  15.732  23.169  0.00  0.00    +0.000 C 
ATOM      9  N   UNL     1      10.029  15.023  20.776  0.00  0.00    +0.000 NA
ENDROOT
BRANCH   1  18
ATOM     10  CA  UNL     1       5.750  14.243  24.489  0.00  0.00    +0.000 A 
ATOM     11  N   UNL     1       4.756  14.193  23.642  0.00  0.00    +0.000 NA
ATOM     12  C   UNL     1       4.709  15.150  22.620  0.00  0.00    +0.000 A 
ATOM     13  C   UNL     1       3.773  14.911  21.608  0.00  0.00    +0.000 A 
ATOM     14  C   UNL     1       3.712  15.724  20.479  0.00  0.00    +0.000 A 
ATOM     15  C   UNL     1       4.479  16.879  20.453  0.00  0.00    +0.000 A 
ATOM     16  C   UNL     1       5.391  17.155  21.496  0.00  0.00    +0.000 A 
ATOM     17  C   UNL     1       5.660  16.191  22.488  0.00  0.00    +0.000 A 
ATOM     18  N   UNL     1       6.928  16.021  23.205  0.00  0.00    +0.000 N 
ATOM     19  C   UNL     1       6.890  15.229  24.355  0.00  0.00    +0.000 A 
ATOM     20  O   UNL     1       7.765  15.214  25.210  0.00  0.00    +0.000 OA
BRANCH  10  22
ATOM     21  O   UNL     1       4.835  12.887  26.298  0.00  0.00    +0.000 OA
ATOM     22  C   UNL     1       5.751  13.132  25.537  0.00  0.00    +0.000 C 
BRANCH  22  23
ATOM     23  OXT UNL     1       6.925  12.458  25.496  0.00  0.00    +0.000 OA
ATOM     24  HXT UNL     1       7.101  12.163  24.572  0.00  0.00    +0.000 HD
ENDBRANCH  22  23
ENDBRANCH  10  22
ENDBRANCH   1  18
BRANCH   9  25
ATOM     25  C   UNL     1      10.595  14.130  19.671  0.00  0.00    +0.000 C 
ATOM     26  C   UNL     1      11.814  14.741  18.928  0.00  0.00    +0.000 C 
ATOM     27  C   UNL     1      12.329  14.261  17.593  0.00  0.00    +0.000 C 
ATOM     28  C   UNL     1      11.219  13.772  16.702  0.00  0.00    +0.000 C 
ATOM     29  C   UNL     1      10.222  12.918  17.482  0.00  0.00    +0.000 C 
ATOM     30  C   UNL     1      10.898  11.635  18.004  0.00  0.00    +0.000 C 
ATOM     31  C   UNL     1      11.477  11.667  19.420  0.00  0.00    +0.000 C 
ATOM     32  C   UNL     1      10.998  12.778  20.345  0.00  0.00    +0.000 C 
ATOM     33  C   UNL     1       9.553  13.738  18.610  0.00  0.00    +0.000 C 
ENDBRANCH   9  25
TORSDOF 4
ENDMDL
MODEL 3
REMARK VINA RESULT:      -6.6      1.715      2.143
REMARK  Name = 
REMARK  4 active torsions:
REMARK  status: ('A' for Active; 'I' for Inactive)
REMARK    1  A    between atoms: C_2  and  OXT_3
REMARK    2  A    between atoms: C_2  and  CA_4
REMARK    3  A    between atoms: N_12  and  C_13
REMARK    4  A    between atoms: N_21  and  C_22
REMARK                            x       y       z     vdW  Elec       q    Type
REMARK                         _______ _______ _______ _____ _____    ______ ____
ROOT
ATOM      1  C   UNL     1      -1.287  11.807  20.979  0.00  0.00    +0.000 C 
ATOM      2  C   UNL     1      -2.071  13.085  20.726  0.00  0.00    +0.000 C 
ATOM      3  C   UNL     1      -1.313  14.101  19.800  0.00  0.00    +0.000 C 
ATOM      4  C   UNL     1      -0.789  13.623  18.460  0.00  0.00    +0.000 C 
ATOM      5  C   UNL     1       0.603  12.988  18.361  0.00  0.00    +0.000 C 
ATOM      6  C   UNL     1       1.435  12.973  19.637  0.00  0.00    +0.000 C 
ATOM      7  C   UNL     1       0.740  13.579  20.862  0.00  0.00    +0.000 C 
ATOM      8  C   UNL     1       0.039  12.395  21.633  0.00  0.00    +0.000 C 
ATOM      9  N   UNL     1      -0.213  14.690  20.584  0.00  0.00    +0.000 NA
ENDROOT
BRANCH   1  18
ATOM     10  CA  UNL     1       0.443   9.413  18.544  0.00  0.00    +0.000 A 
ATOM     11  N   UNL     1      -0.265   9.510  17.450  0.00  0.00    +0.000 NA
ATOM     12  C   UNL     1      -1.522  10.121  17.528  0.00  0.00    +0.000 A 
ATOM     13  C   UNL     1      -2.130  10.417  16.303  0.00  0.00    +0.000 A 
ATOM     14  C   UNL     1      -3.324  11.131  16.245  0.00  0.00    +0.000 A 
ATOM     15  C   UNL     1      -3.993  11.395  17.431  0.00  0.00    +0.000 A 
ATOM     16  C   UNL     1      -3.411  11.055  18.672  0.00  0.00    +0.000 A 
ATOM     17  C   UNL     1      -2.079  10.598  18.739  0.00  0.00    +0.000 A 
ATOM     18  N   UNL     1      -1.152  10.803  19.856  0.00  0.00    +0.000 N 
ATOM     19  C   UNL     1      -0.002  10.012  19.862  0.00  0.00    +0.000 A 
ATOM     20  O   UNL     1       0.719   9.850  20.837  0.00  0.00    +0.000 OA
BRANCH  10  22
ATOM     21  O   UNL     1       2.584   9.021  17.444  0.00  0.00    +0.000 OA
ATOM     22  C   UNL     1       1.821   8.781  18.359  0.00  0.00    +0.000 C 
BRANCH  22  23
ATOM     23  OXT UNL     1       2.070   7.910  19.366  0.00  0.00    +0.000 OA
ATOM     24  HXT UNL     1       1.217   7.614  19.761  0.00  0.00    +0.000 HD
ENDBRANCH  22  23
ENDBRANCH  10  22
ENDBRANCH   1  18
BRANCH   9  25
ATOM     25  C   UNL     1       0.271  16.042  20.059  0.00  0.00    +0.000 C 
ATOM     26  C   UNL     1      -0.477  16.531  18.789  0.00  0.00    +0.000 C 
ATOM     27  C   UNL     1       0.022  17.620  17.869  0.00  0.00    +0.000 C 
ATOM     28  C   UNL     1       1.524  17.628  17.768  0.00  0.00    +0.000 C 
ATOM     29  C   UNL     1       2.170  17.438  19.139  0.00  0.00    +0.000 C 
ATOM     30  C   UNL     1       1.833  18.622  20.067  0.00  0.00    +0.000 C 
ATOM     31  C   UNL     1       0.618  18.478  20.984  0.00  0.00    +0.000 C 
ATOM     32  C   UNL     1       0.087  17.071  21.223  0.00  0.00    +0.000 C 
ATOM     33  C   UNL     1       1.778  16.073  19.751  0.00  0.00    +0.000 C 
ENDBRANCH   9  25
TORSDOF 4
ENDMDL
MODEL 4
REMARK VINA RESULT:      -6.6      4.405      6.408
REMARK  Name = 
REMARK  4 active torsions:
REMARK  status: ('A' for Active; 'I' for Inactive)
REMARK    1  A    between atoms: C_2  and  OXT_3
REMARK    2  A    between atoms: C_2  and  CA_4
REMARK    3  A    between atoms: N_12  and  C_13
REMARK    4  A    between atoms: N_21  and  C_22
REMARK                            x       y       z     vdW  Elec       q    Type
REMARK                         _______ _______ _______ _____ _____    ______ ____
ROOT
ATOM      1  C   UNL     1      -3.216  14.015  24.377  0.00  0.00    +0.000 C 
ATOM      2  C   UNL     1      -2.259  15.128  23.981  0.00  0.00    +0.000 C 
ATOM      3  C   UNL     1      -2.089  15.271  22.427  0.00  0.00    +0.000 C 
ATOM      4  C   UNL     1      -3.326  15.413  21.563  0.00  0.00    +0.000 C 
ATOM      5  C   UNL     1      -4.051  14.165  21.046  0.00  0.00    +0.000 C 
ATOM      6  C   UNL     1      -3.400  12.824  21.358  0.00  0.00    +0.000 C 
ATOM      7  C   UNL     1      -2.109  12.914  22.181  0.00  0.00    +0.000 C 
ATOM      8  C   UNL     1      -2.512  12.760  23.698  0.00  0.00    +0.000 C 
ATOM      9  N   UNL     1      -1.281  14.132  21.956  0.00  0.00    +0.000 NA
ENDROOT
BRANCH   1  18
ATOM     10  CA  UNL     1      -6.778  13.208  23.230  0.00  0.00    +0.000 A 
ATOM     11  N   UNL     1      -7.265  14.369  22.876  0.00  0.00    +0.000 NA
ATOM     12  C   UNL     1      -6.579  15.523  23.273  0.00  0.00    +0.000 A 
ATOM     13  C   UNL     1      -6.999  16.715  22.672  0.00  0.00    +0.000 A 
ATOM     14  C   UNL     1      -6.320  17.910  22.892  0.00  0.00    +0.000 A 
ATOM     15  C   UNL     1      -5.322  17.936  23.856  0.00  0.00    +0.000 A 
ATOM     16  C   UNL     1      -4.926  16.746  24.506  0.00  0.00    +0.000 A 
ATOM     17  C   UNL     1      -5.412  15.495  24.074  0.00  0.00    +0.000 A 
ATOM     18  N   UNL     1      -4.698  14.217  24.155  0.00  0.00    +0.000 N 
ATOM     19  C   UNL     1      -5.464  13.065  23.969  0.00  0.00    +0.000 A 
ATOM     20  O   UNL     1      -5.100  11.938  24.278  0.00  0.00    +0.000 OA
BRANCH  10  22
ATOM     21  O   UNL     1      -7.909  11.840  21.560  0.00  0.00    +0.000 OA
ATOM     22  C   UNL     1      -7.558  12.003  22.712  0.00  0.00    +0.000 C 
BRANCH  22  23
ATOM     23  OXT UNL     1      -7.805  11.140  23.726  0.00  0.00    +0.000 OA
ATOM     24  HXT UNL     1      -8.076  11.646  24.528  0.00  0.00    +0.000 HD
ENDBRANCH  22  23
ENDBRANCH  10  22
ENDBRANCH   1  18
BRANCH   9  25
ATOM     25  C   UNL     1      -0.572  14.379  20.624  0.00  0.00    +0.000 C 
ATOM     26  C   UNL     1      -1.021  13.424  19.485  0.00  0.00    +0.000 C 
ATOM     27  C   UNL     1      -0.253  13.202  18.204  0.00  0.00    +0.000 C 
ATOM     28  C   UNL     1       1.235  13.287  18.416  0.00  0.00    +0.000 C 
ATOM     29  C   UNL     1       1.596  14.461  19.323  0.00  0.00    +0.000 C 
ATOM     30  C   UNL     1       1.219  15.798  18.656  0.00  0.00    +0.000 C 
ATOM     31  C   UNL     1      -0.152  16.391  18.986  0.00  0.00    +0.000 C 
ATOM     32  C   UNL     1      -0.860  15.864  20.227  0.00  0.00    +0.000 C 
ATOM     33  C   UNL     1       0.961  14.295  20.724  0.00  0.00    +0.000 C 
ENDBRANCH   9  25
TORSDOF 4
ENDMDL
MODEL 5
REMARK VINA RESULT:      -6.5      2.577      3.944
REMARK  Name = 
REMARK  4 active torsions:
REMARK  status: ('A' for Active; 'I' for Inactive)
REMARK    1  A    between atoms: C_2  and  OXT_3
REMARK    2  A    between atoms: C_2  and  CA_4
REMARK    3  A    between atoms: N_12  and  C_13
REMARK    4  A    between atoms: N_21  and  C_22
REMARK                            x       y       z     vdW  Elec       q    Type
REMARK                         _______ _______ _______ _____ _____    ______ ____
ROOT
ATOM      1  C   UNL     1      -0.022  11.021  20.541  0.00  0.00    +0.000 C 
ATOM      2  C   UNL     1       0.672  12.002  21.473  0.00  0.00    +0.000 C 
ATOM      3  C   UNL     1       1.005  13.374  20.788  0.00  0.00    +0.000 C 
ATOM      4  C   UNL     1      -0.104  14.130  20.083  0.00  0.00    +0.000 C 
ATOM      5  C   UNL     1      -0.421  13.838  18.612  0.00  0.00    +0.000 C 
ATOM      6  C   UNL     1       0.496  12.849  17.904  0.00  0.00    +0.000 C 
ATOM      7  C   UNL     1       1.604  12.258  18.784  0.00  0.00    +0.000 C 
ATOM      8  C   UNL     1       1.055  10.903  19.377  0.00  0.00    +0.000 C 
ATOM      9  N   UNL     1       2.125  13.152  19.857  0.00  0.00    +0.000 NA
ENDROOT
BRANCH   1  18
ATOM     10  CA  UNL     1      -3.072  11.488  18.277  0.00  0.00    +0.000 A 
ATOM     11  N   UNL     1      -3.800  12.372  18.907  0.00  0.00    +0.000 NA
ATOM     12  C   UNL     1      -3.499  12.643  20.247  0.00  0.00    +0.000 A 
ATOM     13  C   UNL     1      -4.139  13.758  20.800  0.00  0.00    +0.000 A 
ATOM     14  C   UNL     1      -3.832  14.201  22.084  0.00  0.00    +0.000 A 
ATOM     15  C   UNL     1      -3.006  13.415  22.874  0.00  0.00    +0.000 A 
ATOM     16  C   UNL     1      -2.394  12.259  22.340  0.00  0.00    +0.000 A 
ATOM     17  C   UNL     1      -2.474  11.976  20.962  0.00  0.00    +0.000 A 
ATOM     18  N   UNL     1      -1.465  11.272  20.165  0.00  0.00    +0.000 N 
ATOM     19  C   UNL     1      -1.870  10.819  18.908  0.00  0.00    +0.000 A 
ATOM     20  O   UNL     1      -1.264   9.987  18.247  0.00  0.00    +0.000 OA
BRANCH  10  22
ATOM     21  O   UNL     1      -4.538  10.990  16.392  0.00  0.00    +0.000 OA
ATOM     22  C   UNL     1      -3.436  11.293  16.807  0.00  0.00    +0.000 C 
BRANCH  22  23
ATOM     23  OXT UNL     1      -2.348  11.505  16.028  0.00  0.00    +0.000 OA
ATOM     24  HXT UNL     1      -2.170  10.701  15.488  0.00  0.00    +0.000 HD
ENDBRANCH  22  23
ENDBRANCH  10  22
ENDBRANCH   1  18
BRANCH   9  25
ATOM     25  C   UNL     1       2.920  14.415  19.525  0.00  0.00    +0.000 C 
ATOM     26  C   UNL     1       2.067  15.713  19.519  0.00  0.00    +0.000 C 
ATOM     27  C   UNL     1       2.496  17.014  18.885  0.00  0.00    +0.000 C 
ATOM     28  C   UNL     1       3.329  16.793  17.651  0.00  0.00    +0.000 C 
ATOM     29  C   UNL     1       4.354  15.682  17.869  0.00  0.00    +0.000 C 
ATOM     30  C   UNL     1       5.367  16.085  18.959  0.00  0.00    +0.000 C 
ATOM     31  C   UNL     1       5.073  15.647  20.394  0.00  0.00    +0.000 C 
ATOM     32  C   UNL     1       4.061  14.525  20.588  0.00  0.00    +0.000 C 
ATOM     33  C   UNL     1       3.655  14.336  18.176  0.00  0.00    +0.000 C 
ENDBRANCH   9  25
TORSDOF 4
ENDMDL
MODEL 6
REMARK VINA RESULT:      -6.5      3.880      6.942
REMARK  Name = 
REMARK  4 active torsions:
REMARK  status: ('A' for Active; 'I' for Inactive)
REMARK    1  A    between atoms: C_2  and  OXT_3
REMARK    2  A    between atoms: C_2  and  CA_4
REMARK    3  A    between atoms: N_12  and  C_13
REMARK    4  A    between atoms: N_21  and  C_22
REMARK                            x       y       z     vdW  Elec       q    Type
REMARK                         _______ _______ _______ _____ _____    ______ ____
ROOT
ATOM      1  C   UNL     1      -0.850  12.543  22.715  0.00  0.00    +0.000 C 
ATOM      2  C   UNL     1      -2.134  11.728  22.700  0.00  0.00    +0.000 C 
ATOM      3  C   UNL     1      -3.375  12.542  22.191  0.00  0.00    +0.000 C 
ATOM      4  C   UNL     1      -3.285  13.263  20.861  0.00  0.00    +0.000 C 
ATOM      5  C   UNL     1      -2.728  14.690  20.795  0.00  0.00    +0.000 C 
ATOM      6  C   UNL     1      -2.387  15.347  22.126  0.00  0.00    +0.000 C 
ATOM      7  C   UNL     1      -2.627  14.465  23.357  0.00  0.00    +0.000 C 
ATOM      8  C   UNL     1      -1.266  13.736  23.682  0.00  0.00    +0.000 C 
ATOM      9  N   UNL     1      -3.753  13.495  23.250  0.00  0.00    +0.000 NA
ENDROOT
BRANCH   1  18
ATOM     10  CA  UNL     1       0.864  14.688  20.049  0.00  0.00    +0.000 A 
ATOM     11  N   UNL     1       0.436  14.189  18.919  0.00  0.00    +0.000 NA
ATOM     12  C   UNL     1      -0.191  12.937  18.945  0.00  0.00    +0.000 A 
ATOM     13  C   UNL     1      -0.840  12.559  17.765  0.00  0.00    +0.000 A 
ATOM     14  C   UNL     1      -1.600  11.394  17.703  0.00  0.00    +0.000 A 
ATOM     15  C   UNL     1      -1.560  10.521  18.780  0.00  0.00    +0.000 A 
ATOM     16  C   UNL     1      -0.864  10.871  19.959  0.00  0.00    +0.000 A 
ATOM     17  C   UNL     1      -0.343  12.170  20.125  0.00  0.00    +0.000 A 
ATOM     18  N   UNL     1      -0.188  12.880  21.398  0.00  0.00    +0.000 N 
ATOM     19  C   UNL     1       0.629  14.012  21.383  0.00  0.00    +0.000 A 
ATOM     20  O   UNL     1       1.088  14.545  22.384  0.00  0.00    +0.000 OA
BRANCH  10  22
ATOM     21  O   UNL     1       2.514  16.339  19.341  0.00  0.00    +0.000 OA
ATOM     22  C   UNL     1       1.487  16.078  19.937  0.00  0.00    +0.000 C 
BRANCH  22  23
ATOM     23  OXT UNL     1       0.726  16.981  20.601  0.00  0.00    +0.000 OA
ATOM     24  HXT UNL     1       0.313  16.547  21.384  0.00  0.00    +0.000 HD
ENDBRANCH  22  23
ENDBRANCH  10  22
ENDBRANCH   1  18
BRANCH   9  25
ATOM     25  C   UNL     1      -5.206  13.966  23.174  0.00  0.00    +0.000 C 
ATOM     26  C   UNL     1      -5.770  14.043  21.730  0.00  0.00    +0.000 C 
ATOM     27  C   UNL     1      -7.015  14.802  21.337  0.00  0.00    +0.000 C 
ATOM     28  C   UNL     1      -7.198  16.049  22.160  0.00  0.00    +0.000 C 
ATOM     29  C   UNL     1      -6.904  15.784  23.635  0.00  0.00    +0.000 C 
ATOM     30  C   UNL     1      -7.916  14.778  24.218  0.00  0.00    +0.000 C 
ATOM     31  C   UNL     1      -7.526  13.300  24.214  0.00  0.00    +0.000 C 
ATOM     32  C   UNL     1      -6.051  12.968  24.031  0.00  0.00    +0.000 C 
ATOM     33  C   UNL     1      -5.438  15.336  23.836  0.00  0.00    +0.000 C 
ENDBRANCH   9  25
TORSDOF 4
ENDMDL
MODEL 7
REMARK VINA RESULT:      -6.5      6.225      8.920
REMARK  Name = 
REMARK  4 active torsions:
REMARK  status: ('A' for Active; 'I' for Inactive)
REMARK    1  A    between atoms: C_2  and  OXT_3
REMARK    2  A    between atoms: C_2  and  CA_4
REMARK    3  A    between atoms: N_12  and  C_13
REMARK    4  A    between atoms: N_21  and  C_22
REMARK                            x       y       z     vdW  Elec       q    Type
REMARK                         _______ _______ _______ _____ _____    ______ ____
ROOT
ATOM      1  C   UNL     1       8.378  16.586  23.007  0.00  0.00    +0.000 C 
ATOM      2  C   UNL     1       8.568  16.839  21.519  0.00  0.00    +0.000 C 
ATOM      3  C   UNL     1       8.497  15.530  20.657  0.00  0.00    +0.000 C 
ATOM      4  C   UNL     1       7.297  14.615  20.808  0.00  0.00    +0.000 C 
ATOM      5  C   UNL     1       7.292  13.523  21.884  0.00  0.00    +0.000 C 
ATOM      6  C   UNL     1       8.575  13.357  22.687  0.00  0.00    +0.000 C 
ATOM      7  C   UNL     1       9.695  14.337  22.319  0.00  0.00    +0.000 C 
ATOM      8  C   UNL     1       9.571  15.573  23.291  0.00  0.00    +0.000 C 
ATOM      9  N   UNL     1       9.736  14.768  20.892  0.00  0.00    +0.000 NA
ENDROOT
BRANCH   1  18
ATOM     10  CA  UNL     1       5.686  14.665  24.933  0.00  0.00    +0.000 A 
ATOM     11  N   UNL     1       4.633  14.738  24.161  0.00  0.00    +0.000 NA
ATOM     12  C   UNL     1       4.642  15.670  23.117  0.00  0.00    +0.000 A 
ATOM     13  C   UNL     1       3.609  15.544  22.182  0.00  0.00    +0.000 A 
ATOM     14  C   UNL     1       3.576  16.333  21.035  0.00  0.00    +0.000 A 
ATOM     15  C   UNL     1       4.491  17.369  20.919  0.00  0.00    +0.000 A 
ATOM     16  C   UNL     1       5.509  17.536  21.885  0.00  0.00    +0.000 A 
ATOM     17  C   UNL     1       5.716  16.564  22.884  0.00  0.00    +0.000 A 
ATOM     18  N   UNL     1       6.998  16.234  23.514  0.00  0.00    +0.000 N 
ATOM     19  C   UNL     1       6.938  15.480  24.687  0.00  0.00    +0.000 A 
ATOM     20  O   UNL     1       7.864  15.360  25.478  0.00  0.00    +0.000 OA
BRANCH  10  22
ATOM     21  O   UNL     1       5.236  12.445  25.836  0.00  0.00    +0.000 OA
ATOM     22  C   UNL     1       5.612  13.588  26.012  0.00  0.00    +0.000 C 
BRANCH  22  23
ATOM     23  OXT UNL     1       6.027  14.092  27.199  0.00  0.00    +0.000 OA
ATOM     24  HXT UNL     1       5.992  13.385  27.885  0.00  0.00    +0.000 HD
ENDBRANCH  22  23
ENDBRANCH  10  22
ENDBRANCH   1  18
BRANCH   9  25
ATOM     25  C   UNL     1      10.086  13.785  19.774  0.00  0.00    +0.000 C 
ATOM     26  C   UNL     1       8.879  13.393  18.879  0.00  0.00    +0.000 C 
ATOM     27  C   UNL     1       8.852  12.197  17.957  0.00  0.00    +0.000 C 
ATOM     28  C   UNL     1       9.637  11.039  18.512  0.00  0.00    +0.000 C 
ATOM     29  C   UNL     1      10.964  11.508  19.108  0.00  0.00    +0.000 C 
ATOM     30  C   UNL     1      11.869  12.107  18.013  0.00  0.00    +0.000 C 
ATOM     31  C   UNL     1      11.808  13.620  17.796  0.00  0.00    +0.000 C 
ATOM     32  C   UNL     1      11.200  14.462  18.910  0.00  0.00    +0.000 C 
ATOM     33  C   UNL     1      10.728  12.484  20.284  0.00  0.00    +0.000 C 
ENDBRANCH   9  25
TORSDOF 4
ENDMDL
MODEL 8
REMARK VINA RESULT:      -6.5      2.534      4.094
REMARK  Name = 
REMARK  4 active torsions:
REMARK  status: ('A' for Active; 'I' for Inactive)
REMARK    1  A    between atoms: C_2  and  OXT_3
REMARK    2  A    between atoms: C_2  and  CA_4
REMARK    3  A    between atoms: N_12  and  C_13
REMARK    4  A    between atoms: N_21  and  C_22
REMARK                            x       y       z     vdW  Elec       q    Type
REMARK                         _______ _______ _______ _____ _____    ______ ____
ROOT
ATOM      1  C   UNL     1      -0.489  12.497  18.831  0.00  0.00    +0.000 C 
ATOM      2  C   UNL     1       0.947  12.160  18.458  0.00  0.00    +0.000 C 
ATOM      3  C   UNL     1       2.005  12.893  19.355  0.00  0.00    +0.000 C 
ATOM      4  C   UNL     1       1.894  12.782  20.863  0.00  0.00    +0.000 C 
ATOM      5  C   UNL     1       1.020  13.769  21.646  0.00  0.00    +0.000 C 
ATOM      6  C   UNL     1       0.385  14.897  20.842  0.00  0.00    +0.000 C 
ATOM      7  C   UNL     1       0.691  14.866  19.340  0.00  0.00    +0.000 C 
ATOM      8  C   UNL     1      -0.482  14.076  18.641  0.00  0.00    +0.000 C 
ATOM      9  N   UNL     1       2.022  14.313  18.961  0.00  0.00    +0.000 NA
ENDROOT
BRANCH   1  18
ATOM     10  CA  UNL     1      -2.305  12.455  22.200  0.00  0.00    +0.000 A 
ATOM     11  N   UNL     1      -1.667  11.546  22.890  0.00  0.00    +0.000 NA
ATOM     12  C   UNL     1      -0.808  10.678  22.206  0.00  0.00    +0.000 A 
ATOM     13  C   UNL     1       0.026   9.892  23.009  0.00  0.00    +0.000 A 
ATOM     14  C   UNL     1       1.006   9.077  22.448  0.00  0.00    +0.000 A 
ATOM     15  C   UNL     1       1.028   8.924  21.070  0.00  0.00    +0.000 A 
ATOM     16  C   UNL     1       0.155   9.675  20.252  0.00  0.00    +0.000 A 
ATOM     17  C   UNL     1      -0.632  10.708  20.801  0.00  0.00    +0.000 A 
ATOM     18  N   UNL     1      -1.061  11.927  20.109  0.00  0.00    +0.000 N 
ATOM     19  C   UNL     1      -2.083  12.659  20.716  0.00  0.00    +0.000 A 
ATOM     20  O   UNL     1      -2.743  13.521  20.151  0.00  0.00    +0.000 OA
BRANCH  10  22
ATOM     21  O   UNL     1      -4.147  13.051  23.681  0.00  0.00    +0.000 OA
ATOM     22  C   UNL     1      -3.179  13.391  23.031  0.00  0.00    +0.000 C 
BRANCH  22  23
ATOM     23  OXT UNL     1      -2.716  14.661  22.936  0.00  0.00    +0.000 OA
ATOM     24  HXT UNL     1      -3.450  15.292  23.124  0.00  0.00    +0.000 HD
ENDBRANCH  22  23
ENDBRANCH  10  22
ENDBRANCH   1  18
BRANCH   9  25
ATOM     25  C   UNL     1       3.318  15.044  19.317  0.00  0.00    +0.000 C 
ATOM     26  C   UNL     1       4.005  14.518  20.606  0.00  0.00    +0.000 C 
ATOM     27  C   UNL     1       5.066  15.267  21.375  0.00  0.00    +0.000 C 
ATOM     28  C   UNL     1       4.851  16.756  21.329  0.00  0.00    +0.000 C 
ATOM     29  C   UNL     1       4.467  17.214  19.923  0.00  0.00    +0.000 C 
ATOM     30  C   UNL     1       5.620  16.954  18.934  0.00  0.00    +0.000 C 
ATOM     31  C   UNL     1       5.599  15.638  18.155  0.00  0.00    +0.000 C 
ATOM     32  C   UNL     1       4.277  14.884  18.092  0.00  0.00    +0.000 C 
ATOM     33  C   UNL     1       3.138  16.563  19.472  0.00  0.00    +0.000 C 
ENDBRANCH   9  25
TORSDOF 4
ENDMDL
MODEL 9
REMARK VINA RESULT:      -6.5      6.313      9.525
REMARK  Name = 
REMARK  4 active torsions:
REMARK  status: ('A' for Active; 'I' for Inactive)
REMARK    1  A    between atoms: C_2  and  OXT_3
REMARK    2  A    between atoms: C_2  and  CA_4
REMARK    3  A    between atoms: N_12  and  C_13
REMARK    4  A    between atoms: N_21  and  C_22
REMARK                            x       y       z     vdW  Elec       q    Type
REMARK                         _______ _______ _______ _____ _____    ______ ____
ROOT
ATOM      1  C   UNL     1       8.560  16.635  21.343  0.00  0.00    +0.000 C 
ATOM      2  C   UNL     1       7.389  15.840  21.899  0.00  0.00    +0.000 C 
ATOM      3  C   UNL     1       6.377  15.376  20.792  0.00  0.00    +0.000 C 
ATOM      4  C   UNL     1       6.903  14.620  19.588  0.00  0.00    +0.000 C 
ATOM      5  C   UNL     1       7.403  15.385  18.357  0.00  0.00    +0.000 C 
ATOM      6  C   UNL     1       7.236  16.899  18.386  0.00  0.00    +0.000 C 
ATOM      7  C   UNL     1       6.610  17.452  19.671  0.00  0.00    +0.000 C 
ATOM      8  C   UNL     1       7.795  17.839  20.638  0.00  0.00    +0.000 C 
ATOM      9  N   UNL     1       5.624  16.561  20.346  0.00  0.00    +0.000 NA
ENDROOT
BRANCH   1  18
ATOM     10  CA  UNL     1      10.950  15.873  18.452  0.00  0.00    +0.000 A 
ATOM     11  N   UNL     1      11.008  14.567  18.427  0.00  0.00    +0.000 NA
ATOM     12  C   UNL     1      10.521  13.862  19.535  0.00  0.00    +0.000 A 
ATOM     13  C   UNL     1      10.383  12.481  19.362  0.00  0.00    +0.000 A 
ATOM     14  C   UNL     1       9.798  11.687  20.346  0.00  0.00    +0.000 A 
ATOM     15  C   UNL     1       9.511  12.262  21.575  0.00  0.00    +0.000 A 
ATOM     16  C   UNL     1       9.695  13.649  21.776  0.00  0.00    +0.000 A 
ATOM     17  C   UNL     1      10.010  14.495  20.694  0.00  0.00    +0.000 A 
ATOM     18  N   UNL     1       9.629  15.905  20.562  0.00  0.00    +0.000 N 
ATOM     19  C   UNL     1      10.299  16.641  19.583  0.00  0.00    +0.000 A 
ATOM     20  O   UNL     1      10.312  17.863  19.528  0.00  0.00    +0.000 OA
BRANCH  10  22
ATOM     21  O   UNL     1      12.329  17.400  17.144  0.00  0.00    +0.000 OA
ATOM     22  C   UNL     1      11.453  16.558  17.184  0.00  0.00    +0.000 C 
BRANCH  22  23
ATOM     23  OXT UNL     1      10.779  16.091  16.106  0.00  0.00    +0.000 OA
ATOM     24  HXT UNL     1      10.007  15.558  16.409  0.00  0.00    +0.000 HD
ENDBRANCH  22  23
ENDBRANCH  10  22
ENDBRANCH   1  18
BRANCH   9  25
ATOM     25  C   UNL     1       4.274  16.237  19.704  0.00  0.00    +0.000 C 
ATOM     26  C   UNL     1       4.217  16.523  18.179  0.00  0.00    +0.000 C 
ATOM     27  C   UNL     1       2.942  16.641  17.379  0.00  0.00    +0.000 C 
ATOM     28  C   UNL     1       1.825  17.249  18.185  0.00  0.00    +0.000 C 
ATOM     29  C   UNL     1       1.784  16.668  19.597  0.00  0.00    +0.000 C 
ATOM     30  C   UNL     1       1.461  15.162  19.555  0.00  0.00    +0.000 C 
ATOM     31  C   UNL     1       2.638  14.186  19.541  0.00  0.00    +0.000 C 
ATOM     32  C   UNL     1       3.995  14.723  19.980  0.00  0.00    +0.000 C 
ATOM     33  C   UNL     1       3.094  16.974  20.360  0.00  0.00    +0.000 C 
ENDBRANCH   9  25
TORSDOF 4
ENDMDL
