MODEL 1
REMARK VINA RESULT:      -8.9      0.000      0.000
REMARK  Name = 
REMARK  10 active torsions:
REMARK  status: ('A' for Active; 'I' for Inactive)
REMARK    1  A    between atoms: C_1  and  N_2
REMARK    2  A    between atoms: C_8  and  C_9
REMARK    3  A    between atoms: C_14  and  N_15
REMARK    4  A    between atoms: N_18  and  C_19
REMARK    5  A    between atoms: C_19  and  C_20
REMARK    6  A    between atoms: C_20  and  C_21
REMARK    7  A    between atoms: C_21  and  C_22
REMARK    8  A    between atoms: C_21  and  C_23
REMARK    9  A    between atoms: C_21  and  C_24
REMARK   10  A    between atoms: C_26  and  C_27
REMARK                            x       y       z     vdW  Elec       q    Type
REMARK                         _______ _______ _______ _____ _____    ______ ____
ROOT
ATOM      1  C   UNL     1       2.821   5.755  19.386  0.00  0.00    +0.000 A 
ATOM      2  C   UNL     1       2.054   4.577  19.344  0.00  0.00    +0.000 A 
ATOM      3  C   UNL     1       2.643   3.334  19.097  0.00  0.00    +0.000 A 
ATOM      4  C   UNL     1       3.997   3.266  18.800  0.00  0.00    +0.000 A 
ATOM      5  F   UNL     1       4.543   2.069  18.540  0.00  0.00    +0.000 F 
ATOM      6  C   UNL     1       4.778   4.419  18.777  0.00  0.00    +0.000 A 
ATOM      7  C   UNL     1       4.205   5.639  19.133  0.00  0.00    +0.000 A 
ENDROOT
BRANCH   1  15
ATOM      8  C   UNL     1      -1.260  12.525  22.975  0.00  0.00    +0.000 C 
ATOM      9  N   UNL     1      -1.105  12.023  21.630  0.00  0.00    +0.000 N 
ATOM     10  C   UNL     1      -0.378  10.847  21.514  0.00  0.00    +0.000 A 
ATOM     11  N   UNL     1      -0.365   9.968  22.522  0.00  0.00    +0.000 NA
ATOM     12  C   UNL     1       0.317   8.837  22.317  0.00  0.00    +0.000 A 
ATOM     13  C   UNL     1       0.982   8.556  21.140  0.00  0.00    +0.000 A 
ATOM     14  C   UNL     1       1.661   7.354  20.895  0.00  0.00    +0.000 A 
ATOM     15  C   UNL     1       2.242   7.094  19.643  0.00  0.00    +0.000 A 
ATOM     16  C   UNL     1       2.151   8.140  18.717  0.00  0.00    +0.000 A 
ATOM     17  C   UNL     1       2.718   8.084  17.326  0.00  0.00    +0.000 C 
ATOM     18  N   UNL     1       1.530   9.327  18.990  0.00  0.00    +0.000 NA
ATOM     19  C   UNL     1       0.923   9.533  20.160  0.00  0.00    +0.000 A 
ATOM     20  N   UNL     1       0.264  10.671  20.354  0.00  0.00    +0.000 NA
ATOM     21  H   UNL     1      -0.739  12.673  20.942  0.00  0.00    +0.000 HD
ENDBRANCH   1  15
BRANCH   6  22
ATOM     22  N   UNL     1       6.130   4.414  18.413  0.00  0.00    +0.000 N 
ATOM     23  C   UNL     1       6.668   4.379  17.161  0.00  0.00    +0.000 C 
ATOM     24  O   UNL     1       7.894   4.340  17.046  0.00  0.00    +0.000 OA
ATOM     25  N   UNL     1       5.814   4.559  16.105  0.00  0.00    +0.000 N 
ATOM     26  H   UNL     1       6.818   4.712  19.093  0.00  0.00    +0.000 HD
ATOM     27  H   UNL     1       4.874   4.217  16.224  0.00  0.00    +0.000 HD
BRANCH  25  28
ATOM     28  C   UNL     1       6.339   4.532  14.762  0.00  0.00    +0.000 C 
BRANCH  28  29
ATOM     29  C   UNL     1       5.917   3.290  13.970  0.00  0.00    +0.000 C 
BRANCH  29  30
ATOM     30  C   UNL     1       6.095   3.448  12.432  0.00  0.00    +0.000 C 
ATOM     31  C   UNL     1       6.620   2.142  11.810  0.00  0.00    +0.000 C 
ATOM     32  C   UNL     1       4.735   3.779  11.788  0.00  0.00    +0.000 C 
ATOM     33  C   UNL     1       7.069   4.596  12.105  0.00  0.00    +0.000 C 
ENDBRANCH  29  30
ENDBRANCH  28  29
ENDBRANCH  25  28
ENDBRANCH   6  22
TORSDOF 5
ENDMDL
MODEL 2
REMARK VINA RESULT:      -8.5      1.280      1.711
REMARK  Name = 
REMARK  10 active torsions:
REMARK  status: ('A' for Active; 'I' for Inactive)
REMARK    1  A    between atoms: C_1  and  N_2
REMARK    2  A    between atoms: C_8  and  C_9
REMARK    3  A    between atoms: C_14  and  N_15
REMARK    4  A    between atoms: N_18  and  C_19
REMARK    5  A    between atoms: C_19  and  C_20
REMARK    6  A    between atoms: C_20  and  C_21
REMARK    7  A    between atoms: C_21  and  C_22
REMARK    8  A    between atoms: C_21  and  C_23
REMARK    9  A    between atoms: C_21  and  C_24
REMARK   10  A    between atoms: C_26  and  C_27
REMARK                            x       y       z     vdW  Elec       q    Type
REMARK                         _______ _______ _______ _____ _____    ______ ____
ROOT
ATOM      1  C   UNL     1       2.027   6.128  20.215  0.00  0.00    +0.000 A 
ATOM      2  C   UNL     1       1.115   5.058  20.181  0.00  0.00    +0.000 A 
ATOM      3  C   UNL     1       1.550   3.737  20.037  0.00  0.00    +0.000 A 
ATOM      4  C   UNL     1       2.899   3.480  19.835  0.00  0.00    +0.000 A 
ATOM      5  F   UNL     1       3.298   2.210  19.674  0.00  0.00    +0.000 F 
ATOM      6  C   UNL     1       3.825   4.520  19.807  0.00  0.00    +0.000 A 
ATOM      7  C   UNL     1       3.396   5.822  20.062  0.00  0.00    +0.000 A 
ENDROOT
BRANCH   1  15
ATOM      8  C   UNL     1      -1.103  13.621  23.288  0.00  0.00    +0.000 C 
ATOM      9  N   UNL     1      -1.066  12.985  21.992  0.00  0.00    +0.000 N 
ATOM     10  C   UNL     1      -0.482  11.727  21.961  0.00  0.00    +0.000 A 
ATOM     11  N   UNL     1      -0.522  10.947  23.047  0.00  0.00    +0.000 NA
ATOM     12  C   UNL     1       0.019   9.730  22.926  0.00  0.00    +0.000 A 
ATOM     13  C   UNL     1       0.595   9.269  21.759  0.00  0.00    +0.000 A 
ATOM     14  C   UNL     1       1.122   7.979  21.605  0.00  0.00    +0.000 A 
ATOM     15  C   UNL     1       1.614   7.543  20.364  0.00  0.00    +0.000 A 
ATOM     16  C   UNL     1       1.600   8.505  19.347  0.00  0.00    +0.000 A 
ATOM     17  C   UNL     1       2.093   8.259  17.949  0.00  0.00    +0.000 C 
ATOM     18  N   UNL     1       1.128   9.776  19.528  0.00  0.00    +0.000 NA
ATOM     19  C   UNL     1       0.601  10.155  20.694  0.00  0.00    +0.000 A 
ATOM     20  N   UNL     1       0.084  11.374  20.802  0.00  0.00    +0.000 NA
ATOM     21  H   UNL     1      -0.660  13.523  21.233  0.00  0.00    +0.000 HD
ENDBRANCH   1  15
BRANCH   6  22
ATOM     22  N   UNL     1       5.184   4.321  19.536  0.00  0.00    +0.000 N 
ATOM     23  C   UNL     1       5.898   4.732  18.450  0.00  0.00    +0.000 C 
ATOM     24  O   UNL     1       7.087   4.422  18.373  0.00  0.00    +0.000 OA
ATOM     25  N   UNL     1       5.287   5.608  17.590  0.00  0.00    +0.000 N 
ATOM     26  H   UNL     1       5.800   4.068  20.298  0.00  0.00    +0.000 HD
ATOM     27  H   UNL     1       4.288   5.518  17.492  0.00  0.00    +0.000 HD
BRANCH  25  28
ATOM     28  C   UNL     1       6.005   6.072  16.429  0.00  0.00    +0.000 C 
BRANCH  28  29
ATOM     29  C   UNL     1       5.322   5.706  15.107  0.00  0.00    +0.000 C 
BRANCH  29  30
ATOM     30  C   UNL     1       6.043   4.564  14.334  0.00  0.00    +0.000 C 
ATOM     31  C   UNL     1       7.427   5.030  13.848  0.00  0.00    +0.000 C 
ATOM     32  C   UNL     1       6.239   3.355  15.267  0.00  0.00    +0.000 C 
ATOM     33  C   UNL     1       5.207   4.102  13.126  0.00  0.00    +0.000 C 
ENDBRANCH  29  30
ENDBRANCH  28  29
ENDBRANCH  25  28
ENDBRANCH   6  22
TORSDOF 5
ENDMDL
MODEL 3
REMARK VINA RESULT:      -8.4      4.238      9.823
REMARK  Name = 
REMARK  10 active torsions:
REMARK  status: ('A' for Active; 'I' for Inactive)
REMARK    1  A    between atoms: C_1  and  N_2
REMARK    2  A    between atoms: C_8  and  C_9
REMARK    3  A    between atoms: C_14  and  N_15
REMARK    4  A    between atoms: N_18  and  C_19
REMARK    5  A    between atoms: C_19  and  C_20
REMARK    6  A    between atoms: C_20  and  C_21
REMARK    7  A    between atoms: C_21  and  C_22
REMARK    8  A    between atoms: C_21  and  C_23
REMARK    9  A    between atoms: C_21  and  C_24
REMARK   10  A    between atoms: C_26  and  C_27
REMARK                            x       y       z     vdW  Elec       q    Type
REMARK                         _______ _______ _______ _____ _____    ______ ____
ROOT
ATOM      1  C   UNL     1       1.587   8.177  19.949  0.00  0.00    +0.000 A 
ATOM      2  C   UNL     1       1.177   7.997  21.282  0.00  0.00    +0.000 A 
ATOM      3  C   UNL     1       0.376   8.941  21.930  0.00  0.00    +0.000 A 
ATOM      4  C   UNL     1       0.049  10.122  21.278  0.00  0.00    +0.000 A 
ATOM      5  F   UNL     1      -0.700  11.030  21.922  0.00  0.00    +0.000 F 
ATOM      6  C   UNL     1       0.485  10.360  19.977  0.00  0.00    +0.000 A 
ATOM      7  C   UNL     1       1.189   9.365  19.300  0.00  0.00    +0.000 A 
ENDROOT
BRANCH   1  15
ATOM      8  C   UNL     1       7.020   4.444  14.298  0.00  0.00    +0.000 C 
ATOM      9  N   UNL     1       5.843   4.016  15.018  0.00  0.00    +0.000 N 
ATOM     10  C   UNL     1       5.245   4.985  15.811  0.00  0.00    +0.000 A 
ATOM     11  N   UNL     1       5.347   6.276  15.479  0.00  0.00    +0.000 NA
ATOM     12  C   UNL     1       4.704   7.146  16.264  0.00  0.00    +0.000 A 
ATOM     13  C   UNL     1       3.963   6.768  17.365  0.00  0.00    +0.000 A 
ATOM     14  C   UNL     1       3.244   7.665  18.169  0.00  0.00    +0.000 A 
ATOM     15  C   UNL     1       2.437   7.205  19.222  0.00  0.00    +0.000 A 
ATOM     16  C   UNL     1       2.473   5.822  19.439  0.00  0.00    +0.000 A 
ATOM     17  C   UNL     1       1.701   5.121  20.521  0.00  0.00    +0.000 C 
ATOM     18  N   UNL     1       3.220   4.966  18.678  0.00  0.00    +0.000 NA
ATOM     19  C   UNL     1       3.927   5.410  17.637  0.00  0.00    +0.000 A 
ATOM     20  N   UNL     1       4.576   4.533  16.878  0.00  0.00    +0.000 NA
ATOM     21  H   UNL     1       5.937   3.179  15.584  0.00  0.00    +0.000 HD
ENDBRANCH   1  15
BRANCH   6  22
ATOM     22  N   UNL     1       0.243  11.563  19.302  0.00  0.00    +0.000 N 
ATOM     23  C   UNL     1      -0.772  11.862  18.444  0.00  0.00    +0.000 C 
ATOM     24  O   UNL     1      -0.791  12.973  17.914  0.00  0.00    +0.000 OA
ATOM     25  N   UNL     1      -1.802  10.962  18.351  0.00  0.00    +0.000 N 
ATOM     26  H   UNL     1       0.693  12.407  19.636  0.00  0.00    +0.000 HD
ATOM     27  H   UNL     1      -1.564   9.991  18.482  0.00  0.00    +0.000 HD
BRANCH  25  28
ATOM     28  C   UNL     1      -2.899  11.236  17.458  0.00  0.00    +0.000 C 
BRANCH  28  29
ATOM     29  C   UNL     1      -4.192  10.507  17.842  0.00  0.00    +0.000 C 
BRANCH  29  30
ATOM     30  C   UNL     1      -5.339  11.468  18.268  0.00  0.00    +0.000 C 
ATOM     31  C   UNL     1      -5.721  12.404  17.108  0.00  0.00    +0.000 C 
ATOM     32  C   UNL     1      -6.583  10.645  18.655  0.00  0.00    +0.000 C 
ATOM     33  C   UNL     1      -4.927  12.311  19.490  0.00  0.00    +0.000 C 
ENDBRANCH  29  30
ENDBRANCH  28  29
ENDBRANCH  25  28
ENDBRANCH   6  22
TORSDOF 5
ENDMDL
MODEL 4
REMARK VINA RESULT:      -8.1      1.794      2.554
REMARK  Name = 
REMARK  10 active torsions:
REMARK  status: ('A' for Active; 'I' for Inactive)
REMARK    1  A    between atoms: C_1  and  N_2
REMARK    2  A    between atoms: C_8  and  C_9
REMARK    3  A    between atoms: C_14  and  N_15
REMARK    4  A    between atoms: N_18  and  C_19
REMARK    5  A    between atoms: C_19  and  C_20
REMARK    6  A    between atoms: C_20  and  C_21
REMARK    7  A    between atoms: C_21  and  C_22
REMARK    8  A    between atoms: C_21  and  C_23
REMARK    9  A    between atoms: C_21  and  C_24
REMARK   10  A    between atoms: C_26  and  C_27
REMARK                            x       y       z     vdW  Elec       q    Type
REMARK                         _______ _______ _______ _____ _____    ______ ____
ROOT
ATOM      1  C   UNL     1       2.579   6.416  18.492  0.00  0.00    +0.000 A 
ATOM      2  C   UNL     1       1.723   5.372  18.098  0.00  0.00    +0.000 A 
ATOM      3  C   UNL     1       2.226   4.128  17.710  0.00  0.00    +0.000 A 
ATOM      4  C   UNL     1       3.598   3.941  17.625  0.00  0.00    +0.000 A 
ATOM      5  F   UNL     1       4.065   2.748  17.227  0.00  0.00    +0.000 F 
ATOM      6  C   UNL     1       4.477   4.970  17.953  0.00  0.00    +0.000 A 
ATOM      7  C   UNL     1       3.969   6.171  18.445  0.00  0.00    +0.000 A 
ENDROOT
BRANCH   1  15
ATOM      8  C   UNL     1       0.910  14.926  18.904  0.00  0.00    +0.000 C 
ATOM      9  N   UNL     1       1.172  13.889  19.875  0.00  0.00    +0.000 N 
ATOM     10  C   UNL     1       1.435  12.633  19.348  0.00  0.00    +0.000 A 
ATOM     11  N   UNL     1       1.992  12.521  18.137  0.00  0.00    +0.000 NA
ATOM     12  C   UNL     1       2.260  11.280  17.718  0.00  0.00    +0.000 A 
ATOM     13  C   UNL     1       1.992  10.152  18.467  0.00  0.00    +0.000 A 
ATOM     14  C   UNL     1       2.312   8.849  18.060  0.00  0.00    +0.000 A 
ATOM     15  C   UNL     1       2.094   7.752  18.909  0.00  0.00    +0.000 A 
ATOM     16  C   UNL     1       1.478   8.058  20.129  0.00  0.00    +0.000 A 
ATOM     17  C   UNL     1       1.137   7.036  21.178  0.00  0.00    +0.000 C 
ATOM     18  N   UNL     1       1.126   9.328  20.490  0.00  0.00    +0.000 NA
ATOM     19  C   UNL     1       1.402  10.369  19.702  0.00  0.00    +0.000 A 
ATOM     20  N   UNL     1       1.112  11.595  20.127  0.00  0.00    +0.000 NA
ATOM     21  H   UNL     1       0.482  13.769  20.608  0.00  0.00    +0.000 HD
ENDBRANCH   1  15
BRANCH   6  22
ATOM     22  N   UNL     1       5.866   4.856  17.815  0.00  0.00    +0.000 N 
ATOM     23  C   UNL     1       6.590   4.666  16.676  0.00  0.00    +0.000 C 
ATOM     24  O   UNL     1       7.813   4.550  16.765  0.00  0.00    +0.000 OA
ATOM     25  N   UNL     1       5.926   4.783  15.483  0.00  0.00    +0.000 N 
ATOM     26  H   UNL     1       6.458   5.184  18.568  0.00  0.00    +0.000 HD
ATOM     27  H   UNL     1       4.957   4.506  15.478  0.00  0.00    +0.000 HD
BRANCH  25  28
ATOM     28  C   UNL     1       6.651   4.594  14.251  0.00  0.00    +0.000 C 
BRANCH  28  29
ATOM     29  C   UNL     1       6.374   3.241  13.585  0.00  0.00    +0.000 C 
BRANCH  29  30
ATOM     30  C   UNL     1       6.248   3.329  12.037  0.00  0.00    +0.000 C 
ATOM     31  C   UNL     1       7.076   4.506  11.492  0.00  0.00    +0.000 C 
ATOM     32  C   UNL     1       6.777   2.029  11.403  0.00  0.00    +0.000 C 
ATOM     33  C   UNL     1       4.777   3.501  11.613  0.00  0.00    +0.000 C 
ENDBRANCH  29  30
ENDBRANCH  28  29
ENDBRANCH  25  28
ENDBRANCH   6  22
TORSDOF 5
ENDMDL
MODEL 5
REMARK VINA RESULT:      -8.1      5.046     10.819
REMARK  Name = 
REMARK  10 active torsions:
REMARK  status: ('A' for Active; 'I' for Inactive)
REMARK    1  A    between atoms: C_1  and  N_2
REMARK    2  A    between atoms: C_8  and  C_9
REMARK    3  A    between atoms: C_14  and  N_15
REMARK    4  A    between atoms: N_18  and  C_19
REMARK    5  A    between atoms: C_19  and  C_20
REMARK    6  A    between atoms: C_20  and  C_21
REMARK    7  A    between atoms: C_21  and  C_22
REMARK    8  A    between atoms: C_21  and  C_23
REMARK    9  A    between atoms: C_21  and  C_24
REMARK   10  A    between atoms: C_26  and  C_27
REMARK                            x       y       z     vdW  Elec       q    Type
REMARK                         _______ _______ _______ _____ _____    ______ ____
ROOT
ATOM      1  C   UNL     1       0.711  10.352  19.282  0.00  0.00    +0.000 A 
ATOM      2  C   UNL     1       1.345  11.560  19.619  0.00  0.00    +0.000 A 
ATOM      3  C   UNL     1       0.831  12.792  19.204  0.00  0.00    +0.000 A 
ATOM      4  C   UNL     1      -0.277  12.824  18.370  0.00  0.00    +0.000 A 
ATOM      5  F   UNL     1      -0.744  14.012  17.960  0.00  0.00    +0.000 F 
ATOM      6  C   UNL     1      -0.899  11.644  17.969  0.00  0.00    +0.000 A 
ATOM      7  C   UNL     1      -0.446  10.427  18.477  0.00  0.00    +0.000 A 
ENDROOT
BRANCH   1  15
ATOM      8  C   UNL     1       4.480   2.532  19.400  0.00  0.00    +0.000 C 
ATOM      9  N   UNL     1       3.308   3.109  20.015  0.00  0.00    +0.000 N 
ATOM     10  C   UNL     1       3.048   4.430  19.678  0.00  0.00    +0.000 A 
ATOM     11  N   UNL     1       3.437   4.904  18.490  0.00  0.00    +0.000 NA
ATOM     12  C   UNL     1       3.108   6.172  18.218  0.00  0.00    +0.000 A 
ATOM     13  C   UNL     1       2.404   6.976  19.092  0.00  0.00    +0.000 A 
ATOM     14  C   UNL     1       2.011   8.290  18.800  0.00  0.00    +0.000 A 
ATOM     15  C   UNL     1       1.219   9.024  19.697  0.00  0.00    +0.000 A 
ATOM     16  C   UNL     1       0.929   8.374  20.903  0.00  0.00    +0.000 A 
ATOM     17  C   UNL     1       0.113   8.980  22.010  0.00  0.00    +0.000 C 
ATOM     18  N   UNL     1       1.363   7.110  21.193  0.00  0.00    +0.000 NA
ATOM     19  C   UNL     1       2.057   6.400  20.303  0.00  0.00    +0.000 A 
ATOM     20  N   UNL     1       2.392   5.147  20.597  0.00  0.00    +0.000 NA
ATOM     21  H   UNL     1       3.243   3.037  21.025  0.00  0.00    +0.000 HD
ENDBRANCH   1  15
BRANCH   6  22
ATOM     22  N   UNL     1      -1.974  11.618  17.072  0.00  0.00    +0.000 N 
ATOM     23  C   UNL     1      -3.308  11.647  17.350  0.00  0.00    +0.000 C 
ATOM     24  O   UNL     1      -4.108  11.574  16.417  0.00  0.00    +0.000 OA
ATOM     25  N   UNL     1      -3.674  11.923  18.641  0.00  0.00    +0.000 N 
ATOM     26  H   UNL     1      -1.803  11.847  16.101  0.00  0.00    +0.000 HD
ATOM     27  H   UNL     1      -3.048  11.606  19.364  0.00  0.00    +0.000 HD
BRANCH  25  28
ATOM     28  C   UNL     1      -5.074  11.968  18.982  0.00  0.00    +0.000 C 
BRANCH  28  29
ATOM     29  C   UNL     1      -5.338  12.500  20.395  0.00  0.00    +0.000 C 
BRANCH  29  30
ATOM     30  C   UNL     1      -6.821  12.355  20.843  0.00  0.00    +0.000 C 
ATOM     31  C   UNL     1      -7.701  13.413  20.155  0.00  0.00    +0.000 C 
ATOM     32  C   UNL     1      -7.344  10.960  20.449  0.00  0.00    +0.000 C 
ATOM     33  C   UNL     1      -6.952  12.497  22.371  0.00  0.00    +0.000 C 
ENDBRANCH  29  30
ENDBRANCH  28  29
ENDBRANCH  25  28
ENDBRANCH   6  22
TORSDOF 5
ENDMDL
MODEL 6
REMARK VINA RESULT:      -8.0      4.376      9.325
REMARK  Name = 
REMARK  10 active torsions:
REMARK  status: ('A' for Active; 'I' for Inactive)
REMARK    1  A    between atoms: C_1  and  N_2
REMARK    2  A    between atoms: C_8  and  C_9
REMARK    3  A    between atoms: C_14  and  N_15
REMARK    4  A    between atoms: N_18  and  C_19
REMARK    5  A    between atoms: C_19  and  C_20
REMARK    6  A    between atoms: C_20  and  C_21
REMARK    7  A    between atoms: C_21  and  C_22
REMARK    8  A    between atoms: C_21  and  C_23
REMARK    9  A    between atoms: C_21  and  C_24
REMARK   10  A    between atoms: C_26  and  C_27
REMARK                            x       y       z     vdW  Elec       q    Type
REMARK                         _______ _______ _______ _____ _____    ______ ____
ROOT
ATOM      1  C   UNL     1       1.554   8.091  19.988  0.00  0.00    +0.000 A 
ATOM      2  C   UNL     1       1.457   8.142  21.390  0.00  0.00    +0.000 A 
ATOM      3  C   UNL     1       0.631   9.072  22.028  0.00  0.00    +0.000 A 
ATOM      4  C   UNL     1      -0.040  10.022  21.272  0.00  0.00    +0.000 A 
ATOM      5  F   UNL     1      -0.810  10.923  21.900  0.00  0.00    +0.000 F 
ATOM      6  C   UNL     1       0.076  10.038  19.884  0.00  0.00    +0.000 A 
ATOM      7  C   UNL     1       0.813   9.039  19.249  0.00  0.00    +0.000 A 
ENDROOT
BRANCH   1  15
ATOM      8  C   UNL     1       7.083   4.406  14.401  0.00  0.00    +0.000 C 
ATOM      9  N   UNL     1       5.895   3.972  15.096  0.00  0.00    +0.000 N 
ATOM     10  C   UNL     1       5.283   4.934  15.887  0.00  0.00    +0.000 A 
ATOM     11  N   UNL     1       5.391   6.228  15.568  0.00  0.00    +0.000 NA
ATOM     12  C   UNL     1       4.734   7.091  16.349  0.00  0.00    +0.000 A 
ATOM     13  C   UNL     1       3.974   6.704  17.434  0.00  0.00    +0.000 A 
ATOM     14  C   UNL     1       3.241   7.594  18.232  0.00  0.00    +0.000 A 
ATOM     15  C   UNL     1       2.416   7.126  19.268  0.00  0.00    +0.000 A 
ATOM     16  C   UNL     1       2.449   5.741  19.474  0.00  0.00    +0.000 A 
ATOM     17  C   UNL     1       1.658   5.030  20.536  0.00  0.00    +0.000 C 
ATOM     18  N   UNL     1       3.208   4.892  18.718  0.00  0.00    +0.000 NA
ATOM     19  C   UNL     1       3.934   5.344  17.694  0.00  0.00    +0.000 A 
ATOM     20  N   UNL     1       4.595   4.473  16.938  0.00  0.00    +0.000 NA
ATOM     21  H   UNL     1       5.978   3.130  15.656  0.00  0.00    +0.000 HD
ENDBRANCH   1  15
BRANCH   6  22
ATOM     22  N   UNL     1      -0.522  11.018  19.081  0.00  0.00    +0.000 N 
ATOM     23  C   UNL     1      -0.066  12.270  18.796  0.00  0.00    +0.000 C 
ATOM     24  O   UNL     1      -0.761  13.007  18.096  0.00  0.00    +0.000 OA
ATOM     25  N   UNL     1       1.217  12.572  19.171  0.00  0.00    +0.000 N 
ATOM     26  H   UNL     1      -1.241  10.738  18.426  0.00  0.00    +0.000 HD
ATOM     27  H   UNL     1       1.559  12.124  20.007  0.00  0.00    +0.000 HD
BRANCH  25  28
ATOM     28  C   UNL     1       1.743  13.884  18.888  0.00  0.00    +0.000 C 
BRANCH  28  29
ATOM     29  C   UNL     1       3.050  13.854  18.086  0.00  0.00    +0.000 C 
BRANCH  29  30
ATOM     30  C   UNL     1       3.918  15.132  18.271  0.00  0.00    +0.000 C 
ATOM     31  C   UNL     1       3.333  16.306  17.466  0.00  0.00    +0.000 C 
ATOM     32  C   UNL     1       3.939  15.529  19.760  0.00  0.00    +0.000 C 
ATOM     33  C   UNL     1       5.370  14.881  17.825  0.00  0.00    +0.000 C 
ENDBRANCH  29  30
ENDBRANCH  28  29
ENDBRANCH  25  28
ENDBRANCH   6  22
TORSDOF 5
ENDMDL
MODEL 7
REMARK VINA RESULT:      -8.0      2.340      3.067
REMARK  Name = 
REMARK  10 active torsions:
REMARK  status: ('A' for Active; 'I' for Inactive)
REMARK    1  A    between atoms: C_1  and  N_2
REMARK    2  A    between atoms: C_8  and  C_9
REMARK    3  A    between atoms: C_14  and  N_15
REMARK    4  A    between atoms: N_18  and  C_19
REMARK    5  A    between atoms: C_19  and  C_20
REMARK    6  A    between atoms: C_20  and  C_21
REMARK    7  A    between atoms: C_21  and  C_22
REMARK    8  A    between atoms: C_21  and  C_23
REMARK    9  A    between atoms: C_21  and  C_24
REMARK   10  A    between atoms: C_26  and  C_27
REMARK                            x       y       z     vdW  Elec       q    Type
REMARK                         _______ _______ _______ _____ _____    ______ ____
ROOT
ATOM      1  C   UNL     1       1.965   5.833  20.041  0.00  0.00    +0.000 A 
ATOM      2  C   UNL     1       1.452   4.830  20.883  0.00  0.00    +0.000 A 
ATOM      3  C   UNL     1       1.789   3.486  20.702  0.00  0.00    +0.000 A 
ATOM      4  C   UNL     1       2.576   3.119  19.619  0.00  0.00    +0.000 A 
ATOM      5  F   UNL     1       2.871   1.822  19.444  0.00  0.00    +0.000 F 
ATOM      6  C   UNL     1       3.056   4.079  18.731  0.00  0.00    +0.000 A 
ATOM      7  C   UNL     1       2.806   5.427  18.983  0.00  0.00    +0.000 A 
ENDROOT
BRANCH   1  15
ATOM      8  C   UNL     1      -0.807  13.472  23.096  0.00  0.00    +0.000 C 
ATOM      9  N   UNL     1      -0.763  12.849  21.794  0.00  0.00    +0.000 N 
ATOM     10  C   UNL     1      -0.257  11.557  21.769  0.00  0.00    +0.000 A 
ATOM     11  N   UNL     1      -0.383  10.771  22.842  0.00  0.00    +0.000 NA
ATOM     12  C   UNL     1       0.087   9.524  22.725  0.00  0.00    +0.000 A 
ATOM     13  C   UNL     1       0.674   9.041  21.573  0.00  0.00    +0.000 A 
ATOM     14  C   UNL     1       1.126   7.722  21.422  0.00  0.00    +0.000 A 
ATOM     15  C   UNL     1       1.634   7.269  20.193  0.00  0.00    +0.000 A 
ATOM     16  C   UNL     1       1.715   8.241  19.189  0.00  0.00    +0.000 A 
ATOM     17  C   UNL     1       2.242   7.978  17.805  0.00  0.00    +0.000 C 
ATOM     18  N   UNL     1       1.316   9.536  19.369  0.00  0.00    +0.000 NA
ATOM     19  C   UNL     1       0.773   9.935  20.520  0.00  0.00    +0.000 A 
ATOM     20  N   UNL     1       0.328  11.183  20.625  0.00  0.00    +0.000 NA
ATOM     21  H   UNL     1      -0.298  13.369  21.057  0.00  0.00    +0.000 HD
ENDBRANCH   1  15
BRANCH   6  22
ATOM     22  N   UNL     1       3.792   3.754  17.585  0.00  0.00    +0.000 N 
ATOM     23  C   UNL     1       5.118   3.957  17.346  0.00  0.00    +0.000 C 
ATOM     24  O   UNL     1       5.577   3.636  16.250  0.00  0.00    +0.000 OA
ATOM     25  N   UNL     1       5.893   4.354  18.405  0.00  0.00    +0.000 N 
ATOM     26  H   UNL     1       3.408   3.080  16.935  0.00  0.00    +0.000 HD
ATOM     27  H   UNL     1       5.445   4.930  19.100  0.00  0.00    +0.000 HD
BRANCH  25  28
ATOM     28  C   UNL     1       7.303   4.579  18.201  0.00  0.00    +0.000 C 
BRANCH  28  29
ATOM     29  C   UNL     1       7.749   6.001  18.557  0.00  0.00    +0.000 C 
BRANCH  29  30
ATOM     30  C   UNL     1       7.295   7.069  17.520  0.00  0.00    +0.000 C 
ATOM     31  C   UNL     1       8.110   8.364  17.682  0.00  0.00    +0.000 C 
ATOM     32  C   UNL     1       7.520   6.530  16.094  0.00  0.00    +0.000 C 
ATOM     33  C   UNL     1       5.796   7.387  17.677  0.00  0.00    +0.000 C 
ENDBRANCH  29  30
ENDBRANCH  28  29
ENDBRANCH  25  28
ENDBRANCH   6  22
TORSDOF 5
ENDMDL
MODEL 8
REMARK VINA RESULT:      -8.0      2.179      3.073
REMARK  Name = 
REMARK  10 active torsions:
REMARK  status: ('A' for Active; 'I' for Inactive)
REMARK    1  A    between atoms: C_1  and  N_2
REMARK    2  A    between atoms: C_8  and  C_9
REMARK    3  A    between atoms: C_14  and  N_15
REMARK    4  A    between atoms: N_18  and  C_19
REMARK    5  A    between atoms: C_19  and  C_20
REMARK    6  A    between atoms: C_20  and  C_21
REMARK    7  A    between atoms: C_21  and  C_22
REMARK    8  A    between atoms: C_21  and  C_23
REMARK    9  A    between atoms: C_21  and  C_24
REMARK   10  A    between atoms: C_26  and  C_27
REMARK                            x       y       z     vdW  Elec       q    Type
REMARK                         _______ _______ _______ _____ _____    ______ ____
ROOT
ATOM      1  C   UNL     1       2.147   5.937  19.941  0.00  0.00    +0.000 A 
ATOM      2  C   UNL     1       1.992   4.944  20.925  0.00  0.00    +0.000 A 
ATOM      3  C   UNL     1       2.392   3.624  20.695  0.00  0.00    +0.000 A 
ATOM      4  C   UNL     1       2.871   3.263  19.444  0.00  0.00    +0.000 A 
ATOM      5  F   UNL     1       3.228   1.988  19.232  0.00  0.00    +0.000 F 
ATOM      6  C   UNL     1       2.986   4.208  18.427  0.00  0.00    +0.000 A 
ATOM      7  C   UNL     1       2.690   5.543  18.699  0.00  0.00    +0.000 A 
ENDROOT
BRANCH   1  15
ATOM      8  C   UNL     1      -1.116  13.294  23.196  0.00  0.00    +0.000 C 
ATOM      9  N   UNL     1      -0.999  12.727  21.873  0.00  0.00    +0.000 N 
ATOM     10  C   UNL     1      -0.425  11.465  21.814  0.00  0.00    +0.000 A 
ATOM     11  N   UNL     1      -0.542  10.630  22.852  0.00  0.00    +0.000 NA
ATOM     12  C   UNL     1      -0.005   9.415  22.702  0.00  0.00    +0.000 A 
ATOM     13  C   UNL     1       0.643   9.009  21.553  0.00  0.00    +0.000 A 
ATOM     14  C   UNL     1       1.168   7.723  21.365  0.00  0.00    +0.000 A 
ATOM     15  C   UNL     1       1.737   7.346  20.137  0.00  0.00    +0.000 A 
ATOM     16  C   UNL     1       1.798   8.361  19.174  0.00  0.00    +0.000 A 
ATOM     17  C   UNL     1       2.380   8.182  17.800  0.00  0.00    +0.000 C 
ATOM     18  N   UNL     1       1.326   9.625  19.391  0.00  0.00    +0.000 NA
ATOM     19  C   UNL     1       0.727   9.949  20.539  0.00  0.00    +0.000 A 
ATOM     20  N   UNL     1       0.214  11.167  20.677  0.00  0.00    +0.000 NA
ATOM     21  H   UNL     1      -0.540  13.299  21.173  0.00  0.00    +0.000 HD
ENDBRANCH   1  15
BRANCH   6  22
ATOM     22  N   UNL     1       3.395   3.881  17.128  0.00  0.00    +0.000 N 
ATOM     23  C   UNL     1       4.642   3.978  16.586  0.00  0.00    +0.000 C 
ATOM     24  O   UNL     1       4.796   3.677  15.402  0.00  0.00    +0.000 OA
ATOM     25  N   UNL     1       5.680   4.247  17.439  0.00  0.00    +0.000 N 
ATOM     26  H   UNL     1       2.804   3.279  16.569  0.00  0.00    +0.000 HD
ATOM     27  H   UNL     1       5.467   4.822  18.239  0.00  0.00    +0.000 HD
BRANCH  25  28
ATOM     28  C   UNL     1       7.017   4.355  16.910  0.00  0.00    +0.000 C 
BRANCH  28  29
ATOM     29  C   UNL     1       7.407   5.790  16.538  0.00  0.00    +0.000 C 
BRANCH  29  30
ATOM     30  C   UNL     1       7.239   6.800  17.709  0.00  0.00    +0.000 C 
ATOM     31  C   UNL     1       5.754   7.150  17.914  0.00  0.00    +0.000 C 
ATOM     32  C   UNL     1       7.773   6.173  19.011  0.00  0.00    +0.000 C 
ATOM     33  C   UNL     1       8.035   8.091  17.442  0.00  0.00    +0.000 C 
ENDBRANCH  29  30
ENDBRANCH  28  29
ENDBRANCH  25  28
ENDBRANCH   6  22
TORSDOF 5
ENDMDL
MODEL 9
REMARK VINA RESULT:      -7.9      5.054     10.863
REMARK  Name = 
REMARK  10 active torsions:
REMARK  status: ('A' for Active; 'I' for Inactive)
REMARK    1  A    between atoms: C_1  and  N_2
REMARK    2  A    between atoms: C_8  and  C_9
REMARK    3  A    between atoms: C_14  and  N_15
REMARK    4  A    between atoms: N_18  and  C_19
REMARK    5  A    between atoms: C_19  and  C_20
REMARK    6  A    between atoms: C_20  and  C_21
REMARK    7  A    between atoms: C_21  and  C_22
REMARK    8  A    between atoms: C_21  and  C_23
REMARK    9  A    between atoms: C_21  and  C_24
REMARK   10  A    between atoms: C_26  and  C_27
REMARK                            x       y       z     vdW  Elec       q    Type
REMARK                         _______ _______ _______ _____ _____    ______ ____
ROOT
ATOM      1  C   UNL     1       0.765  10.455  19.248  0.00  0.00    +0.000 A 
ATOM      2  C   UNL     1       1.608  11.563  19.052  0.00  0.00    +0.000 A 
ATOM      3  C   UNL     1       1.098  12.805  18.667  0.00  0.00    +0.000 A 
ATOM      4  C   UNL     1      -0.255  12.932  18.386  0.00  0.00    +0.000 A 
ATOM      5  F   UNL     1      -0.726  14.125  17.994  0.00  0.00    +0.000 F 
ATOM      6  C   UNL     1      -1.112  11.841  18.514  0.00  0.00    +0.000 A 
ATOM      7  C   UNL     1      -0.614  10.635  19.005  0.00  0.00    +0.000 A 
ENDROOT
BRANCH   1  15
ATOM      8  C   UNL     1       4.315   2.532  19.269  0.00  0.00    +0.000 C 
ATOM      9  N   UNL     1       3.197   3.151  19.942  0.00  0.00    +0.000 N 
ATOM     10  C   UNL     1       2.955   4.474  19.600  0.00  0.00    +0.000 A 
ATOM     11  N   UNL     1       3.286   4.920  18.384  0.00  0.00    +0.000 NA
ATOM     12  C   UNL     1       2.977   6.192  18.112  0.00  0.00    +0.000 A 
ATOM     13  C   UNL     1       2.349   7.029  19.012  0.00  0.00    +0.000 A 
ATOM     14  C   UNL     1       1.976   8.349  18.723  0.00  0.00    +0.000 A 
ATOM     15  C   UNL     1       1.259   9.119  19.653  0.00  0.00    +0.000 A 
ATOM     16  C   UNL     1       1.024   8.495  20.885  0.00  0.00    +0.000 A 
ATOM     17  C   UNL     1       0.293   9.141  22.028  0.00  0.00    +0.000 C 
ATOM     18  N   UNL     1       1.439   7.224  21.169  0.00  0.00    +0.000 NA
ATOM     19  C   UNL     1       2.059   6.480  20.251  0.00  0.00    +0.000 A 
ATOM     20  N   UNL     1       2.375   5.223  20.545  0.00  0.00    +0.000 NA
ATOM     21  H   UNL     1       3.191   3.096  20.955  0.00  0.00    +0.000 HD
ENDBRANCH   1  15
BRANCH   6  22
ATOM     22  N   UNL     1      -2.470  11.897  18.175  0.00  0.00    +0.000 N 
ATOM     23  C   UNL     1      -3.511  12.351  18.929  0.00  0.00    +0.000 C 
ATOM     24  O   UNL     1      -4.650  12.280  18.466  0.00  0.00    +0.000 OA
ATOM     25  N   UNL     1      -3.206  13.011  20.090  0.00  0.00    +0.000 N 
ATOM     26  H   UNL     1      -2.730  11.838  17.199  0.00  0.00    +0.000 HD
ATOM     27  H   UNL     1      -2.370  12.715  20.570  0.00  0.00    +0.000 HD
BRANCH  25  28
ATOM     28  C   UNL     1      -4.275  13.511  20.919  0.00  0.00    +0.000 C 
BRANCH  28  29
ATOM     29  C   UNL     1      -4.579  12.614  22.124  0.00  0.00    +0.000 C 
BRANCH  29  30
ATOM     30  C   UNL     1      -3.604  12.831  23.317  0.00  0.00    +0.000 C 
ATOM     31  C   UNL     1      -3.162  14.304  23.395  0.00  0.00    +0.000 C 
ATOM     32  C   UNL     1      -4.314  12.469  24.635  0.00  0.00    +0.000 C 
ATOM     33  C   UNL     1      -2.360  11.932  23.183  0.00  0.00    +0.000 C 
ENDBRANCH  29  30
ENDBRANCH  28  29
ENDBRANCH  25  28
ENDBRANCH   6  22
TORSDOF 5
ENDMDL
