MODEL 1
REMARK VINA RESULT:      -8.7      0.000      0.000
REMARK  Name = 
REMARK  9 active torsions:
REMARK  status: ('A' for Active; 'I' for Inactive)
REMARK    1  A    between atoms: C_1  and  O_2
REMARK    2  A    between atoms: O_2  and  C_3
REMARK    3  A    between atoms: C_5  and  C_6
REMARK    4  A    between atoms: C_12  and  C_13
REMARK    5  A    between atoms: C_17  and  N_18
REMARK    6  A    between atoms: C_25  and  O_26
REMARK    7  A    between atoms: O_26  and  C_27
REMARK    8  A    between atoms: C_28  and  O_29
REMARK    9  A    between atoms: O_29  and  C_30
REMARK                            x       y       z     vdW  Elec       q    Type
REMARK                         _______ _______ _______ _____ _____    ______ ____
ROOT
ATOM      1  C   UNL     1       4.200   3.685  17.820  0.00  0.00    +0.000 A 
ATOM      2  N   UNL     1       4.121   2.425  18.218  0.00  0.00    +0.000 NA
ATOM      3  N   UNL     1       3.176   2.335  19.217  0.00  0.00    +0.000 NA
ATOM      4  C   UNL     1       2.710   3.542  19.433  0.00  0.00    +0.000 A 
ATOM      5  C   UNL     1       1.763   4.044  20.349  0.00  0.00    +0.000 A 
ATOM      6  C   UNL     1       1.494   5.357  20.368  0.00  0.00    +0.000 A 
ATOM      7  C   UNL     1       2.207   6.230  19.383  0.00  0.00    +0.000 A 
ATOM      8  N   UNL     1       3.100   5.801  18.538  0.00  0.00    +0.000 NA
ATOM      9  N   UNL     1       3.317   4.441  18.585  0.00  0.00    +0.000 N 
ENDROOT
BRANCH   1  12
ATOM     10  C   UNL     1       6.937   5.769  16.261  0.00  0.00    +0.000 A 
ATOM     11  C   UNL     1       5.873   5.380  17.087  0.00  0.00    +0.000 A 
ATOM     12  C   UNL     1       5.125   4.235  16.824  0.00  0.00    +0.000 A 
ATOM     13  C   UNL     1       5.342   3.583  15.611  0.00  0.00    +0.000 A 
ATOM     14  C   UNL     1       6.327   4.025  14.704  0.00  0.00    +0.000 A 
ATOM     15  C   UNL     1       7.149   5.128  15.026  0.00  0.00    +0.000 A 
BRANCH  10  17
ATOM     16  C   UNL     1       7.744   6.998  18.100  0.00  0.00    +0.000 C 
ATOM     17  O   UNL     1       7.769   6.777  16.686  0.00  0.00    +0.000 OA
ENDBRANCH  10  17
BRANCH  14  18
ATOM     18  O   UNL     1       6.365   3.229  13.583  0.00  0.00    +0.000 OA
ATOM     19  C   UNL     1       5.369   3.375  12.583  0.00  0.00    +0.000 C 
ENDBRANCH  14  18
BRANCH  15  20
ATOM     20  O   UNL     1       8.100   5.464  14.104  0.00  0.00    +0.000 OA
ATOM     21  C   UNL     1       7.762   5.727  12.755  0.00  0.00    +0.000 C 
ENDBRANCH  15  20
ENDBRANCH   1  12
BRANCH   7  22
ATOM     22  C   UNL     1       1.882   7.691  19.403  0.00  0.00    +0.000 A 
ATOM     23  C   UNL     1       2.012   8.428  18.215  0.00  0.00    +0.000 A 
ATOM     24  C   UNL     1       1.696   9.788  18.173  0.00  0.00    +0.000 A 
ATOM     25  C   UNL     1       1.265  10.438  19.329  0.00  0.00    +0.000 A 
ATOM     26  C   UNL     1       1.140   9.709  20.519  0.00  0.00    +0.000 A 
ATOM     27  C   UNL     1       1.426   8.334  20.558  0.00  0.00    +0.000 A 
BRANCH  26  28
ATOM     28  N   UNL     1       0.716  10.390  21.749  0.00  0.00    +0.000 N 
ATOM     29  O   UNL     1       0.437  11.594  21.675  0.00  0.00    +0.000 OA
ATOM     30  O   UNL     1       0.675   9.719  22.791  0.00  0.00    +0.000 OA
ENDBRANCH  26  28
ENDBRANCH   7  22
TORSDOF 6
ENDMDL
MODEL 2
REMARK VINA RESULT:      -8.5      0.648      2.398
REMARK  Name = 
REMARK  9 active torsions:
REMARK  status: ('A' for Active; 'I' for Inactive)
REMARK    1  A    between atoms: C_1  and  O_2
REMARK    2  A    between atoms: O_2  and  C_3
REMARK    3  A    between atoms: C_5  and  C_6
REMARK    4  A    between atoms: C_12  and  C_13
REMARK    5  A    between atoms: C_17  and  N_18
REMARK    6  A    between atoms: C_25  and  O_26
REMARK    7  A    between atoms: O_26  and  C_27
REMARK    8  A    between atoms: C_28  and  O_29
REMARK    9  A    between atoms: O_29  and  C_30
REMARK                            x       y       z     vdW  Elec       q    Type
REMARK                         _______ _______ _______ _____ _____    ______ ____
ROOT
ATOM      1  C   UNL     1       4.402   3.700  18.237  0.00  0.00    +0.000 A 
ATOM      2  N   UNL     1       4.444   2.510  18.813  0.00  0.00    +0.000 NA
ATOM      3  N   UNL     1       3.586   2.509  19.893  0.00  0.00    +0.000 NA
ATOM      4  C   UNL     1       3.052   3.705  19.974  0.00  0.00    +0.000 A 
ATOM      5  C   UNL     1       2.144   4.278  20.888  0.00  0.00    +0.000 A 
ATOM      6  C   UNL     1       1.782   5.560  20.744  0.00  0.00    +0.000 A 
ATOM      7  C   UNL     1       2.353   6.321  19.589  0.00  0.00    +0.000 A 
ATOM      8  N   UNL     1       3.209   5.827  18.740  0.00  0.00    +0.000 NA
ATOM      9  N   UNL     1       3.527   4.504  18.960  0.00  0.00    +0.000 N 
ENDROOT
BRANCH   1  12
ATOM     10  C   UNL     1       5.508   4.346  14.684  0.00  0.00    +0.000 A 
ATOM     11  C   UNL     1       4.922   3.733  15.801  0.00  0.00    +0.000 A 
ATOM     12  C   UNL     1       5.206   4.152  17.098  0.00  0.00    +0.000 A 
ATOM     13  C   UNL     1       6.234   5.078  17.269  0.00  0.00    +0.000 A 
ATOM     14  C   UNL     1       6.925   5.624  16.167  0.00  0.00    +0.000 A 
ATOM     15  C   UNL     1       6.559   5.267  14.849  0.00  0.00    +0.000 A 
BRANCH  10  17
ATOM     16  C   UNL     1       5.840   3.104  12.712  0.00  0.00    +0.000 C 
ATOM     17  O   UNL     1       5.029   4.038  13.433  0.00  0.00    +0.000 OA
ENDBRANCH  10  17
BRANCH  14  18
ATOM     18  O   UNL     1       7.888   6.517  16.575  0.00  0.00    +0.000 OA
ATOM     19  C   UNL     1       7.566   7.505  17.542  0.00  0.00    +0.000 C 
ENDBRANCH  14  18
BRANCH  15  20
ATOM     20  O   UNL     1       7.258   5.872  13.843  0.00  0.00    +0.000 OA
ATOM     21  C   UNL     1       8.272   5.187  13.132  0.00  0.00    +0.000 C 
ENDBRANCH  15  20
ENDBRANCH   1  12
BRANCH   7  22
ATOM     22  C   UNL     1       1.927   7.746  19.429  0.00  0.00    +0.000 A 
ATOM     23  C   UNL     1       2.111   8.371  18.186  0.00  0.00    +0.000 A 
ATOM     24  C   UNL     1       1.704   9.692  17.976  0.00  0.00    +0.000 A 
ATOM     25  C   UNL     1       1.127  10.416  19.020  0.00  0.00    +0.000 A 
ATOM     26  C   UNL     1       0.947   9.798  20.264  0.00  0.00    +0.000 A 
ATOM     27  C   UNL     1       1.325   8.461  20.469  0.00  0.00    +0.000 A 
BRANCH  26  28
ATOM     28  N   UNL     1       0.368  10.561  21.378  0.00  0.00    +0.000 N 
ATOM     29  O   UNL     1       0.812  11.696  21.592  0.00  0.00    +0.000 OA
ATOM     30  O   UNL     1      -0.525  10.015  22.043  0.00  0.00    +0.000 OA
ENDBRANCH  26  28
ENDBRANCH   7  22
TORSDOF 6
ENDMDL
MODEL 3
REMARK VINA RESULT:      -8.2      4.072      6.615
REMARK  Name = 
REMARK  9 active torsions:
REMARK  status: ('A' for Active; 'I' for Inactive)
REMARK    1  A    between atoms: C_1  and  O_2
REMARK    2  A    between atoms: O_2  and  C_3
REMARK    3  A    between atoms: C_5  and  C_6
REMARK    4  A    between atoms: C_12  and  C_13
REMARK    5  A    between atoms: C_17  and  N_18
REMARK    6  A    between atoms: C_25  and  O_26
REMARK    7  A    between atoms: O_26  and  C_27
REMARK    8  A    between atoms: C_28  and  O_29
REMARK    9  A    between atoms: O_29  and  C_30
REMARK                            x       y       z     vdW  Elec       q    Type
REMARK                         _______ _______ _______ _____ _____    ______ ____
ROOT
ATOM      1  C   UNL     1       1.271   8.453  20.948  0.00  0.00    +0.000 A 
ATOM      2  N   UNL     1       1.829   8.825  22.089  0.00  0.00    +0.000 NA
ATOM      3  N   UNL     1       1.240   9.999  22.508  0.00  0.00    +0.000 NA
ATOM      4  C   UNL     1       0.351  10.340  21.606  0.00  0.00    +0.000 A 
ATOM      5  C   UNL     1      -0.513  11.450  21.497  0.00  0.00    +0.000 A 
ATOM      6  C   UNL     1      -1.316  11.560  20.429  0.00  0.00    +0.000 A 
ATOM      7  C   UNL     1      -1.268  10.470  19.404  0.00  0.00    +0.000 A 
ATOM      8  N   UNL     1      -0.468   9.444  19.466  0.00  0.00    +0.000 NA
ATOM      9  N   UNL     1       0.322   9.408  20.594  0.00  0.00    +0.000 N 
ENDROOT
BRANCH   1  12
ATOM     10  C   UNL     1       2.918   6.370  18.262  0.00  0.00    +0.000 A 
ATOM     11  C   UNL     1       2.335   7.459  18.927  0.00  0.00    +0.000 A 
ATOM     12  C   UNL     1       1.643   7.299  20.124  0.00  0.00    +0.000 A 
ATOM     13  C   UNL     1       1.382   5.998  20.553  0.00  0.00    +0.000 A 
ATOM     14  C   UNL     1       1.855   4.878  19.839  0.00  0.00    +0.000 A 
ATOM     15  C   UNL     1       2.643   5.054  18.679  0.00  0.00    +0.000 A 
BRANCH  10  17
ATOM     16  C   UNL     1       5.135   6.786  17.589  0.00  0.00    +0.000 C 
ATOM     17  O   UNL     1       3.766   6.615  17.209  0.00  0.00    +0.000 OA
ENDBRANCH  10  17
BRANCH  14  18
ATOM     18  O   UNL     1       1.484   3.704  20.451  0.00  0.00    +0.000 OA
ATOM     19  C   UNL     1       2.159   3.281  21.626  0.00  0.00    +0.000 C 
ENDBRANCH  14  18
BRANCH  15  20
ATOM     20  O   UNL     1       3.088   3.914  18.071  0.00  0.00    +0.000 OA
ATOM     21  C   UNL     1       4.291   3.285  18.471  0.00  0.00    +0.000 C 
ENDBRANCH  15  20
ENDBRANCH   1  12
BRANCH   7  22
ATOM     22  C   UNL     1      -2.183  10.596  18.227  0.00  0.00    +0.000 A 
ATOM     23  C   UNL     1      -1.734  10.156  16.972  0.00  0.00    +0.000 A 
ATOM     24  C   UNL     1      -2.560  10.226  15.847  0.00  0.00    +0.000 A 
ATOM     25  C   UNL     1      -3.842  10.762  15.958  0.00  0.00    +0.000 A 
ATOM     26  C   UNL     1      -4.293  11.209  17.206  0.00  0.00    +0.000 A 
ATOM     27  C   UNL     1      -3.478  11.111  18.346  0.00  0.00    +0.000 A 
BRANCH  26  28
ATOM     28  N   UNL     1      -5.630  11.804  17.328  0.00  0.00    +0.000 N 
ATOM     29  O   UNL     1      -6.482  11.178  17.973  0.00  0.00    +0.000 OA
ATOM     30  O   UNL     1      -5.828  12.892  16.768  0.00  0.00    +0.000 OA
ENDBRANCH  26  28
ENDBRANCH   7  22
TORSDOF 6
ENDMDL
MODEL 4
REMARK VINA RESULT:      -8.1      4.120      6.687
REMARK  Name = 
REMARK  9 active torsions:
REMARK  status: ('A' for Active; 'I' for Inactive)
REMARK    1  A    between atoms: C_1  and  O_2
REMARK    2  A    between atoms: O_2  and  C_3
REMARK    3  A    between atoms: C_5  and  C_6
REMARK    4  A    between atoms: C_12  and  C_13
REMARK    5  A    between atoms: C_17  and  N_18
REMARK    6  A    between atoms: C_25  and  O_26
REMARK    7  A    between atoms: O_26  and  C_27
REMARK    8  A    between atoms: C_28  and  O_29
REMARK    9  A    between atoms: O_29  and  C_30
REMARK                            x       y       z     vdW  Elec       q    Type
REMARK                         _______ _______ _______ _____ _____    ______ ____
ROOT
ATOM      1  C   UNL     1       1.249   8.500  21.191  0.00  0.00    +0.000 A 
ATOM      2  N   UNL     1       1.749   8.890  22.352  0.00  0.00    +0.000 NA
ATOM      3  N   UNL     1       1.111  10.049  22.742  0.00  0.00    +0.000 NA
ATOM      4  C   UNL     1       0.250  10.362  21.804  0.00  0.00    +0.000 A 
ATOM      5  C   UNL     1      -0.640  11.446  21.656  0.00  0.00    +0.000 A 
ATOM      6  C   UNL     1      -1.401  11.530  20.555  0.00  0.00    +0.000 A 
ATOM      7  C   UNL     1      -1.281  10.440  19.538  0.00  0.00    +0.000 A 
ATOM      8  N   UNL     1      -0.455   9.437  19.636  0.00  0.00    +0.000 NA
ATOM      9  N   UNL     1       0.289   9.426  20.795  0.00  0.00    +0.000 N 
ENDROOT
BRANCH   1  12
ATOM     10  C   UNL     1       1.510   4.983  19.841  0.00  0.00    +0.000 A 
ATOM     11  C   UNL     1       1.321   6.054  20.726  0.00  0.00    +0.000 A 
ATOM     12  C   UNL     1       1.686   7.354  20.388  0.00  0.00    +0.000 A 
ATOM     13  C   UNL     1       2.418   7.538  19.215  0.00  0.00    +0.000 A 
ATOM     14  C   UNL     1       2.727   6.458  18.363  0.00  0.00    +0.000 A 
ATOM     15  C   UNL     1       2.264   5.157  18.666  0.00  0.00    +0.000 A 
BRANCH  10  17
ATOM     16  C   UNL     1       1.564   3.080  21.227  0.00  0.00    +0.000 C 
ATOM     17  O   UNL     1       0.938   3.769  20.139  0.00  0.00    +0.000 OA
ENDBRANCH  10  17
BRANCH  14  18
ATOM     18  O   UNL     1       3.447   6.877  17.269  0.00  0.00    +0.000 OA
ATOM     19  C   UNL     1       4.865   6.836  17.303  0.00  0.00    +0.000 C 
ENDBRANCH  14  18
BRANCH  15  20
ATOM     20  O   UNL     1       2.580   4.178  17.766  0.00  0.00    +0.000 OA
ATOM     21  C   UNL     1       3.694   3.327  17.961  0.00  0.00    +0.000 C 
ENDBRANCH  15  20
ENDBRANCH   1  12
BRANCH   7  22
ATOM     22  C   UNL     1      -2.151  10.537  18.324  0.00  0.00    +0.000 A 
ATOM     23  C   UNL     1      -1.662  10.049  17.102  0.00  0.00    +0.000 A 
ATOM     24  C   UNL     1      -2.444  10.091  15.945  0.00  0.00    +0.000 A 
ATOM     25  C   UNL     1      -3.723  10.645  15.990  0.00  0.00    +0.000 A 
ATOM     26  C   UNL     1      -4.213  11.139  17.206  0.00  0.00    +0.000 A 
ATOM     27  C   UNL     1      -3.443  11.070  18.378  0.00  0.00    +0.000 A 
BRANCH  26  28
ATOM     28  N   UNL     1      -5.547  11.752  17.258  0.00  0.00    +0.000 N 
ATOM     29  O   UNL     1      -5.704  12.840  16.688  0.00  0.00    +0.000 OA
ATOM     30  O   UNL     1      -6.433  11.147  17.880  0.00  0.00    +0.000 OA
ENDBRANCH  26  28
ENDBRANCH   7  22
TORSDOF 6
ENDMDL
MODEL 5
REMARK VINA RESULT:      -8.0      1.430      1.817
REMARK  Name = 
REMARK  9 active torsions:
REMARK  status: ('A' for Active; 'I' for Inactive)
REMARK    1  A    between atoms: C_1  and  O_2
REMARK    2  A    between atoms: O_2  and  C_3
REMARK    3  A    between atoms: C_5  and  C_6
REMARK    4  A    between atoms: C_12  and  C_13
REMARK    5  A    between atoms: C_17  and  N_18
REMARK    6  A    between atoms: C_25  and  O_26
REMARK    7  A    between atoms: O_26  and  C_27
REMARK    8  A    between atoms: C_28  and  O_29
REMARK    9  A    between atoms: O_29  and  C_30
REMARK                            x       y       z     vdW  Elec       q    Type
REMARK                         _______ _______ _______ _____ _____    ______ ____
ROOT
ATOM      1  C   UNL     1       4.010   3.274  17.705  0.00  0.00    +0.000 A 
ATOM      2  N   UNL     1       3.901   1.965  17.866  0.00  0.00    +0.000 NA
ATOM      3  N   UNL     1       2.937   1.715  18.819  0.00  0.00    +0.000 NA
ATOM      4  C   UNL     1       2.490   2.873  19.244  0.00  0.00    +0.000 A 
ATOM      5  C   UNL     1       1.536   3.221  20.223  0.00  0.00    +0.000 A 
ATOM      6  C   UNL     1       1.291   4.514  20.476  0.00  0.00    +0.000 A 
ATOM      7  C   UNL     1       2.037   5.536  19.676  0.00  0.00    +0.000 A 
ATOM      8  N   UNL     1       2.937   5.247  18.779  0.00  0.00    +0.000 NA
ATOM      9  N   UNL     1       3.128   3.897  18.582  0.00  0.00    +0.000 N 
ENDROOT
BRANCH   1  12
ATOM     10  C   UNL     1       6.784   5.578  16.583  0.00  0.00    +0.000 A 
ATOM     11  C   UNL     1       5.697   5.063  17.304  0.00  0.00    +0.000 A 
ATOM     12  C   UNL     1       4.962   3.975  16.838  0.00  0.00    +0.000 A 
ATOM     13  C   UNL     1       5.218   3.527  15.543  0.00  0.00    +0.000 A 
ATOM     14  C   UNL     1       6.228   4.107  14.748  0.00  0.00    +0.000 A 
ATOM     15  C   UNL     1       7.036   5.143  15.268  0.00  0.00    +0.000 A 
BRANCH  10  17
ATOM     16  C   UNL     1       7.758   6.309  18.598  0.00  0.00    +0.000 C 
ATOM     17  O   UNL     1       7.600   6.504  17.189  0.00  0.00    +0.000 OA
ENDBRANCH  10  17
BRANCH  14  18
ATOM     18  O   UNL     1       6.303   3.500  13.517  0.00  0.00    +0.000 OA
ATOM     19  C   UNL     1       5.165   3.489  12.668  0.00  0.00    +0.000 C 
ENDBRANCH  14  18
BRANCH  15  20
ATOM     20  O   UNL     1       8.013   5.621  14.441  0.00  0.00    +0.000 OA
ATOM     21  C   UNL     1       7.869   5.591  13.033  0.00  0.00    +0.000 C 
ENDBRANCH  15  20
ENDBRANCH   1  12
BRANCH   7  22
ATOM     22  C   UNL     1       1.739   6.975  19.955  0.00  0.00    +0.000 A 
ATOM     23  C   UNL     1       1.279   7.335  21.232  0.00  0.00    +0.000 A 
ATOM     24  C   UNL     1       1.012   8.669  21.552  0.00  0.00    +0.000 A 
ATOM     25  C   UNL     1       1.180   9.662  20.588  0.00  0.00    +0.000 A 
ATOM     26  C   UNL     1       1.633   9.308  19.311  0.00  0.00    +0.000 A 
ATOM     27  C   UNL     1       1.932   7.973  18.994  0.00  0.00    +0.000 A 
BRANCH  26  28
ATOM     28  N   UNL     1       1.784  10.342  18.279  0.00  0.00    +0.000 N 
ATOM     29  O   UNL     1       2.351  10.026  17.224  0.00  0.00    +0.000 OA
ATOM     30  O   UNL     1       1.344  11.473  18.531  0.00  0.00    +0.000 OA
ENDBRANCH  26  28
ENDBRANCH   7  22
TORSDOF 6
ENDMDL
MODEL 6
REMARK VINA RESULT:      -7.7      1.621      3.023
REMARK  Name = 
REMARK  9 active torsions:
REMARK  status: ('A' for Active; 'I' for Inactive)
REMARK    1  A    between atoms: C_1  and  O_2
REMARK    2  A    between atoms: O_2  and  C_3
REMARK    3  A    between atoms: C_5  and  C_6
REMARK    4  A    between atoms: C_12  and  C_13
REMARK    5  A    between atoms: C_17  and  N_18
REMARK    6  A    between atoms: C_25  and  O_26
REMARK    7  A    between atoms: O_26  and  C_27
REMARK    8  A    between atoms: C_28  and  O_29
REMARK    9  A    between atoms: O_29  and  C_30
REMARK                            x       y       z     vdW  Elec       q    Type
REMARK                         _______ _______ _______ _____ _____    ______ ____
ROOT
ATOM      1  C   UNL     1       3.901   2.967  17.951  0.00  0.00    +0.000 A 
ATOM      2  N   UNL     1       3.748   1.668  18.153  0.00  0.00    +0.000 NA
ATOM      3  N   UNL     1       2.753   1.479  19.089  0.00  0.00    +0.000 NA
ATOM      4  C   UNL     1       2.331   2.664  19.463  0.00  0.00    +0.000 A 
ATOM      5  C   UNL     1       1.365   3.073  20.405  0.00  0.00    +0.000 A 
ATOM      6  C   UNL     1       1.152   4.381  20.607  0.00  0.00    +0.000 A 
ATOM      7  C   UNL     1       1.948   5.352  19.793  0.00  0.00    +0.000 A 
ATOM      8  N   UNL     1       2.861   5.007  18.930  0.00  0.00    +0.000 NA
ATOM      9  N   UNL     1       3.016   3.645  18.783  0.00  0.00    +0.000 N 
ENDROOT
BRANCH   1  12
ATOM     10  C   UNL     1       5.569   4.372  14.868  0.00  0.00    +0.000 A 
ATOM     11  C   UNL     1       4.784   3.559  15.698  0.00  0.00    +0.000 A 
ATOM     12  C   UNL     1       4.895   3.609  17.086  0.00  0.00    +0.000 A 
ATOM     13  C   UNL     1       5.940   4.356  17.626  0.00  0.00    +0.000 A 
ATOM     14  C   UNL     1       6.822   5.090  16.807  0.00  0.00    +0.000 A 
ATOM     15  C   UNL     1       6.638   5.113  15.405  0.00  0.00    +0.000 A 
BRANCH  10  17
ATOM     16  C   UNL     1       5.619   3.259  12.794  0.00  0.00    +0.000 C 
ATOM     17  O   UNL     1       5.267   4.437  13.529  0.00  0.00    +0.000 OA
ENDBRANCH  10  17
BRANCH  14  18
ATOM     18  O   UNL     1       7.765   5.752  17.557  0.00  0.00    +0.000 OA
ATOM     19  C   UNL     1       7.776   5.598  18.968  0.00  0.00    +0.000 C 
ENDBRANCH  14  18
BRANCH  15  20
ATOM     20  O   UNL     1       7.517   5.880  14.693  0.00  0.00    +0.000 OA
ATOM     21  C   UNL     1       8.145   5.390  13.523  0.00  0.00    +0.000 C 
ENDBRANCH  15  20
ENDBRANCH   1  12
BRANCH   7  22
ATOM     22  C   UNL     1       1.687   6.808  20.016  0.00  0.00    +0.000 A 
ATOM     23  C   UNL     1       1.195   7.224  21.263  0.00  0.00    +0.000 A 
ATOM     24  C   UNL     1       0.960   8.575  21.531  0.00  0.00    +0.000 A 
ATOM     25  C   UNL     1       1.194   9.531  20.543  0.00  0.00    +0.000 A 
ATOM     26  C   UNL     1       1.679   9.121  19.294  0.00  0.00    +0.000 A 
ATOM     27  C   UNL     1       1.947   7.768  19.031  0.00  0.00    +0.000 A 
BRANCH  26  28
ATOM     28  N   UNL     1       1.900  10.116  18.236  0.00  0.00    +0.000 N 
ATOM     29  O   UNL     1       2.278   9.707  17.130  0.00  0.00    +0.000 OA
ATOM     30  O   UNL     1       1.705  11.307  18.519  0.00  0.00    +0.000 OA
ENDBRANCH  26  28
ENDBRANCH   7  22
TORSDOF 6
ENDMDL
MODEL 7
REMARK VINA RESULT:      -7.6      2.058      7.897
REMARK  Name = 
REMARK  9 active torsions:
REMARK  status: ('A' for Active; 'I' for Inactive)
REMARK    1  A    between atoms: C_1  and  O_2
REMARK    2  A    between atoms: O_2  and  C_3
REMARK    3  A    between atoms: C_5  and  C_6
REMARK    4  A    between atoms: C_12  and  C_13
REMARK    5  A    between atoms: C_17  and  N_18
REMARK    6  A    between atoms: C_25  and  O_26
REMARK    7  A    between atoms: O_26  and  C_27
REMARK    8  A    between atoms: C_28  and  O_29
REMARK    9  A    between atoms: O_29  and  C_30
REMARK                            x       y       z     vdW  Elec       q    Type
REMARK                         _______ _______ _______ _____ _____    ______ ____
ROOT
ATOM      1  C   UNL     1       1.806   4.771  20.210  0.00  0.00    +0.000 A 
ATOM      2  N   UNL     1       1.094   3.905  20.913  0.00  0.00    +0.000 NA
ATOM      3  N   UNL     1       1.463   2.628  20.547  0.00  0.00    +0.000 NA
ATOM      4  C   UNL     1       2.375   2.732  19.610  0.00  0.00    +0.000 A 
ATOM      5  C   UNL     1       3.076   1.768  18.856  0.00  0.00    +0.000 A 
ATOM      6  C   UNL     1       3.952   2.168  17.924  0.00  0.00    +0.000 A 
ATOM      7  C   UNL     1       4.161   3.639  17.746  0.00  0.00    +0.000 A 
ATOM      8  N   UNL     1       3.516   4.554  18.413  0.00  0.00    +0.000 NA
ATOM      9  N   UNL     1       2.635   4.058  19.350  0.00  0.00    +0.000 N 
ENDROOT
BRANCH   1  12
ATOM     10  C   UNL     1       2.044   8.389  19.152  0.00  0.00    +0.000 A 
ATOM     11  C   UNL     1       2.346   7.027  19.303  0.00  0.00    +0.000 A 
ATOM     12  C   UNL     1       1.686   6.232  20.236  0.00  0.00    +0.000 A 
ATOM     13  C   UNL     1       0.844   6.866  21.149  0.00  0.00    +0.000 A 
ATOM     14  C   UNL     1       0.614   8.256  21.096  0.00  0.00    +0.000 A 
ATOM     15  C   UNL     1       1.211   9.039  20.082  0.00  0.00    +0.000 A 
BRANCH  10  17
ATOM     16  C   UNL     1       3.401   8.267  17.232  0.00  0.00    +0.000 C 
ATOM     17  O   UNL     1       2.568   9.068  18.078  0.00  0.00    +0.000 OA
ENDBRANCH  10  17
BRANCH  14  18
ATOM     18  O   UNL     1      -0.252   8.656  22.087  0.00  0.00    +0.000 OA
ATOM     19  C   UNL     1       0.235   9.423  23.177  0.00  0.00    +0.000 C 
ENDBRANCH  14  18
BRANCH  15  20
ATOM     20  O   UNL     1       0.904  10.370  20.086  0.00  0.00    +0.000 OA
ATOM     21  C   UNL     1      -0.200  10.876  19.357  0.00  0.00    +0.000 C 
ENDBRANCH  15  20
ENDBRANCH   1  12
BRANCH   7  22
ATOM     22  C   UNL     1       5.156   4.070  16.716  0.00  0.00    +0.000 A 
ATOM     23  C   UNL     1       6.253   4.848  17.119  0.00  0.00    +0.000 A 
ATOM     24  C   UNL     1       7.224   5.254  16.200  0.00  0.00    +0.000 A 
ATOM     25  C   UNL     1       7.100   4.904  14.856  0.00  0.00    +0.000 A 
ATOM     26  C   UNL     1       6.004   4.133  14.447  0.00  0.00    +0.000 A 
ATOM     27  C   UNL     1       5.042   3.697  15.373  0.00  0.00    +0.000 A 
BRANCH  26  28
ATOM     28  N   UNL     1       5.846   3.785  13.029  0.00  0.00    +0.000 N 
ATOM     29  O   UNL     1       6.861   3.789  12.318  0.00  0.00    +0.000 OA
ATOM     30  O   UNL     1       4.704   3.519  12.627  0.00  0.00    +0.000 OA
ENDBRANCH  26  28
ENDBRANCH   7  22
TORSDOF 6
ENDMDL
MODEL 8
REMARK VINA RESULT:      -7.5      4.183      9.826
REMARK  Name = 
REMARK  9 active torsions:
REMARK  status: ('A' for Active; 'I' for Inactive)
REMARK    1  A    between atoms: C_1  and  O_2
REMARK    2  A    between atoms: O_2  and  C_3
REMARK    3  A    between atoms: C_5  and  C_6
REMARK    4  A    between atoms: C_12  and  C_13
REMARK    5  A    between atoms: C_17  and  N_18
REMARK    6  A    between atoms: C_25  and  O_26
REMARK    7  A    between atoms: O_26  and  C_27
REMARK    8  A    between atoms: C_28  and  O_29
REMARK    9  A    between atoms: O_29  and  C_30
REMARK                            x       y       z     vdW  Elec       q    Type
REMARK                         _______ _______ _______ _____ _____    ______ ____
ROOT
ATOM      1  C   UNL     1      -0.052  13.130  21.735  0.00  0.00    +0.000 A 
ATOM      2  N   UNL     1      -0.847  13.448  22.744  0.00  0.00    +0.000 NA
ATOM      3  N   UNL     1      -1.263  12.288  23.362  0.00  0.00    +0.000 NA
ATOM      4  C   UNL     1      -0.737  11.280  22.709  0.00  0.00    +0.000 A 
ATOM      5  C   UNL     1      -0.844   9.883  22.872  0.00  0.00    +0.000 A 
ATOM      6  C   UNL     1      -0.204   9.068  22.022  0.00  0.00    +0.000 A 
ATOM      7  C   UNL     1       0.622   9.693  20.942  0.00  0.00    +0.000 A 
ATOM      8  N   UNL     1       0.725  10.978  20.753  0.00  0.00    +0.000 NA
ATOM      9  N   UNL     1       0.037  11.744  21.669  0.00  0.00    +0.000 N 
ENDROOT
BRANCH   1  12
ATOM     10  C   UNL     1       0.301  15.746  19.034  0.00  0.00    +0.000 A 
ATOM     11  C   UNL     1      -0.205  14.678  19.789  0.00  0.00    +0.000 A 
ATOM     12  C   UNL     1       0.558  14.054  20.773  0.00  0.00    +0.000 A 
ATOM     13  C   UNL     1       1.906  14.396  20.863  0.00  0.00    +0.000 A 
ATOM     14  C   UNL     1       2.472  15.384  20.032  0.00  0.00    +0.000 A 
ATOM     15  C   UNL     1       1.666  16.083  19.105  0.00  0.00    +0.000 A 
BRANCH  10  17
ATOM     16  C   UNL     1      -1.297  17.472  18.929  0.00  0.00    +0.000 C 
ATOM     17  O   UNL     1      -0.561  16.458  18.235  0.00  0.00    +0.000 OA
ENDBRANCH  10  17
BRANCH  14  18
ATOM     18  O   UNL     1       3.810  15.557  20.302  0.00  0.00    +0.000 OA
ATOM     19  C   UNL     1       4.370  14.979  21.472  0.00  0.00    +0.000 C 
ENDBRANCH  14  18
BRANCH  15  20
ATOM     20  O   UNL     1       2.290  17.049  18.367  0.00  0.00    +0.000 OA
ATOM     21  C   UNL     1       2.988  16.733  17.177  0.00  0.00    +0.000 C 
ENDBRANCH  15  20
ENDBRANCH   1  12
BRANCH   7  22
ATOM     22  C   UNL     1       1.346   8.771  20.013  0.00  0.00    +0.000 A 
ATOM     23  C   UNL     1       1.550   9.175  18.684  0.00  0.00    +0.000 A 
ATOM     24  C   UNL     1       2.243   8.362  17.783  0.00  0.00    +0.000 A 
ATOM     25  C   UNL     1       2.725   7.120  18.195  0.00  0.00    +0.000 A 
ATOM     26  C   UNL     1       2.518   6.710  19.518  0.00  0.00    +0.000 A 
ATOM     27  C   UNL     1       1.849   7.537  20.436  0.00  0.00    +0.000 A 
BRANCH  26  28
ATOM     28  N   UNL     1       2.994   5.390  19.955  0.00  0.00    +0.000 N 
ATOM     29  O   UNL     1       3.965   4.902  19.361  0.00  0.00    +0.000 OA
ATOM     30  O   UNL     1       2.386   4.841  20.885  0.00  0.00    +0.000 OA
ENDBRANCH  26  28
ENDBRANCH   7  22
TORSDOF 6
ENDMDL
MODEL 9
REMARK VINA RESULT:      -7.2      3.901      9.330
REMARK  Name = 
REMARK  9 active torsions:
REMARK  status: ('A' for Active; 'I' for Inactive)
REMARK    1  A    between atoms: C_1  and  O_2
REMARK    2  A    between atoms: O_2  and  C_3
REMARK    3  A    between atoms: C_5  and  C_6
REMARK    4  A    between atoms: C_12  and  C_13
REMARK    5  A    between atoms: C_17  and  N_18
REMARK    6  A    between atoms: C_25  and  O_26
REMARK    7  A    between atoms: O_26  and  C_27
REMARK    8  A    between atoms: C_28  and  O_29
REMARK    9  A    between atoms: O_29  and  C_30
REMARK                            x       y       z     vdW  Elec       q    Type
REMARK                         _______ _______ _______ _____ _____    ______ ____
ROOT
ATOM      1  C   UNL     1       0.141  12.433  21.778  0.00  0.00    +0.000 A 
ATOM      2  N   UNL     1      -0.672  12.649  22.799  0.00  0.00    +0.000 NA
ATOM      3  N   UNL     1      -1.053  11.434  23.327  0.00  0.00    +0.000 NA
ATOM      4  C   UNL     1      -0.488  10.494  22.607  0.00  0.00    +0.000 A 
ATOM      5  C   UNL     1      -0.549   9.087  22.667  0.00  0.00    +0.000 A 
ATOM      6  C   UNL     1       0.124   8.357  21.766  0.00  0.00    +0.000 A 
ATOM      7  C   UNL     1       0.937   9.087  20.743  0.00  0.00    +0.000 A 
ATOM      8  N   UNL     1       0.998  10.385  20.649  0.00  0.00    +0.000 NA
ATOM      9  N   UNL     1       0.277  11.058  21.612  0.00  0.00    +0.000 N 
ENDROOT
BRANCH   1  12
ATOM     10  C   UNL     1       2.679  14.363  19.754  0.00  0.00    +0.000 A 
ATOM     11  C   UNL     1       2.106  13.588  20.773  0.00  0.00    +0.000 A 
ATOM     12  C   UNL     1       0.726  13.444  20.893  0.00  0.00    +0.000 A 
ATOM     13  C   UNL     1      -0.081  14.242  20.083  0.00  0.00    +0.000 A 
ATOM     14  C   UNL     1       0.471  15.121  19.130  0.00  0.00    +0.000 A 
ATOM     15  C   UNL     1       1.871  15.185  18.947  0.00  0.00    +0.000 A 
BRANCH  10  17
ATOM     16  C   UNL     1       4.797  15.157  20.410  0.00  0.00    +0.000 C 
ATOM     17  O   UNL     1       4.038  14.294  19.556  0.00  0.00    +0.000 OA
ENDBRANCH  10  17
BRANCH  14  18
ATOM     18  O   UNL     1      -0.512  15.797  18.446  0.00  0.00    +0.000 OA
ATOM     19  C   UNL     1      -0.996  17.033  18.951  0.00  0.00    +0.000 C 
ENDBRANCH  14  18
BRANCH  15  20
ATOM     20  O   UNL     1       2.317  16.038  17.976  0.00  0.00    +0.000 OA
ATOM     21  C   UNL     1       2.664  17.378  18.272  0.00  0.00    +0.000 C 
ENDBRANCH  15  20
ENDBRANCH   1  12
BRANCH   7  22
ATOM     22  C   UNL     1       1.698   8.261  19.756  0.00  0.00    +0.000 A 
ATOM     23  C   UNL     1       1.950   8.792  18.481  0.00  0.00    +0.000 A 
ATOM     24  C   UNL     1       2.680   8.071  17.532  0.00  0.00    +0.000 A 
ATOM     25  C   UNL     1       3.151   6.794  17.839  0.00  0.00    +0.000 A 
ATOM     26  C   UNL     1       2.897   6.257  19.107  0.00  0.00    +0.000 A 
ATOM     27  C   UNL     1       2.191   6.991  20.075  0.00  0.00    +0.000 A 
BRANCH  26  28
ATOM     28  N   UNL     1       3.361   4.902  19.431  0.00  0.00    +0.000 N 
ATOM     29  O   UNL     1       2.509   4.008  19.524  0.00  0.00    +0.000 OA
ATOM     30  O   UNL     1       4.578   4.738  19.601  0.00  0.00    +0.000 OA
ENDBRANCH  26  28
ENDBRANCH   7  22
TORSDOF 6
ENDMDL
