MODEL 1
REMARK VINA RESULT:      -7.5      0.000      0.000
REMARK  Name = 
REMARK  10 active torsions:
REMARK  status: ('A' for Active; 'I' for Inactive)
REMARK    1  A    between atoms: C_1  and  C_2
REMARK    2  A    between atoms: C_2  and  O_3
REMARK    3  A    between atoms: O_3  and  C_4
REMARK    4  A    between atoms: C_7  and  C_8
REMARK    5  A    between atoms: N_10  and  C_11
REMARK    6  A    between atoms: C_16  and  N_17
REMARK    7  A    between atoms: C_18  and  C_19
REMARK    8  A    between atoms: C_22  and  O_23
REMARK    9  A    between atoms: O_23  and  C_24
REMARK   10  A    between atoms: C_24  and  C_25
REMARK                            x       y       z     vdW  Elec       q    Type
REMARK                         _______ _______ _______ _____ _____    ______ ____
ROOT
ATOM      1  C   UNL     1       3.373   6.870  18.610  0.00  0.00    +0.000 C 
ATOM      2  O   UNL     1       3.515   5.951  19.414  0.00  0.00    +0.000 OA
ATOM      3  N   UNL     1       4.145   7.013  17.453  0.00  0.00    +0.000 N 
ATOM      4  H   UNL     1       4.152   7.898  16.975  0.00  0.00    +0.000 HD
ENDROOT
BRANCH   1   8
ATOM      5  C   UNL     1       0.388   9.939  19.337  0.00  0.00    +0.000 A 
ATOM      6  C   UNL     1       1.208   9.933  18.208  0.00  0.00    +0.000 A 
ATOM      7  C   UNL     1       2.154   8.930  18.014  0.00  0.00    +0.000 A 
ATOM      8  C   UNL     1       2.333   7.897  18.948  0.00  0.00    +0.000 A 
ATOM      9  C   UNL     1       1.560   7.930  20.113  0.00  0.00    +0.000 A 
ATOM     10  C   UNL     1       0.608   8.956  20.325  0.00  0.00    +0.000 A 
BRANCH   5  11
ATOM     11  O   UNL     1      -0.601  10.875  19.505  0.00  0.00    +0.000 OA
BRANCH  11  13
ATOM     12  C   UNL     1      -2.298  10.065  17.994  0.00  0.00    +0.000 C 
ATOM     13  C   UNL     1      -1.361  11.211  18.338  0.00  0.00    +0.000 C 
ENDBRANCH  11  13
ENDBRANCH   5  11
BRANCH  10  14
ATOM     14  O   UNL     1      -0.088   8.822  21.507  0.00  0.00    +0.000 OA
BRANCH  14  15
ATOM     15  C   UNL     1       0.372   9.607  22.611  0.00  0.00    +0.000 C 
ATOM     16  C   UNL     1      -0.766  10.498  23.084  0.00  0.00    +0.000 C 
ENDBRANCH  14  15
ENDBRANCH  10  14
ENDBRANCH   1   8
BRANCH   3  17
ATOM     17  C   UNL     1       4.950   5.963  16.896  0.00  0.00    +0.000 A 
ATOM     18  C   UNL     1       4.371   4.697  16.655  0.00  0.00    +0.000 A 
ATOM     19  C   UNL     1       5.082   3.646  16.079  0.00  0.00    +0.000 A 
ATOM     20  C   UNL     1       6.398   3.838  15.711  0.00  0.00    +0.000 A 
ATOM     21  C   UNL     1       6.992   5.084  15.918  0.00  0.00    +0.000 A 
ATOM     22  C   UNL     1       6.300   6.162  16.503  0.00  0.00    +0.000 A 
BRANCH  22  23
ATOM     23  N   UNL     1       6.983   7.387  16.759  0.00  0.00    +0.000 N 
ATOM     24  C   UNL     1       7.766   7.659  17.877  0.00  0.00    +0.000 C 
ATOM     25  C   UNL     1       8.154   9.110  18.021  0.00  0.00    +0.000 C 
ATOM     26  O   UNL     1       8.180   6.848  18.703  0.00  0.00    +0.000 OA
ATOM     27  H   UNL     1       6.854   8.127  16.087  0.00  0.00    +0.000 HD
ENDBRANCH  22  23
ENDBRANCH   3  17
TORSDOF 7
ENDMDL
MODEL 2
REMARK VINA RESULT:      -7.3      2.128      3.669
REMARK  Name = 
REMARK  10 active torsions:
REMARK  status: ('A' for Active; 'I' for Inactive)
REMARK    1  A    between atoms: C_1  and  C_2
REMARK    2  A    between atoms: C_2  and  O_3
REMARK    3  A    between atoms: O_3  and  C_4
REMARK    4  A    between atoms: C_7  and  C_8
REMARK    5  A    between atoms: N_10  and  C_11
REMARK    6  A    between atoms: C_16  and  N_17
REMARK    7  A    between atoms: C_18  and  C_19
REMARK    8  A    between atoms: C_22  and  O_23
REMARK    9  A    between atoms: O_23  and  C_24
REMARK   10  A    between atoms: C_24  and  C_25
REMARK                            x       y       z     vdW  Elec       q    Type
REMARK                         _______ _______ _______ _____ _____    ______ ____
ROOT
ATOM      1  C   UNL     1       2.829   6.375  18.206  0.00  0.00    +0.000 C 
ATOM      2  O   UNL     1       2.125   5.416  17.900  0.00  0.00    +0.000 OA
ATOM      3  N   UNL     1       4.192   6.465  17.905  0.00  0.00    +0.000 N 
ATOM      4  H   UNL     1       4.756   7.143  18.387  0.00  0.00    +0.000 HD
ENDROOT
BRANCH   1   8
ATOM      5  C   UNL     1       0.951   9.417  20.673  0.00  0.00    +0.000 A 
ATOM      6  C   UNL     1       1.344   8.175  21.172  0.00  0.00    +0.000 A 
ATOM      7  C   UNL     1       1.943   7.227  20.345  0.00  0.00    +0.000 A 
ATOM      8  C   UNL     1       2.160   7.473  18.981  0.00  0.00    +0.000 A 
ATOM      9  C   UNL     1       1.711   8.691  18.458  0.00  0.00    +0.000 A 
ATOM     10  C   UNL     1       1.088   9.652  19.289  0.00  0.00    +0.000 A 
BRANCH   5  11
ATOM     11  O   UNL     1       0.433  10.390  21.489  0.00  0.00    +0.000 OA
BRANCH  11  13
ATOM     12  C   UNL     1      -1.270  10.998  23.086  0.00  0.00    +0.000 C 
ATOM     13  C   UNL     1      -0.276   9.935  22.649  0.00  0.00    +0.000 C 
ENDBRANCH  11  13
ENDBRANCH   5  11
BRANCH  10  14
ATOM     14  O   UNL     1       0.736  10.805  18.622  0.00  0.00    +0.000 OA
BRANCH  14  15
ATOM     15  C   UNL     1      -0.658  10.991  18.358  0.00  0.00    +0.000 C 
ATOM     16  C   UNL     1      -1.051  12.400  18.775  0.00  0.00    +0.000 C 
ENDBRANCH  14  15
ENDBRANCH  10  14
ENDBRANCH   1   8
BRANCH   3  17
ATOM     17  C   UNL     1       4.852   5.629  16.943  0.00  0.00    +0.000 A 
ATOM     18  C   UNL     1       5.143   6.144  15.660  0.00  0.00    +0.000 A 
ATOM     19  C   UNL     1       5.818   5.404  14.691  0.00  0.00    +0.000 A 
ATOM     20  C   UNL     1       6.238   4.123  14.987  0.00  0.00    +0.000 A 
ATOM     21  C   UNL     1       5.983   3.593  16.252  0.00  0.00    +0.000 A 
ATOM     22  C   UNL     1       5.298   4.316  17.248  0.00  0.00    +0.000 A 
BRANCH  22  23
ATOM     23  N   UNL     1       4.999   3.695  18.496  0.00  0.00    +0.000 N 
ATOM     24  C   UNL     1       3.974   2.782  18.721  0.00  0.00    +0.000 C 
ATOM     25  C   UNL     1       3.721   2.483  20.178  0.00  0.00    +0.000 C 
ATOM     26  O   UNL     1       3.307   2.197  17.869  0.00  0.00    +0.000 OA
ATOM     27  H   UNL     1       5.561   3.971  19.286  0.00  0.00    +0.000 HD
ENDBRANCH  22  23
ENDBRANCH   3  17
TORSDOF 7
ENDMDL
MODEL 3
REMARK VINA RESULT:      -7.3      1.850      2.403
REMARK  Name = 
REMARK  10 active torsions:
REMARK  status: ('A' for Active; 'I' for Inactive)
REMARK    1  A    between atoms: C_1  and  C_2
REMARK    2  A    between atoms: C_2  and  O_3
REMARK    3  A    between atoms: O_3  and  C_4
REMARK    4  A    between atoms: C_7  and  C_8
REMARK    5  A    between atoms: N_10  and  C_11
REMARK    6  A    between atoms: C_16  and  N_17
REMARK    7  A    between atoms: C_18  and  C_19
REMARK    8  A    between atoms: C_22  and  O_23
REMARK    9  A    between atoms: O_23  and  C_24
REMARK   10  A    between atoms: C_24  and  C_25
REMARK                            x       y       z     vdW  Elec       q    Type
REMARK                         _______ _______ _______ _____ _____    ______ ____
ROOT
ATOM      1  C   UNL     1       2.081   7.181  19.755  0.00  0.00    +0.000 C 
ATOM      2  O   UNL     1       1.969   6.407  20.704  0.00  0.00    +0.000 OA
ATOM      3  N   UNL     1       2.719   6.850  18.555  0.00  0.00    +0.000 N 
ATOM      4  H   UNL     1       2.992   7.585  17.926  0.00  0.00    +0.000 HD
ENDROOT
BRANCH   1   8
ATOM      5  C   UNL     1       0.442  11.192  20.051  0.00  0.00    +0.000 A 
ATOM      6  C   UNL     1       0.844  10.627  18.841  0.00  0.00    +0.000 A 
ATOM      7  C   UNL     1       1.366   9.336  18.790  0.00  0.00    +0.000 A 
ATOM      8  C   UNL     1       1.523   8.560  19.950  0.00  0.00    +0.000 A 
ATOM      9  C   UNL     1       1.182   9.143  21.175  0.00  0.00    +0.000 A 
ATOM     10  C   UNL     1       0.667  10.459  21.236  0.00  0.00    +0.000 A 
BRANCH   5  11
ATOM     11  O   UNL     1      -0.145  12.430  20.109  0.00  0.00    +0.000 OA
BRANCH  11  13
ATOM     12  C   UNL     1      -0.180  14.433  18.764  0.00  0.00    +0.000 C 
ATOM     13  C   UNL     1      -0.599  12.976  18.864  0.00  0.00    +0.000 C 
ENDBRANCH  11  13
ENDBRANCH   5  11
BRANCH  10  14
ATOM     14  O   UNL     1       0.355  10.866  22.514  0.00  0.00    +0.000 OA
BRANCH  14  15
ATOM     15  C   UNL     1      -0.896  10.415  23.042  0.00  0.00    +0.000 C 
ATOM     16  C   UNL     1      -1.846  11.600  23.126  0.00  0.00    +0.000 C 
ENDBRANCH  14  15
ENDBRANCH  10  14
ENDBRANCH   1   8
BRANCH   3  17
ATOM     17  C   UNL     1       3.026   5.504  18.160  0.00  0.00    +0.000 A 
ATOM     18  C   UNL     1       1.975   4.585  17.951  0.00  0.00    +0.000 A 
ATOM     19  C   UNL     1       2.197   3.276  17.528  0.00  0.00    +0.000 A 
ATOM     20  C   UNL     1       3.487   2.852  17.284  0.00  0.00    +0.000 A 
ATOM     21  C   UNL     1       4.547   3.743  17.462  0.00  0.00    +0.000 A 
ATOM     22  C   UNL     1       4.352   5.069  17.895  0.00  0.00    +0.000 A 
BRANCH  22  23
ATOM     23  N   UNL     1       5.478   5.910  18.132  0.00  0.00    +0.000 N 
ATOM     24  C   UNL     1       6.158   6.645  17.166  0.00  0.00    +0.000 C 
ATOM     25  C   UNL     1       7.461   7.238  17.642  0.00  0.00    +0.000 C 
ATOM     26  O   UNL     1       5.787   6.872  16.015  0.00  0.00    +0.000 OA
ATOM     27  H   UNL     1       5.829   5.943  19.077  0.00  0.00    +0.000 HD
ENDBRANCH  22  23
ENDBRANCH   3  17
TORSDOF 7
ENDMDL
MODEL 4
REMARK VINA RESULT:      -7.3      2.313      4.171
REMARK  Name = 
REMARK  10 active torsions:
REMARK  status: ('A' for Active; 'I' for Inactive)
REMARK    1  A    between atoms: C_1  and  C_2
REMARK    2  A    between atoms: C_2  and  O_3
REMARK    3  A    between atoms: O_3  and  C_4
REMARK    4  A    between atoms: C_7  and  C_8
REMARK    5  A    between atoms: N_10  and  C_11
REMARK    6  A    between atoms: C_16  and  N_17
REMARK    7  A    between atoms: C_18  and  C_19
REMARK    8  A    between atoms: C_22  and  O_23
REMARK    9  A    between atoms: O_23  and  C_24
REMARK   10  A    between atoms: C_24  and  C_25
REMARK                            x       y       z     vdW  Elec       q    Type
REMARK                         _______ _______ _______ _____ _____    ______ ____
ROOT
ATOM      1  C   UNL     1       2.175   7.553  18.520  0.00  0.00    +0.000 C 
ATOM      2  O   UNL     1       1.647   7.576  17.410  0.00  0.00    +0.000 OA
ATOM      3  N   UNL     1       3.216   6.686  18.866  0.00  0.00    +0.000 N 
ATOM      4  H   UNL     1       3.433   6.544  19.837  0.00  0.00    +0.000 HD
ENDROOT
BRANCH   1   8
ATOM      5  C   UNL     1       0.620  10.100  21.675  0.00  0.00    +0.000 A 
ATOM      6  C   UNL     1       0.985   8.771  21.888  0.00  0.00    +0.000 A 
ATOM      7  C   UNL     1       1.479   7.988  20.847  0.00  0.00    +0.000 A 
ATOM      8  C   UNL     1       1.614   8.495  19.545  0.00  0.00    +0.000 A 
ATOM      9  C   UNL     1       1.190   9.807  19.309  0.00  0.00    +0.000 A 
ATOM     10  C   UNL     1       0.672  10.603  20.358  0.00  0.00    +0.000 A 
BRANCH   5  11
ATOM     11  O   UNL     1       0.206  10.907  22.705  0.00  0.00    +0.000 OA
BRANCH  11  13
ATOM     12  C   UNL     1      -1.892  12.060  23.005  0.00  0.00    +0.000 C 
ATOM     13  C   UNL     1      -1.151  10.740  23.136  0.00  0.00    +0.000 C 
ENDBRANCH  11  13
ENDBRANCH   5  11
BRANCH  10  14
ATOM     14  O   UNL     1       0.331  11.878  19.961  0.00  0.00    +0.000 OA
BRANCH  14  15
ATOM     15  C   UNL     1      -0.538  11.984  18.830  0.00  0.00    +0.000 C 
ATOM     16  C   UNL     1      -1.967  11.734  19.287  0.00  0.00    +0.000 C 
ENDBRANCH  14  15
ENDBRANCH  10  14
ENDBRANCH   1   8
BRANCH   3  17
ATOM     17  C   UNL     1       4.003   5.963  17.907  0.00  0.00    +0.000 A 
ATOM     18  C   UNL     1       4.921   6.663  17.093  0.00  0.00    +0.000 A 
ATOM     19  C   UNL     1       5.746   6.021  16.171  0.00  0.00    +0.000 A 
ATOM     20  C   UNL     1       5.687   4.648  16.049  0.00  0.00    +0.000 A 
ATOM     21  C   UNL     1       4.804   3.926  16.854  0.00  0.00    +0.000 A 
ATOM     22  C   UNL     1       3.954   4.549  17.789  0.00  0.00    +0.000 A 
BRANCH  22  23
ATOM     23  N   UNL     1       3.020   3.767  18.528  0.00  0.00    +0.000 N 
ATOM     24  C   UNL     1       1.655   3.681  18.275  0.00  0.00    +0.000 C 
ATOM     25  C   UNL     1       0.865   2.994  19.361  0.00  0.00    +0.000 C 
ATOM     26  O   UNL     1       1.066   4.072  17.268  0.00  0.00    +0.000 OA
ATOM     27  H   UNL     1       3.380   3.262  19.323  0.00  0.00    +0.000 HD
ENDBRANCH  22  23
ENDBRANCH   3  17
TORSDOF 7
ENDMDL
MODEL 5
REMARK VINA RESULT:      -7.3      2.199      2.668
REMARK  Name = 
REMARK  10 active torsions:
REMARK  status: ('A' for Active; 'I' for Inactive)
REMARK    1  A    between atoms: C_1  and  C_2
REMARK    2  A    between atoms: C_2  and  O_3
REMARK    3  A    between atoms: O_3  and  C_4
REMARK    4  A    between atoms: C_7  and  C_8
REMARK    5  A    between atoms: N_10  and  C_11
REMARK    6  A    between atoms: C_16  and  N_17
REMARK    7  A    between atoms: C_18  and  C_19
REMARK    8  A    between atoms: C_22  and  O_23
REMARK    9  A    between atoms: O_23  and  C_24
REMARK   10  A    between atoms: C_24  and  C_25
REMARK                            x       y       z     vdW  Elec       q    Type
REMARK                         _______ _______ _______ _____ _____    ______ ____
ROOT
ATOM      1  C   UNL     1       2.051   6.457  20.058  0.00  0.00    +0.000 C 
ATOM      2  O   UNL     1       1.657   5.756  20.988  0.00  0.00    +0.000 OA
ATOM      3  N   UNL     1       2.851   5.981  19.015  0.00  0.00    +0.000 N 
ATOM      4  H   UNL     1       3.337   6.640  18.430  0.00  0.00    +0.000 HD
ENDROOT
BRANCH   1   8
ATOM      5  C   UNL     1       0.930  10.650  19.920  0.00  0.00    +0.000 A 
ATOM      6  C   UNL     1       1.354   9.943  18.794  0.00  0.00    +0.000 A 
ATOM      7  C   UNL     1       1.705   8.598  18.883  0.00  0.00    +0.000 A 
ATOM      8  C   UNL     1       1.663   7.906  20.103  0.00  0.00    +0.000 A 
ATOM      9  C   UNL     1       1.302   8.624  21.248  0.00  0.00    +0.000 A 
ATOM     10  C   UNL     1       0.959   9.994  21.168  0.00  0.00    +0.000 A 
BRANCH   5  11
ATOM     11  O   UNL     1       0.507  11.952  19.835  0.00  0.00    +0.000 OA
BRANCH  11  13
ATOM     12  C   UNL     1      -0.547  13.478  18.292  0.00  0.00    +0.000 C 
ATOM     13  C   UNL     1      -0.686  12.184  19.076  0.00  0.00    +0.000 C 
ENDBRANCH  11  13
ENDBRANCH   5  11
BRANCH  10  14
ATOM     14  O   UNL     1       0.599  10.540  22.381  0.00  0.00    +0.000 OA
BRANCH  14  15
ATOM     15  C   UNL     1      -0.660  10.124  22.920  0.00  0.00    +0.000 C 
ATOM     16  C   UNL     1      -1.551  11.346  23.078  0.00  0.00    +0.000 C 
ENDBRANCH  14  15
ENDBRANCH  10  14
ENDBRANCH   1   8
BRANCH   3  17
ATOM     17  C   UNL     1       3.037   4.588  18.723  0.00  0.00    +0.000 A 
ATOM     18  C   UNL     1       1.943   3.822  18.264  0.00  0.00    +0.000 A 
ATOM     19  C   UNL     1       2.061   2.476  17.924  0.00  0.00    +0.000 A 
ATOM     20  C   UNL     1       3.291   1.858  18.018  0.00  0.00    +0.000 A 
ATOM     21  C   UNL     1       4.396   2.592  18.451  0.00  0.00    +0.000 A 
ATOM     22  C   UNL     1       4.304   3.952  18.807  0.00  0.00    +0.000 A 
BRANCH  22  23
ATOM     23  N   UNL     1       5.451   4.630  19.314  0.00  0.00    +0.000 N 
ATOM     24  C   UNL     1       6.351   5.376  18.559  0.00  0.00    +0.000 C 
ATOM     25  C   UNL     1       7.607   5.764  19.299  0.00  0.00    +0.000 C 
ATOM     26  O   UNL     1       6.201   5.758  17.399  0.00  0.00    +0.000 OA
ATOM     27  H   UNL     1       5.641   4.528  20.299  0.00  0.00    +0.000 HD
ENDBRANCH  22  23
ENDBRANCH   3  17
TORSDOF 7
ENDMDL
MODEL 6
REMARK VINA RESULT:      -7.2      2.515      4.248
REMARK  Name = 
REMARK  10 active torsions:
REMARK  status: ('A' for Active; 'I' for Inactive)
REMARK    1  A    between atoms: C_1  and  C_2
REMARK    2  A    between atoms: C_2  and  O_3
REMARK    3  A    between atoms: O_3  and  C_4
REMARK    4  A    between atoms: C_7  and  C_8
REMARK    5  A    between atoms: N_10  and  C_11
REMARK    6  A    between atoms: C_16  and  N_17
REMARK    7  A    between atoms: C_18  and  C_19
REMARK    8  A    between atoms: C_22  and  O_23
REMARK    9  A    between atoms: O_23  and  C_24
REMARK   10  A    between atoms: C_24  and  C_25
REMARK                            x       y       z     vdW  Elec       q    Type
REMARK                         _______ _______ _______ _____ _____    ______ ____
ROOT
ATOM      1  C   UNL     1       2.110   7.898  18.520  0.00  0.00    +0.000 C 
ATOM      2  O   UNL     1       1.813   8.207  17.369  0.00  0.00    +0.000 OA
ATOM      3  N   UNL     1       2.912   6.799  18.845  0.00  0.00    +0.000 N 
ATOM      4  H   UNL     1       2.916   6.458  19.791  0.00  0.00    +0.000 HD
ENDROOT
BRANCH   1   8
ATOM      5  C   UNL     1       0.484  10.160  21.852  0.00  0.00    +0.000 A 
ATOM      6  C   UNL     1       0.835   8.814  21.952  0.00  0.00    +0.000 A 
ATOM      7  C   UNL     1       1.353   8.124  20.857  0.00  0.00    +0.000 A 
ATOM      8  C   UNL     1       1.528   8.747  19.612  0.00  0.00    +0.000 A 
ATOM      9  C   UNL     1       1.119  10.079  19.485  0.00  0.00    +0.000 A 
ATOM     10  C   UNL     1       0.577  10.781  20.588  0.00  0.00    +0.000 A 
BRANCH   5  11
ATOM     11  O   UNL     1       0.047  10.873  22.939  0.00  0.00    +0.000 OA
BRANCH  11  13
ATOM     12  C   UNL     1      -1.952  12.222  23.011  0.00  0.00    +0.000 C 
ATOM     13  C   UNL     1      -1.362  10.835  23.199  0.00  0.00    +0.000 C 
ENDBRANCH  11  13
ENDBRANCH   5  11
BRANCH  10  14
ATOM     14  O   UNL     1       0.256  12.089  20.301  0.00  0.00    +0.000 OA
BRANCH  14  15
ATOM     15  C   UNL     1       1.301  13.054  20.458  0.00  0.00    +0.000 C 
ATOM     16  C   UNL     1       0.808  14.162  21.376  0.00  0.00    +0.000 C 
ENDBRANCH  14  15
ENDBRANCH  10  14
ENDBRANCH   1   8
BRANCH   3  17
ATOM     17  C   UNL     1       3.738   6.106  17.898  0.00  0.00    +0.000 A 
ATOM     18  C   UNL     1       4.591   6.845  17.049  0.00  0.00    +0.000 A 
ATOM     19  C   UNL     1       5.449   6.236  16.135  0.00  0.00    +0.000 A 
ATOM     20  C   UNL     1       5.489   4.859  16.055  0.00  0.00    +0.000 A 
ATOM     21  C   UNL     1       4.672   4.100  16.894  0.00  0.00    +0.000 A 
ATOM     22  C   UNL     1       3.791   4.689  17.822  0.00  0.00    +0.000 A 
BRANCH  22  23
ATOM     23  N   UNL     1       2.925   3.864  18.599  0.00  0.00    +0.000 N 
ATOM     24  C   UNL     1       1.577   3.635  18.341  0.00  0.00    +0.000 C 
ATOM     25  C   UNL     1       0.843   2.938  19.459  0.00  0.00    +0.000 C 
ATOM     26  O   UNL     1       0.967   3.911  17.309  0.00  0.00    +0.000 OA
ATOM     27  H   UNL     1       3.321   3.441  19.424  0.00  0.00    +0.000 HD
ENDBRANCH  22  23
ENDBRANCH   3  17
TORSDOF 7
ENDMDL
MODEL 7
REMARK VINA RESULT:      -7.2      2.171      2.827
REMARK  Name = 
REMARK  10 active torsions:
REMARK  status: ('A' for Active; 'I' for Inactive)
REMARK    1  A    between atoms: C_1  and  C_2
REMARK    2  A    between atoms: C_2  and  O_3
REMARK    3  A    between atoms: O_3  and  C_4
REMARK    4  A    between atoms: C_7  and  C_8
REMARK    5  A    between atoms: N_10  and  C_11
REMARK    6  A    between atoms: C_16  and  N_17
REMARK    7  A    between atoms: C_18  and  C_19
REMARK    8  A    between atoms: C_22  and  O_23
REMARK    9  A    between atoms: O_23  and  C_24
REMARK   10  A    between atoms: C_24  and  C_25
REMARK                            x       y       z     vdW  Elec       q    Type
REMARK                         _______ _______ _______ _____ _____    ______ ____
ROOT
ATOM      1  C   UNL     1       2.078   6.749  19.884  0.00  0.00    +0.000 C 
ATOM      2  O   UNL     1       2.055   6.060  20.901  0.00  0.00    +0.000 OA
ATOM      3  N   UNL     1       2.526   6.284  18.643  0.00  0.00    +0.000 N 
ATOM      4  H   UNL     1       2.751   6.949  17.923  0.00  0.00    +0.000 HD
ENDROOT
BRANCH   1   8
ATOM      5  C   UNL     1       0.775  10.889  20.045  0.00  0.00    +0.000 A 
ATOM      6  C   UNL     1       1.183  10.270  18.864  0.00  0.00    +0.000 A 
ATOM      7  C   UNL     1       1.595   8.939  18.856  0.00  0.00    +0.000 A 
ATOM      8  C   UNL     1       1.631   8.174  20.032  0.00  0.00    +0.000 A 
ATOM      9  C   UNL     1       1.285   8.805  21.232  0.00  0.00    +0.000 A 
ATOM     10  C   UNL     1       0.881  10.161  21.249  0.00  0.00    +0.000 A 
BRANCH   5  11
ATOM     11  O   UNL     1       0.294  12.173  20.057  0.00  0.00    +0.000 OA
BRANCH  11  13
ATOM     12  C   UNL     1       2.250  13.484  20.581  0.00  0.00    +0.000 C 
ATOM     13  C   UNL     1       1.173  13.186  19.552  0.00  0.00    +0.000 C 
ENDBRANCH  11  13
ENDBRANCH   5  11
BRANCH  10  14
ATOM     14  O   UNL     1       0.546  10.616  22.506  0.00  0.00    +0.000 OA
BRANCH  14  15
ATOM     15  C   UNL     1      -0.726  10.206  23.016  0.00  0.00    +0.000 C 
ATOM     16  C   UNL     1      -1.635  11.423  23.098  0.00  0.00    +0.000 C 
ENDBRANCH  14  15
ENDBRANCH  10  14
ENDBRANCH   1   8
BRANCH   3  17
ATOM     17  C   UNL     1       2.700   4.895  18.327  0.00  0.00    +0.000 A 
ATOM     18  C   UNL     1       1.642   3.991  18.567  0.00  0.00    +0.000 A 
ATOM     19  C   UNL     1       1.725   2.637  18.247  0.00  0.00    +0.000 A 
ATOM     20  C   UNL     1       2.874   2.150  17.657  0.00  0.00    +0.000 A 
ATOM     21  C   UNL     1       3.930   3.022  17.389  0.00  0.00    +0.000 A 
ATOM     22  C   UNL     1       3.875   4.393  17.708  0.00  0.00    +0.000 A 
BRANCH  22  23
ATOM     23  N   UNL     1       5.014   5.219  17.480  0.00  0.00    +0.000 N 
ATOM     24  C   UNL     1       6.134   5.299  18.300  0.00  0.00    +0.000 C 
ATOM     25  C   UNL     1       7.067   6.436  17.964  0.00  0.00    +0.000 C 
ATOM     26  O   UNL     1       6.434   4.534  19.215  0.00  0.00    +0.000 OA
ATOM     27  H   UNL     1       4.983   5.821  16.671  0.00  0.00    +0.000 HD
ENDBRANCH  22  23
ENDBRANCH   3  17
TORSDOF 7
ENDMDL
MODEL 8
REMARK VINA RESULT:      -7.1      1.172      2.384
REMARK  Name = 
REMARK  10 active torsions:
REMARK  status: ('A' for Active; 'I' for Inactive)
REMARK    1  A    between atoms: C_1  and  C_2
REMARK    2  A    between atoms: C_2  and  O_3
REMARK    3  A    between atoms: O_3  and  C_4
REMARK    4  A    between atoms: C_7  and  C_8
REMARK    5  A    between atoms: N_10  and  C_11
REMARK    6  A    between atoms: C_16  and  N_17
REMARK    7  A    between atoms: C_18  and  C_19
REMARK    8  A    between atoms: C_22  and  O_23
REMARK    9  A    between atoms: O_23  and  C_24
REMARK   10  A    between atoms: C_24  and  C_25
REMARK                            x       y       z     vdW  Elec       q    Type
REMARK                         _______ _______ _______ _____ _____    ______ ____
ROOT
ATOM      1  C   UNL     1       3.303   6.414  18.691  0.00  0.00    +0.000 C 
ATOM      2  O   UNL     1       3.162   5.283  19.150  0.00  0.00    +0.000 OA
ATOM      3  N   UNL     1       4.282   6.754  17.753  0.00  0.00    +0.000 N 
ATOM      4  H   UNL     1       4.504   7.723  17.605  0.00  0.00    +0.000 HD
ENDROOT
BRANCH   1   8
ATOM      5  C   UNL     1       0.634   9.343  20.470  0.00  0.00    +0.000 A 
ATOM      6  C   UNL     1       0.968   8.144  21.099  0.00  0.00    +0.000 A 
ATOM      7  C   UNL     1       1.828   7.230  20.493  0.00  0.00    +0.000 A 
ATOM      8  C   UNL     1       2.378   7.470  19.224  0.00  0.00    +0.000 A 
ATOM      9  C   UNL     1       1.998   8.640  18.558  0.00  0.00    +0.000 A 
ATOM     10  C   UNL     1       1.113   9.564  19.161  0.00  0.00    +0.000 A 
BRANCH   5  11
ATOM     11  O   UNL     1      -0.148  10.287  21.086  0.00  0.00    +0.000 OA
BRANCH  11  13
ATOM     12  C   UNL     1      -1.308  11.192  22.997  0.00  0.00    +0.000 C 
ATOM     13  C   UNL     1      -0.394  10.093  22.484  0.00  0.00    +0.000 C 
ENDBRANCH  11  13
ENDBRANCH   5  11
BRANCH  10  14
ATOM     14  O   UNL     1       0.868  10.675  18.384  0.00  0.00    +0.000 OA
BRANCH  14  15
ATOM     15  C   UNL     1       1.823  11.737  18.467  0.00  0.00    +0.000 C 
ATOM     16  C   UNL     1       1.166  12.934  19.137  0.00  0.00    +0.000 C 
ENDBRANCH  14  15
ENDBRANCH  10  14
ENDBRANCH   1   8
BRANCH   3  17
ATOM     17  C   UNL     1       5.013   5.791  16.978  0.00  0.00    +0.000 A 
ATOM     18  C   UNL     1       4.423   4.541  16.687  0.00  0.00    +0.000 A 
ATOM     19  C   UNL     1       5.058   3.576  15.908  0.00  0.00    +0.000 A 
ATOM     20  C   UNL     1       6.305   3.844  15.380  0.00  0.00    +0.000 A 
ATOM     21  C   UNL     1       6.906   5.077  15.634  0.00  0.00    +0.000 A 
ATOM     22  C   UNL     1       6.290   6.068  16.423  0.00  0.00    +0.000 A 
BRANCH  22  23
ATOM     23  N   UNL     1       6.986   7.279  16.710  0.00  0.00    +0.000 N 
ATOM     24  C   UNL     1       7.728   7.534  17.859  0.00  0.00    +0.000 C 
ATOM     25  C   UNL     1       8.139   8.976  18.023  0.00  0.00    +0.000 C 
ATOM     26  O   UNL     1       8.092   6.712  18.699  0.00  0.00    +0.000 OA
ATOM     27  H   UNL     1       6.900   8.022  16.035  0.00  0.00    +0.000 HD
ENDBRANCH  22  23
ENDBRANCH   3  17
TORSDOF 7
ENDMDL
MODEL 9
REMARK VINA RESULT:      -7.1      1.971      2.569
REMARK  Name = 
REMARK  10 active torsions:
REMARK  status: ('A' for Active; 'I' for Inactive)
REMARK    1  A    between atoms: C_1  and  C_2
REMARK    2  A    between atoms: C_2  and  O_3
REMARK    3  A    between atoms: O_3  and  C_4
REMARK    4  A    between atoms: C_7  and  C_8
REMARK    5  A    between atoms: N_10  and  C_11
REMARK    6  A    between atoms: C_16  and  N_17
REMARK    7  A    between atoms: C_18  and  C_19
REMARK    8  A    between atoms: C_22  and  O_23
REMARK    9  A    between atoms: O_23  and  C_24
REMARK   10  A    between atoms: C_24  and  C_25
REMARK                            x       y       z     vdW  Elec       q    Type
REMARK                         _______ _______ _______ _____ _____    ______ ____
ROOT
ATOM      1  C   UNL     1       2.401   6.756  19.459  0.00  0.00    +0.000 C 
ATOM      2  O   UNL     1       2.984   6.316  20.448  0.00  0.00    +0.000 OA
ATOM      3  N   UNL     1       2.285   6.057  18.253  0.00  0.00    +0.000 N 
ATOM      4  H   UNL     1       2.021   6.555  17.421  0.00  0.00    +0.000 HD
ENDROOT
BRANCH   1   8
ATOM      5  C   UNL     1       0.735  10.766  19.539  0.00  0.00    +0.000 A 
ATOM      6  C   UNL     1       1.147  10.141  18.362  0.00  0.00    +0.000 A 
ATOM      7  C   UNL     1       1.677   8.853  18.380  0.00  0.00    +0.000 A 
ATOM      8  C   UNL     1       1.833   8.140  19.579  0.00  0.00    +0.000 A 
ATOM      9  C   UNL     1       1.483   8.782  20.771  0.00  0.00    +0.000 A 
ATOM     10  C   UNL     1       0.958  10.097  20.761  0.00  0.00    +0.000 A 
BRANCH   5  11
ATOM     11  O   UNL     1       0.139  12.001  19.529  0.00  0.00    +0.000 OA
BRANCH  11  13
ATOM     12  C   UNL     1      -1.861  13.236  20.073  0.00  0.00    +0.000 C 
ATOM     13  C   UNL     1      -1.285  12.018  19.370  0.00  0.00    +0.000 C 
ENDBRANCH  11  13
ENDBRANCH   5  11
BRANCH  10  14
ATOM     14  O   UNL     1       0.637  10.568  22.015  0.00  0.00    +0.000 OA
BRANCH  14  15
ATOM     15  C   UNL     1      -0.520   9.997  22.635  0.00  0.00    +0.000 C 
ATOM     16  C   UNL     1      -1.413  11.124  23.132  0.00  0.00    +0.000 C 
ENDBRANCH  14  15
ENDBRANCH  10  14
ENDBRANCH   1   8
BRANCH   3  17
ATOM     17  C   UNL     1       2.531   4.649  18.121  0.00  0.00    +0.000 A 
ATOM     18  C   UNL     1       1.496   3.732  18.412  0.00  0.00    +0.000 A 
ATOM     19  C   UNL     1       1.652   2.355  18.266  0.00  0.00    +0.000 A 
ATOM     20  C   UNL     1       2.852   1.854  17.806  0.00  0.00    +0.000 A 
ATOM     21  C   UNL     1       3.887   2.735  17.490  0.00  0.00    +0.000 A 
ATOM     22  C   UNL     1       3.760   4.130  17.634  0.00  0.00    +0.000 A 
BRANCH  22  23
ATOM     23  N   UNL     1       4.877   4.975  17.369  0.00  0.00    +0.000 N 
ATOM     24  C   UNL     1       5.894   5.279  18.268  0.00  0.00    +0.000 C 
ATOM     25  C   UNL     1       6.805   6.395  17.818  0.00  0.00    +0.000 C 
ATOM     26  O   UNL     1       6.125   4.718  19.338  0.00  0.00    +0.000 OA
ATOM     27  H   UNL     1       4.909   5.413  16.462  0.00  0.00    +0.000 HD
ENDBRANCH  22  23
ENDBRANCH   3  17
TORSDOF 7
ENDMDL
