MODEL 1
REMARK VINA RESULT:      -6.8      0.000      0.000
REMARK  Name = 
REMARK  8 active torsions:
REMARK  status: ('A' for Active; 'I' for Inactive)
REMARK    1  A    between atoms: C_1  and  C_2
REMARK    2  A    between atoms: C_2  and  C_3
REMARK    3  A    between atoms: C_19  and  C_20
REMARK    4  A    between atoms: C_20  and  C_24
REMARK    5  A    between atoms: C_21  and  O_22
REMARK    6  A    between atoms: O_22  and  C_23
REMARK    7  A    between atoms: C_24  and  O_26
REMARK    8  A    between atoms: O_26  and  C_27
REMARK                            x       y       z     vdW  Elec       q    Type
REMARK                         _______ _______ _______ _____ _____    ______ ____
ROOT
ATOM      1  C   UNL     1       6.942   4.408  13.493  0.00  0.00    +0.000 C 
ATOM      2  C   UNL     1       7.086   5.183  14.819  0.00  0.00    +0.000 C 
ATOM      3  N   UNL     1       6.383   4.510  15.909  0.00  0.00    +0.000 NA
ATOM      4  C   UNL     1       6.677   5.170  17.204  0.00  0.00    +0.000 C 
ATOM      5  C   UNL     1       6.089   4.398  18.408  0.00  0.00    +0.000 C 
ATOM      6  C   UNL     1       4.682   4.006  18.127  0.00  0.00    +0.000 A 
ATOM      7  C   UNL     1       4.182   4.029  16.839  0.00  0.00    +0.000 A 
ATOM      8  N   UNL     1       2.871   3.641  16.897  0.00  0.00    +0.000 N 
ATOM      9  C   UNL     1       2.522   3.349  18.197  0.00  0.00    +0.000 A 
ATOM     10  C   UNL     1       1.302   2.909  18.728  0.00  0.00    +0.000 A 
ATOM     11  C   UNL     1       1.239   2.683  20.108  0.00  0.00    +0.000 A 
ATOM     12  C   UNL     1       2.350   2.891  20.925  0.00  0.00    +0.000 A 
ATOM     13  C   UNL     1       3.561   3.333  20.379  0.00  0.00    +0.000 A 
ATOM     14  C   UNL     1       3.649   3.564  18.992  0.00  0.00    +0.000 A 
ATOM     15  C   UNL     1       4.927   4.486  15.620  0.00  0.00    +0.000 C 
ATOM     16  C   UNL     1       4.695   3.577  14.409  0.00  0.00    +0.000 C 
ATOM     17  C   UNL     1       5.453   4.074  13.153  0.00  0.00    +0.000 C 
ATOM     18  H   UNL     1       2.238   3.581  16.109  0.00  0.00    +0.000 HD
ENDROOT
BRANCH   1  20
ATOM     19  C   UNL     1       8.865   6.019  12.807  0.00  0.00    +0.000 C 
ATOM     20  C   UNL     1       7.684   5.160  12.361  0.00  0.00    +0.000 C 
ENDBRANCH   1  20
BRANCH  17  21
ATOM     21  C   UNL     1       5.236   3.062  12.016  0.00  0.00    +0.000 C 
ATOM     22  C   UNL     1       6.103   2.075  11.716  0.00  0.00    +0.000 C 
BRANCH  22  23
ATOM     23  O   UNL     1       5.885   1.109  10.771  0.00  0.00    +0.000 OA
ATOM     24  C   UNL     1       6.076  -0.213  11.262  0.00  0.00    +0.000 C 
ENDBRANCH  22  23
BRANCH  21  25
ATOM     25  C   UNL     1       3.977   3.149  11.203  0.00  0.00    +0.000 C 
ATOM     26  O   UNL     1       2.997   2.433  11.331  0.00  0.00    +0.000 OA
BRANCH  25  27
ATOM     27  O   UNL     1       4.085   4.157  10.297  0.00  0.00    +0.000 OA
ATOM     28  C   UNL     1       2.919   4.411   9.507  0.00  0.00    +0.000 C 
ENDBRANCH  25  27
ENDBRANCH  21  25
ENDBRANCH  17  21
TORSDOF 5
ENDMDL
MODEL 2
REMARK VINA RESULT:      -6.8      7.961     10.286
REMARK  Name = 
REMARK  8 active torsions:
REMARK  status: ('A' for Active; 'I' for Inactive)
REMARK    1  A    between atoms: C_1  and  C_2
REMARK    2  A    between atoms: C_2  and  C_3
REMARK    3  A    between atoms: C_19  and  C_20
REMARK    4  A    between atoms: C_20  and  C_24
REMARK    5  A    between atoms: C_21  and  O_22
REMARK    6  A    between atoms: O_22  and  C_23
REMARK    7  A    between atoms: C_24  and  O_26
REMARK    8  A    between atoms: O_26  and  C_27
REMARK                            x       y       z     vdW  Elec       q    Type
REMARK                         _______ _______ _______ _____ _____    ______ ____
ROOT
ATOM      1  C   UNL     1       0.969  11.166  18.855  0.00  0.00    +0.000 C 
ATOM      2  C   UNL     1       2.133  10.388  18.206  0.00  0.00    +0.000 C 
ATOM      3  N   UNL     1       1.945   8.944  18.334  0.00  0.00    +0.000 NA
ATOM      4  C   UNL     1       2.975   8.214  17.556  0.00  0.00    +0.000 C 
ATOM      5  C   UNL     1       2.723   6.689  17.526  0.00  0.00    +0.000 C 
ATOM      6  C   UNL     1       2.399   6.197  18.891  0.00  0.00    +0.000 A 
ATOM      7  C   UNL     1       2.030   7.073  19.893  0.00  0.00    +0.000 A 
ATOM      8  N   UNL     1       1.816   6.339  21.028  0.00  0.00    +0.000 N 
ATOM      9  C   UNL     1       2.021   5.001  20.771  0.00  0.00    +0.000 A 
ATOM     10  C   UNL     1       1.912   3.890  21.618  0.00  0.00    +0.000 A 
ATOM     11  C   UNL     1       2.178   2.629  21.073  0.00  0.00    +0.000 A 
ATOM     12  C   UNL     1       2.542   2.484  19.733  0.00  0.00    +0.000 A 
ATOM     13  C   UNL     1       2.649   3.604  18.901  0.00  0.00    +0.000 A 
ATOM     14  C   UNL     1       2.383   4.883  19.427  0.00  0.00    +0.000 A 
ATOM     15  C   UNL     1       1.967   8.566  19.770  0.00  0.00    +0.000 C 
ATOM     16  C   UNL     1       0.727   9.165  20.440  0.00  0.00    +0.000 C 
ATOM     17  C   UNL     1       0.689  10.708  20.323  0.00  0.00    +0.000 C 
ATOM     18  H   UNL     1       1.554   6.712  21.932  0.00  0.00    +0.000 HD
ENDROOT
BRANCH   1  20
ATOM     19  C   UNL     1       2.599  13.089  18.214  0.00  0.00    +0.000 C 
ATOM     20  C   UNL     1       1.213  12.689  18.714  0.00  0.00    +0.000 C 
ENDBRANCH   1  20
BRANCH  17  21
ATOM     21  C   UNL     1      -0.624  11.216  20.942  0.00  0.00    +0.000 C 
ATOM     22  C   UNL     1      -1.719  11.532  20.224  0.00  0.00    +0.000 C 
BRANCH  22  23
ATOM     23  O   UNL     1      -2.924  11.895  20.761  0.00  0.00    +0.000 OA
ATOM     24  C   UNL     1      -3.759  12.600  19.849  0.00  0.00    +0.000 C 
ENDBRANCH  22  23
BRANCH  21  25
ATOM     25  C   UNL     1      -0.715  11.344  22.435  0.00  0.00    +0.000 C 
ATOM     26  O   UNL     1      -1.100  10.474  23.201  0.00  0.00    +0.000 OA
BRANCH  25  27
ATOM     27  O   UNL     1      -0.295  12.579  22.817  0.00  0.00    +0.000 OA
ATOM     28  C   UNL     1      -1.305  13.443  23.349  0.00  0.00    +0.000 C 
ENDBRANCH  25  27
ENDBRANCH  21  25
ENDBRANCH  17  21
TORSDOF 5
ENDMDL
MODEL 3
REMARK VINA RESULT:      -6.6      7.629      9.869
REMARK  Name = 
REMARK  8 active torsions:
REMARK  status: ('A' for Active; 'I' for Inactive)
REMARK    1  A    between atoms: C_1  and  C_2
REMARK    2  A    between atoms: C_2  and  C_3
REMARK    3  A    between atoms: C_19  and  C_20
REMARK    4  A    between atoms: C_20  and  C_24
REMARK    5  A    between atoms: C_21  and  O_22
REMARK    6  A    between atoms: O_22  and  C_23
REMARK    7  A    between atoms: C_24  and  O_26
REMARK    8  A    between atoms: O_26  and  C_27
REMARK                            x       y       z     vdW  Elec       q    Type
REMARK                         _______ _______ _______ _____ _____    ______ ____
ROOT
ATOM      1  C   UNL     1       1.068  11.125  18.774  0.00  0.00    +0.000 C 
ATOM      2  C   UNL     1       2.249  10.339  18.168  0.00  0.00    +0.000 C 
ATOM      3  N   UNL     1       2.042   8.896  18.281  0.00  0.00    +0.000 NA
ATOM      4  C   UNL     1       3.096   8.160  17.541  0.00  0.00    +0.000 C 
ATOM      5  C   UNL     1       2.830   6.637  17.493  0.00  0.00    +0.000 C 
ATOM      6  C   UNL     1       2.446   6.141  18.841  0.00  0.00    +0.000 A 
ATOM      7  C   UNL     1       2.045   7.016  19.832  0.00  0.00    +0.000 A 
ATOM      8  N   UNL     1       1.778   6.279  20.953  0.00  0.00    +0.000 N 
ATOM      9  C   UNL     1       1.980   4.940  20.697  0.00  0.00    +0.000 A 
ATOM     10  C   UNL     1       1.825   3.826  21.533  0.00  0.00    +0.000 A 
ATOM     11  C   UNL     1       2.101   2.565  20.992  0.00  0.00    +0.000 A 
ATOM     12  C   UNL     1       2.518   2.423  19.668  0.00  0.00    +0.000 A 
ATOM     13  C   UNL     1       2.670   3.547  18.847  0.00  0.00    +0.000 A 
ATOM     14  C   UNL     1       2.395   4.825  19.368  0.00  0.00    +0.000 A 
ATOM     15  C   UNL     1       2.002   8.511  19.714  0.00  0.00    +0.000 C 
ATOM     16  C   UNL     1       0.742   9.119  20.337  0.00  0.00    +0.000 C 
ATOM     17  C   UNL     1       0.723  10.663  20.227  0.00  0.00    +0.000 C 
ATOM     18  H   UNL     1       1.483   6.649  21.848  0.00  0.00    +0.000 HD
ENDROOT
BRANCH   1  20
ATOM     19  C   UNL     1       2.712  13.033  18.124  0.00  0.00    +0.000 C 
ATOM     20  C   UNL     1       1.333  12.646  18.651  0.00  0.00    +0.000 C 
ENDBRANCH   1  20
BRANCH  17  21
ATOM     21  C   UNL     1      -0.609  11.180  20.795  0.00  0.00    +0.000 C 
ATOM     22  C   UNL     1      -0.924  11.159  22.104  0.00  0.00    +0.000 C 
BRANCH  22  23
ATOM     23  O   UNL     1      -2.062  11.699  22.639  0.00  0.00    +0.000 OA
ATOM     24  C   UNL     1      -1.844  12.949  23.283  0.00  0.00    +0.000 C 
ENDBRANCH  22  23
BRANCH  21  25
ATOM     25  C   UNL     1      -1.614  11.771  19.850  0.00  0.00    +0.000 C 
ATOM     26  O   UNL     1      -1.916  12.952  19.780  0.00  0.00    +0.000 OA
BRANCH  25  27
ATOM     27  O   UNL     1      -2.142  10.791  19.069  0.00  0.00    +0.000 OA
ATOM     28  C   UNL     1      -2.542  11.191  17.755  0.00  0.00    +0.000 C 
ENDBRANCH  25  27
ENDBRANCH  21  25
ENDBRANCH  17  21
TORSDOF 5
ENDMDL
MODEL 4
REMARK VINA RESULT:      -6.5      7.796     10.202
REMARK  Name = 
REMARK  8 active torsions:
REMARK  status: ('A' for Active; 'I' for Inactive)
REMARK    1  A    between atoms: C_1  and  C_2
REMARK    2  A    between atoms: C_2  and  C_3
REMARK    3  A    between atoms: C_19  and  C_20
REMARK    4  A    between atoms: C_20  and  C_24
REMARK    5  A    between atoms: C_21  and  O_22
REMARK    6  A    between atoms: O_22  and  C_23
REMARK    7  A    between atoms: C_24  and  O_26
REMARK    8  A    between atoms: O_26  and  C_27
REMARK                            x       y       z     vdW  Elec       q    Type
REMARK                         _______ _______ _______ _____ _____    ______ ____
ROOT
ATOM      1  C   UNL     1       1.006  11.199  18.769  0.00  0.00    +0.000 C 
ATOM      2  C   UNL     1       2.160  10.409  18.118  0.00  0.00    +0.000 C 
ATOM      3  N   UNL     1       1.967   8.967  18.262  0.00  0.00    +0.000 NA
ATOM      4  C   UNL     1       2.987   8.225  17.482  0.00  0.00    +0.000 C 
ATOM      5  C   UNL     1       2.727   6.700  17.469  0.00  0.00    +0.000 C 
ATOM      6  C   UNL     1       2.412   6.223  18.842  0.00  0.00    +0.000 A 
ATOM      7  C   UNL     1       2.056   7.111  19.838  0.00  0.00    +0.000 A 
ATOM      8  N   UNL     1       1.848   6.388  20.982  0.00  0.00    +0.000 N 
ATOM      9  C   UNL     1       2.044   5.047  20.735  0.00  0.00    +0.000 A 
ATOM     10  C   UNL     1       1.936   3.945  21.594  0.00  0.00    +0.000 A 
ATOM     11  C   UNL     1       2.192   2.677  21.058  0.00  0.00    +0.000 A 
ATOM     12  C   UNL     1       2.544   2.518  19.718  0.00  0.00    +0.000 A 
ATOM     13  C   UNL     1       2.650   3.630  18.874  0.00  0.00    +0.000 A 
ATOM     14  C   UNL     1       2.394   4.915  19.390  0.00  0.00    +0.000 A 
ATOM     15  C   UNL     1       1.999   8.603  19.701  0.00  0.00    +0.000 C 
ATOM     16  C   UNL     1       0.767   9.214  20.376  0.00  0.00    +0.000 C 
ATOM     17  C   UNL     1       0.735  10.756  20.244  0.00  0.00    +0.000 C 
ATOM     18  H   UNL     1       1.594   6.771  21.884  0.00  0.00    +0.000 HD
ENDROOT
BRANCH   1  20
ATOM     19  C   UNL     1       2.708  13.124  18.371  0.00  0.00    +0.000 C 
ATOM     20  C   UNL     1       1.256  12.719  18.612  0.00  0.00    +0.000 C 
ENDBRANCH   1  20
BRANCH  17  21
ATOM     21  C   UNL     1      -0.570  11.276  20.869  0.00  0.00    +0.000 C 
ATOM     22  C   UNL     1      -1.666  11.601  20.155  0.00  0.00    +0.000 C 
BRANCH  22  23
ATOM     23  O   UNL     1      -2.865  11.975  20.698  0.00  0.00    +0.000 OA
ATOM     24  C   UNL     1      -3.187  13.342  20.466  0.00  0.00    +0.000 C 
ENDBRANCH  22  23
BRANCH  21  25
ATOM     25  C   UNL     1      -0.653  11.407  22.362  0.00  0.00    +0.000 C 
ATOM     26  O   UNL     1      -0.401  12.416  23.002  0.00  0.00    +0.000 OA
BRANCH  25  27
ATOM     27  O   UNL     1      -1.060  10.229  22.905  0.00  0.00    +0.000 OA
ATOM     28  C   UNL     1      -0.052   9.479  23.591  0.00  0.00    +0.000 C 
ENDBRANCH  25  27
ENDBRANCH  21  25
ENDBRANCH  17  21
TORSDOF 5
ENDMDL
MODEL 5
REMARK VINA RESULT:      -6.5      6.644      9.409
REMARK  Name = 
REMARK  8 active torsions:
REMARK  status: ('A' for Active; 'I' for Inactive)
REMARK    1  A    between atoms: C_1  and  C_2
REMARK    2  A    between atoms: C_2  and  C_3
REMARK    3  A    between atoms: C_19  and  C_20
REMARK    4  A    between atoms: C_20  and  C_24
REMARK    5  A    between atoms: C_21  and  O_22
REMARK    6  A    between atoms: O_22  and  C_23
REMARK    7  A    between atoms: C_24  and  O_26
REMARK    8  A    between atoms: O_26  and  C_27
REMARK                            x       y       z     vdW  Elec       q    Type
REMARK                         _______ _______ _______ _____ _____    ______ ____
ROOT
ATOM      1  C   UNL     1       0.925   9.140  20.463  0.00  0.00    +0.000 C 
ATOM      2  C   UNL     1       1.147   7.621  20.621  0.00  0.00    +0.000 C 
ATOM      3  N   UNL     1       2.393   7.196  19.987  0.00  0.00    +0.000 NA
ATOM      4  C   UNL     1       2.677   5.774  20.299  0.00  0.00    +0.000 C 
ATOM      5  C   UNL     1       4.065   5.322  19.788  0.00  0.00    +0.000 C 
ATOM      6  C   UNL     1       4.272   5.787  18.390  0.00  0.00    +0.000 A 
ATOM      7  C   UNL     1       3.474   6.774  17.844  0.00  0.00    +0.000 A 
ATOM      8  N   UNL     1       3.885   6.972  16.554  0.00  0.00    +0.000 N 
ATOM      9  C   UNL     1       4.948   6.145  16.265  0.00  0.00    +0.000 A 
ATOM     10  C   UNL     1       5.691   6.007  15.085  0.00  0.00    +0.000 A 
ATOM     11  C   UNL     1       6.736   5.076  15.080  0.00  0.00    +0.000 A 
ATOM     12  C   UNL     1       7.025   4.310  16.210  0.00  0.00    +0.000 A 
ATOM     13  C   UNL     1       6.271   4.458  17.380  0.00  0.00    +0.000 A 
ATOM     14  C   UNL     1       5.217   5.391  17.409  0.00  0.00    +0.000 A 
ATOM     15  C   UNL     1       2.313   7.436  18.524  0.00  0.00    +0.000 C 
ATOM     16  C   UNL     1       2.272   8.948  18.289  0.00  0.00    +0.000 C 
ATOM     17  C   UNL     1       1.055   9.613  18.979  0.00  0.00    +0.000 C 
ATOM     18  H   UNL     1       3.473   7.622  15.896  0.00  0.00    +0.000 HD
ENDROOT
BRANCH   1  20
ATOM     19  C   UNL     1      -0.303  10.033  22.575  0.00  0.00    +0.000 C 
ATOM     20  C   UNL     1      -0.411   9.548  21.131  0.00  0.00    +0.000 C 
ENDBRANCH   1  20
BRANCH  17  21
ATOM     21  C   UNL     1       1.140  11.134  18.766  0.00  0.00    +0.000 C 
ATOM     22  C   UNL     1       2.243  11.769  18.325  0.00  0.00    +0.000 C 
BRANCH  22  23
ATOM     23  O   UNL     1       2.310  13.105  18.041  0.00  0.00    +0.000 OA
ATOM     24  C   UNL     1       3.088  13.843  18.978  0.00  0.00    +0.000 C 
ENDBRANCH  22  23
BRANCH  21  25
ATOM     25  C   UNL     1      -0.078  11.968  19.035  0.00  0.00    +0.000 C 
ATOM     26  O   UNL     1      -0.225  12.728  19.980  0.00  0.00    +0.000 OA
BRANCH  25  27
ATOM     27  O   UNL     1      -1.003  11.759  18.061  0.00  0.00    +0.000 OA
ATOM     28  C   UNL     1      -2.308  11.384  18.512  0.00  0.00    +0.000 C 
ENDBRANCH  25  27
ENDBRANCH  21  25
ENDBRANCH  17  21
TORSDOF 5
ENDMDL
MODEL 6
REMARK VINA RESULT:      -6.2     10.797     13.024
REMARK  Name = 
REMARK  8 active torsions:
REMARK  status: ('A' for Active; 'I' for Inactive)
REMARK    1  A    between atoms: C_1  and  C_2
REMARK    2  A    between atoms: C_2  and  C_3
REMARK    3  A    between atoms: C_19  and  C_20
REMARK    4  A    between atoms: C_20  and  C_24
REMARK    5  A    between atoms: C_21  and  O_22
REMARK    6  A    between atoms: O_22  and  C_23
REMARK    7  A    between atoms: C_24  and  O_26
REMARK    8  A    between atoms: O_26  and  C_27
REMARK                            x       y       z     vdW  Elec       q    Type
REMARK                         _______ _______ _______ _____ _____    ______ ____
ROOT
ATOM      1  C   UNL     1      -0.818  14.131  22.685  0.00  0.00    +0.000 C 
ATOM      2  C   UNL     1      -1.316  12.716  23.045  0.00  0.00    +0.000 C 
ATOM      3  N   UNL     1      -0.391  11.689  22.569  0.00  0.00    +0.000 NA
ATOM      4  C   UNL     1      -0.791  10.354  23.074  0.00  0.00    +0.000 C 
ATOM      5  C   UNL     1       0.245   9.257  22.735  0.00  0.00    +0.000 C 
ATOM      6  C   UNL     1       0.663   9.371  21.312  0.00  0.00    +0.000 A 
ATOM      7  C   UNL     1       0.411  10.520  20.587  0.00  0.00    +0.000 A 
ATOM      8  N   UNL     1       0.887  10.322  19.319  0.00  0.00    +0.000 N 
ATOM      9  C   UNL     1       1.459   9.074  19.219  0.00  0.00    +0.000 A 
ATOM     10  C   UNL     1       2.077   8.447  18.128  0.00  0.00    +0.000 A 
ATOM     11  C   UNL     1       2.581   7.156  18.321  0.00  0.00    +0.000 A 
ATOM     12  C   UNL     1       2.472   6.515  19.556  0.00  0.00    +0.000 A 
ATOM     13  C   UNL     1       1.851   7.155  20.635  0.00  0.00    +0.000 A 
ATOM     14  C   UNL     1       1.338   8.455  20.465  0.00  0.00    +0.000 A 
ATOM     15  C   UNL     1      -0.331  11.724  21.086  0.00  0.00    +0.000 C 
ATOM     16  C   UNL     1       0.326  13.042  20.665  0.00  0.00    +0.000 C 
ATOM     17  C   UNL     1      -0.464  14.274  21.169  0.00  0.00    +0.000 C 
ATOM     18  H   UNL     1       0.827  10.985  18.556  0.00  0.00    +0.000 HD
ENDROOT
BRANCH   1  20
ATOM     19  C   UNL     1      -1.263  16.246  24.132  0.00  0.00    +0.000 C 
ATOM     20  C   UNL     1      -1.832  15.188  23.189  0.00  0.00    +0.000 C 
ENDBRANCH   1  20
BRANCH  17  21
ATOM     21  C   UNL     1       0.308  15.546  20.779  0.00  0.00    +0.000 C 
ATOM     22  C   UNL     1       1.617  15.735  21.033  0.00  0.00    +0.000 C 
BRANCH  22  23
ATOM     23  O   UNL     1       2.342  16.817  20.613  0.00  0.00    +0.000 OA
ATOM     24  C   UNL     1       3.407  16.474  19.732  0.00  0.00    +0.000 C 
ENDBRANCH  22  23
BRANCH  21  25
ATOM     25  C   UNL     1      -0.420  16.635  20.047  0.00  0.00    +0.000 C 
ATOM     26  O   UNL     1      -0.979  17.590  20.565  0.00  0.00    +0.000 OA
BRANCH  25  27
ATOM     27  O   UNL     1      -0.362  16.407  18.708  0.00  0.00    +0.000 OA
ATOM     28  C   UNL     1      -0.743  17.505  17.873  0.00  0.00    +0.000 C 
ENDBRANCH  25  27
ENDBRANCH  21  25
ENDBRANCH  17  21
TORSDOF 5
ENDMDL
MODEL 7
REMARK VINA RESULT:      -6.2      9.736     12.011
REMARK  Name = 
REMARK  8 active torsions:
REMARK  status: ('A' for Active; 'I' for Inactive)
REMARK    1  A    between atoms: C_1  and  C_2
REMARK    2  A    between atoms: C_2  and  C_3
REMARK    3  A    between atoms: C_19  and  C_20
REMARK    4  A    between atoms: C_20  and  C_24
REMARK    5  A    between atoms: C_21  and  O_22
REMARK    6  A    between atoms: O_22  and  C_23
REMARK    7  A    between atoms: C_24  and  O_26
REMARK    8  A    between atoms: O_26  and  C_27
REMARK                            x       y       z     vdW  Elec       q    Type
REMARK                         _______ _______ _______ _____ _____    ______ ____
ROOT
ATOM      1  C   UNL     1      -0.776  13.468  19.818  0.00  0.00    +0.000 C 
ATOM      2  C   UNL     1       0.612  13.160  19.221  0.00  0.00    +0.000 C 
ATOM      3  N   UNL     1       0.774  11.731  18.958  0.00  0.00    +0.000 NA
ATOM      4  C   UNL     1       2.037  11.476  18.225  0.00  0.00    +0.000 C 
ATOM      5  C   UNL     1       2.176  10.002  17.779  0.00  0.00    +0.000 C 
ATOM      6  C   UNL     1       1.823   9.093  18.902  0.00  0.00    +0.000 A 
ATOM      7  C   UNL     1       1.132   9.559  20.004  0.00  0.00    +0.000 A 
ATOM      8  N   UNL     1       0.973   8.510  20.868  0.00  0.00    +0.000 N 
ATOM      9  C   UNL     1       1.531   7.370  20.334  0.00  0.00    +0.000 A 
ATOM     10  C   UNL     1       1.600   6.069  20.850  0.00  0.00    +0.000 A 
ATOM     11  C   UNL     1       2.233   5.093  20.072  0.00  0.00    +0.000 A 
ATOM     12  C   UNL     1       2.779   5.406  18.827  0.00  0.00    +0.000 A 
ATOM     13  C   UNL     1       2.704   6.711  18.326  0.00  0.00    +0.000 A 
ATOM     14  C   UNL     1       2.069   7.708  19.090  0.00  0.00    +0.000 A 
ATOM     15  C   UNL     1       0.717  10.981  20.238  0.00  0.00    +0.000 C 
ATOM     16  C   UNL     1      -0.704  11.099  20.798  0.00  0.00    +0.000 C 
ATOM     17  C   UNL     1      -1.109  12.571  21.055  0.00  0.00    +0.000 C 
ATOM     18  H   UNL     1       0.520   8.553  21.772  0.00  0.00    +0.000 HD
ENDROOT
BRANCH   1  20
ATOM     19  C   UNL     1      -0.385  15.903  18.994  0.00  0.00    +0.000 C 
ATOM     20  C   UNL     1      -0.902  14.986  20.099  0.00  0.00    +0.000 C 
ENDBRANCH   1  20
BRANCH  17  21
ATOM     21  C   UNL     1      -2.571  12.603  21.531  0.00  0.00    +0.000 C 
ATOM     22  C   UNL     1      -2.961  12.272  22.777  0.00  0.00    +0.000 C 
BRANCH  22  23
ATOM     23  O   UNL     1      -4.241  12.383  23.247  0.00  0.00    +0.000 OA
ATOM     24  C   UNL     1      -4.317  12.449  24.667  0.00  0.00    +0.000 C 
ENDBRANCH  22  23
BRANCH  21  25
ATOM     25  C   UNL     1      -3.632  13.053  20.570  0.00  0.00    +0.000 C 
ATOM     26  O   UNL     1      -4.203  14.132  20.596  0.00  0.00    +0.000 OA
BRANCH  25  27
ATOM     27  O   UNL     1      -3.863  12.078  19.652  0.00  0.00    +0.000 OA
ATOM     28  C   UNL     1      -5.155  12.097  19.036  0.00  0.00    +0.000 C 
ENDBRANCH  25  27
ENDBRANCH  21  25
ENDBRANCH  17  21
TORSDOF 5
ENDMDL
MODEL 8
REMARK VINA RESULT:      -6.1     11.896     13.899
REMARK  Name = 
REMARK  8 active torsions:
REMARK  status: ('A' for Active; 'I' for Inactive)
REMARK    1  A    between atoms: C_1  and  C_2
REMARK    2  A    between atoms: C_2  and  C_3
REMARK    3  A    between atoms: C_19  and  C_20
REMARK    4  A    between atoms: C_20  and  C_24
REMARK    5  A    between atoms: C_21  and  O_22
REMARK    6  A    between atoms: O_22  and  C_23
REMARK    7  A    between atoms: C_24  and  O_26
REMARK    8  A    between atoms: O_26  and  C_27
REMARK                            x       y       z     vdW  Elec       q    Type
REMARK                         _______ _______ _______ _____ _____    ______ ____
ROOT
ATOM      1  C   UNL     1      -3.173  11.147  17.228  0.00  0.00    +0.000 C 
ATOM      2  C   UNL     1      -4.709  11.130  17.375  0.00  0.00    +0.000 C 
ATOM      3  N   UNL     1      -5.177  12.240  18.202  0.00  0.00    +0.000 NA
ATOM      4  C   UNL     1      -6.659  12.312  18.187  0.00  0.00    +0.000 C 
ATOM      5  C   UNL     1      -7.198  13.566  18.913  0.00  0.00    +0.000 C 
ATOM      6  C   UNL     1      -6.502  13.742  20.215  0.00  0.00    +0.000 A 
ATOM      7  C   UNL     1      -5.322  13.078  20.486  0.00  0.00    +0.000 A 
ATOM      8  N   UNL     1      -4.935  13.420  21.753  0.00  0.00    +0.000 N 
ATOM      9  C   UNL     1      -5.835  14.309  22.297  0.00  0.00    +0.000 A 
ATOM     10  C   UNL     1      -5.844  14.932  23.553  0.00  0.00    +0.000 A 
ATOM     11  C   UNL     1      -6.898  15.808  23.836  0.00  0.00    +0.000 A 
ATOM     12  C   UNL     1      -7.905  16.051  22.901  0.00  0.00    +0.000 A 
ATOM     13  C   UNL     1      -7.883  15.419  21.652  0.00  0.00    +0.000 A 
ATOM     14  C   UNL     1      -6.830  14.536  21.344  0.00  0.00    +0.000 A 
ATOM     15  C   UNL     1      -4.645  12.093  19.580  0.00  0.00    +0.000 C 
ATOM     16  C   UNL     1      -3.126  12.281  19.528  0.00  0.00    +0.000 C 
ATOM     17  C   UNL     1      -2.441  11.243  18.606  0.00  0.00    +0.000 C 
ATOM     18  H   UNL     1      -4.115  13.072  22.234  0.00  0.00    +0.000 HD
ENDROOT
BRANCH   1  20
ATOM     19  C   UNL     1      -2.928  10.103  14.859  0.00  0.00    +0.000 C 
ATOM     20  C   UNL     1      -2.715   9.947  16.363  0.00  0.00    +0.000 C 
ENDBRANCH   1  20
BRANCH  17  21
ATOM     21  C   UNL     1      -0.937  11.557  18.544  0.00  0.00    +0.000 C 
ATOM     22  C   UNL     1      -0.434  12.733  18.121  0.00  0.00    +0.000 C 
BRANCH  22  23
ATOM     23  O   UNL     1       0.893  13.066  18.147  0.00  0.00    +0.000 OA
ATOM     24  C   UNL     1       1.166  14.238  18.908  0.00  0.00    +0.000 C 
ENDBRANCH  22  23
BRANCH  21  25
ATOM     25  C   UNL     1       0.038  10.513  19.006  0.00  0.00    +0.000 C 
ATOM     26  O   UNL     1       0.497  10.418  20.133  0.00  0.00    +0.000 OA
BRANCH  25  27
ATOM     27  O   UNL     1       0.333   9.675  17.977  0.00  0.00    +0.000 OA
ATOM     28  C   UNL     1       1.725   9.429  17.755  0.00  0.00    +0.000 C 
ENDBRANCH  25  27
ENDBRANCH  21  25
ENDBRANCH  17  21
TORSDOF 5
ENDMDL
MODEL 9
REMARK VINA RESULT:      -6.0     11.850     13.787
REMARK  Name = 
REMARK  8 active torsions:
REMARK  status: ('A' for Active; 'I' for Inactive)
REMARK    1  A    between atoms: C_1  and  C_2
REMARK    2  A    between atoms: C_2  and  C_3
REMARK    3  A    between atoms: C_19  and  C_20
REMARK    4  A    between atoms: C_20  and  C_24
REMARK    5  A    between atoms: C_21  and  O_22
REMARK    6  A    between atoms: O_22  and  C_23
REMARK    7  A    between atoms: C_24  and  O_26
REMARK    8  A    between atoms: O_26  and  C_27
REMARK                            x       y       z     vdW  Elec       q    Type
REMARK                         _______ _______ _______ _____ _____    ______ ____
ROOT
ATOM      1  C   UNL     1      -3.233  10.996  16.906  0.00  0.00    +0.000 C 
ATOM      2  C   UNL     1      -4.770  11.121  16.942  0.00  0.00    +0.000 C 
ATOM      3  N   UNL     1      -5.196  12.196  17.836  0.00  0.00    +0.000 NA
ATOM      4  C   UNL     1      -6.658  12.418  17.724  0.00  0.00    +0.000 C 
ATOM      5  C   UNL     1      -7.132  13.651  18.526  0.00  0.00    +0.000 C 
ATOM      6  C   UNL     1      -6.529  13.641  19.886  0.00  0.00    +0.000 A 
ATOM      7  C   UNL     1      -5.442  12.839  20.174  0.00  0.00    +0.000 A 
ATOM      8  N   UNL     1      -5.126  13.026  21.492  0.00  0.00    +0.000 N 
ATOM      9  C   UNL     1      -5.978  13.951  22.054  0.00  0.00    +0.000 A 
ATOM     10  C   UNL     1      -6.028  14.458  23.360  0.00  0.00    +0.000 A 
ATOM     11  C   UNL     1      -7.014  15.407  23.651  0.00  0.00    +0.000 A 
ATOM     12  C   UNL     1      -7.917  15.833  22.675  0.00  0.00    +0.000 A 
ATOM     13  C   UNL     1      -7.854  15.315  21.376  0.00  0.00    +0.000 A 
ATOM     14  C   UNL     1      -6.869  14.360  21.060  0.00  0.00    +0.000 A 
ATOM     15  C   UNL     1      -4.791  11.874  19.227  0.00  0.00    +0.000 C 
ATOM     16  C   UNL     1      -3.262  11.911  19.301  0.00  0.00    +0.000 C 
ATOM     17  C   UNL     1      -2.607  10.894  18.335  0.00  0.00    +0.000 C 
ATOM     18  H   UNL     1      -4.384  12.556  21.994  0.00  0.00    +0.000 HD
ENDROOT
BRANCH   1  20
ATOM     19  C   UNL     1      -2.998  10.109  14.472  0.00  0.00    +0.000 C 
ATOM     20  C   UNL     1      -2.822   9.837  15.964  0.00  0.00    +0.000 C 
ENDBRANCH   1  20
BRANCH  17  21
ATOM     21  C   UNL     1      -1.079  11.059  18.409  0.00  0.00    +0.000 C 
ATOM     22  C   UNL     1      -0.206  10.051  18.219  0.00  0.00    +0.000 C 
BRANCH  22  23
ATOM     23  O   UNL     1       1.154  10.196  18.189  0.00  0.00    +0.000 OA
ATOM     24  C   UNL     1       1.843   8.984  17.899  0.00  0.00    +0.000 C 
ENDBRANCH  22  23
BRANCH  21  25
ATOM     25  C   UNL     1      -0.514  12.423  18.682  0.00  0.00    +0.000 C 
ATOM     26  O   UNL     1      -0.448  13.339  17.877  0.00  0.00    +0.000 OA
BRANCH  25  27
ATOM     27  O   UNL     1      -0.087  12.494  19.971  0.00  0.00    +0.000 OA
ATOM     28  C   UNL     1      -0.207  13.776  20.596  0.00  0.00    +0.000 C 
ENDBRANCH  25  27
ENDBRANCH  21  25
ENDBRANCH  17  21
TORSDOF 5
ENDMDL
