MODEL 1
REMARK VINA RESULT:      -9.0      0.000      0.000
REMARK  Name = 
REMARK  4 active torsions:
REMARK  status: ('A' for Active; 'I' for Inactive)
REMARK    1  A    between atoms: C_1  and  C_2
REMARK    2  A    between atoms: C_4  and  C_5
REMARK    3  A    between atoms: C_10  and  N_11
REMARK    4  A    between atoms: N_14  and  C_15
REMARK                            x       y       z     vdW  Elec       q    Type
REMARK                         _______ _______ _______ _____ _____    ______ ____
ROOT
ATOM      1  C   UNL     1       1.061   9.648  19.648  0.00  0.00    +0.000 A 
ATOM      2  N   UNL     1       0.934  10.496  18.613  0.00  0.00    +0.000 NA
ATOM      3  N   UNL     1       1.640   9.926  17.617  0.00  0.00    +0.000 N 
ATOM      4  C   UNL     1       2.208   8.724  17.945  0.00  0.00    +0.000 A 
ATOM      5  C   UNL     1       3.004   7.816  17.233  0.00  0.00    +0.000 A 
ATOM      6  C   UNL     1       3.374   6.676  17.943  0.00  0.00    +0.000 A 
ATOM      7  N   UNL     1       2.977   6.445  19.211  0.00  0.00    +0.000 NA
ATOM      8  C   UNL     1       2.208   7.324  19.877  0.00  0.00    +0.000 A 
ATOM      9  C   UNL     1       1.819   8.506  19.261  0.00  0.00    +0.000 A 
ATOM     10  H   UNL     1       1.692  10.413  16.729  0.00  0.00    +0.000 HD
ENDROOT
BRANCH   1  14
ATOM     11  C   UNL     1      -1.531  12.570  22.770  0.00  0.00    +0.000 C 
ATOM     12  C   UNL     1      -0.793  11.305  22.453  0.00  0.00    +0.000 A 
ATOM     13  C   UNL     1      -0.216  11.104  21.203  0.00  0.00    +0.000 A 
ATOM     14  C   UNL     1       0.472   9.915  20.961  0.00  0.00    +0.000 A 
ATOM     15  C   UNL     1       0.574   8.980  21.996  0.00  0.00    +0.000 A 
ATOM     16  C   UNL     1      -0.041   9.256  23.203  0.00  0.00    +0.000 A 
ATOM     17  N   UNL     1      -0.723  10.390  23.450  0.00  0.00    +0.000 NA
ENDBRANCH   1  14
BRANCH   6  18
ATOM     18  N   UNL     1       4.186   5.708  17.336  0.00  0.00    +0.000 N 
ATOM     19  C   UNL     1       4.152   4.348  17.537  0.00  0.00    +0.000 C 
ATOM     20  O   UNL     1       4.906   3.614  16.904  0.00  0.00    +0.000 OA
ATOM     21  N   UNL     1       3.277   3.896  18.473  0.00  0.00    +0.000 N 
ATOM     22  H   UNL     1       4.878   6.001  16.667  0.00  0.00    +0.000 HD
ATOM     23  H   UNL     1       2.626   4.591  18.832  0.00  0.00    +0.000 HD
BRANCH  21  24
ATOM     24  C   UNL     1       2.985   2.518  18.824  0.00  0.00    +0.000 C 
ATOM     25  C   UNL     1       1.472   2.258  18.823  0.00  0.00    +0.000 C 
ATOM     26  C   UNL     1       0.772   2.924  20.011  0.00  0.00    +0.000 C 
ATOM     27  C   UNL     1       1.459   2.612  21.337  0.00  0.00    +0.000 C 
ATOM     28  N   UNL     1       2.884   2.951  21.301  0.00  0.00    +0.000 NA
ATOM     29  C   UNL     1       3.565   2.206  20.224  0.00  0.00    +0.000 C 
ATOM     30  H   UNL     1       3.310   2.705  22.195  0.00  0.00    +0.000 HD
ENDBRANCH  21  24
ENDBRANCH   6  18
TORSDOF 3
ENDMDL
MODEL 2
REMARK VINA RESULT:      -8.5      3.829      8.194
REMARK  Name = 
REMARK  4 active torsions:
REMARK  status: ('A' for Active; 'I' for Inactive)
REMARK    1  A    between atoms: C_1  and  C_2
REMARK    2  A    between atoms: C_4  and  C_5
REMARK    3  A    between atoms: C_10  and  N_11
REMARK    4  A    between atoms: N_14  and  C_15
REMARK                            x       y       z     vdW  Elec       q    Type
REMARK                         _______ _______ _______ _____ _____    ______ ____
ROOT
ATOM      1  C   UNL     1       6.922   4.676  16.007  0.00  0.00    +0.000 A 
ATOM      2  N   UNL     1       7.893   4.257  16.837  0.00  0.00    +0.000 NA
ATOM      3  N   UNL     1       7.446   4.569  18.069  0.00  0.00    +0.000 N 
ATOM      4  C   UNL     1       6.208   5.152  18.088  0.00  0.00    +0.000 A 
ATOM      5  C   UNL     1       5.389   5.625  19.124  0.00  0.00    +0.000 A 
ATOM      6  C   UNL     1       4.166   6.151  18.712  0.00  0.00    +0.000 A 
ATOM      7  N   UNL     1       3.782   6.181  17.420  0.00  0.00    +0.000 NA
ATOM      8  C   UNL     1       4.578   5.717  16.440  0.00  0.00    +0.000 A 
ATOM      9  C   UNL     1       5.830   5.207  16.753  0.00  0.00    +0.000 A 
ATOM     10  H   UNL     1       8.040   4.350  18.861  0.00  0.00    +0.000 HD
ENDROOT
BRANCH   1  14
ATOM     11  C   UNL     1       5.561   2.596  11.668  0.00  0.00    +0.000 C 
ATOM     12  C   UNL     1       6.358   3.583  12.465  0.00  0.00    +0.000 A 
ATOM     13  C   UNL     1       6.255   3.635  13.852  0.00  0.00    +0.000 A 
ATOM     14  C   UNL     1       7.027   4.563  14.551  0.00  0.00    +0.000 A 
ATOM     15  C   UNL     1       7.894   5.389  13.829  0.00  0.00    +0.000 A 
ATOM     16  C   UNL     1       7.923   5.279  12.452  0.00  0.00    +0.000 A 
ATOM     17  N   UNL     1       7.174   4.402  11.759  0.00  0.00    +0.000 NA
ENDBRANCH   1  14
BRANCH   6  18
ATOM     18  N   UNL     1       3.275   6.670  19.662  0.00  0.00    +0.000 N 
ATOM     19  C   UNL     1       2.175   6.043  20.200  0.00  0.00    +0.000 C 
ATOM     20  O   UNL     1       1.502   6.612  21.055  0.00  0.00    +0.000 OA
ATOM     21  N   UNL     1       1.884   4.808  19.715  0.00  0.00    +0.000 N 
ATOM     22  H   UNL     1       3.426   7.599  20.018  0.00  0.00    +0.000 HD
ATOM     23  H   UNL     1       2.590   4.402  19.105  0.00  0.00    +0.000 HD
BRANCH  21  24
ATOM     24  C   UNL     1       0.838   3.904  20.158  0.00  0.00    +0.000 C 
ATOM     25  C   UNL     1       1.272   3.136  21.415  0.00  0.00    +0.000 C 
ATOM     26  C   UNL     1       2.338   2.081  21.107  0.00  0.00    +0.000 C 
ATOM     27  C   UNL     1       1.947   1.188  19.933  0.00  0.00    +0.000 C 
ATOM     28  N   UNL     1       1.617   1.976  18.742  0.00  0.00    +0.000 NA
ATOM     29  C   UNL     1       0.506   2.903  19.027  0.00  0.00    +0.000 C 
ATOM     30  H   UNL     1       1.339   1.345  17.990  0.00  0.00    +0.000 HD
ENDBRANCH  21  24
ENDBRANCH   6  18
TORSDOF 3
ENDMDL
MODEL 3
REMARK VINA RESULT:      -8.4      1.760      2.458
REMARK  Name = 
REMARK  4 active torsions:
REMARK  status: ('A' for Active; 'I' for Inactive)
REMARK    1  A    between atoms: C_1  and  C_2
REMARK    2  A    between atoms: C_4  and  C_5
REMARK    3  A    between atoms: C_10  and  N_11
REMARK    4  A    between atoms: N_14  and  C_15
REMARK                            x       y       z     vdW  Elec       q    Type
REMARK                         _______ _______ _______ _____ _____    ______ ____
ROOT
ATOM      1  C   UNL     1       0.682   9.438  20.187  0.00  0.00    +0.000 A 
ATOM      2  N   UNL     1       0.720   8.823  21.382  0.00  0.00    +0.000 NA
ATOM      3  N   UNL     1       1.530   7.762  21.193  0.00  0.00    +0.000 N 
ATOM      4  C   UNL     1       2.048   7.667  19.930  0.00  0.00    +0.000 A 
ATOM      5  C   UNL     1       2.908   6.746  19.316  0.00  0.00    +0.000 A 
ATOM      6  C   UNL     1       3.209   7.021  17.983  0.00  0.00    +0.000 A 
ATOM      7  N   UNL     1       2.734   8.103  17.335  0.00  0.00    +0.000 NA
ATOM      8  C   UNL     1       1.914   8.980  17.942  0.00  0.00    +0.000 A 
ATOM      9  C   UNL     1       1.531   8.769  19.260  0.00  0.00    +0.000 A 
ATOM     10  H   UNL     1       1.691   7.139  21.977  0.00  0.00    +0.000 HD
ENDROOT
BRANCH   1  14
ATOM     11  C   UNL     1      -3.327  11.670  18.199  0.00  0.00    +0.000 C 
ATOM     12  C   UNL     1      -2.067  11.699  19.009  0.00  0.00    +0.000 A 
ATOM     13  C   UNL     1      -1.303  10.549  19.190  0.00  0.00    +0.000 A 
ATOM     14  C   UNL     1      -0.131  10.630  19.942  0.00  0.00    +0.000 A 
ATOM     15  C   UNL     1       0.243  11.872  20.464  0.00  0.00    +0.000 A 
ATOM     16  C   UNL     1      -0.582  12.960  20.247  0.00  0.00    +0.000 A 
ATOM     17  N   UNL     1      -1.725  12.898  19.538  0.00  0.00    +0.000 NA
ENDBRANCH   1  14
BRANCH   6  18
ATOM     18  N   UNL     1       4.046   6.156  17.264  0.00  0.00    +0.000 N 
ATOM     19  C   UNL     1       4.040   4.781  17.289  0.00  0.00    +0.000 C 
ATOM     20  O   UNL     1       4.814   4.150  16.573  0.00  0.00    +0.000 OA
ATOM     21  N   UNL     1       3.167   4.195  18.149  0.00  0.00    +0.000 N 
ATOM     22  H   UNL     1       4.738   6.547  16.646  0.00  0.00    +0.000 HD
ATOM     23  H   UNL     1       2.499   4.825  18.588  0.00  0.00    +0.000 HD
BRANCH  21  24
ATOM     24  C   UNL     1       2.902   2.778  18.316  0.00  0.00    +0.000 C 
ATOM     25  C   UNL     1       1.396   2.512  18.457  0.00  0.00    +0.000 C 
ATOM     26  C   UNL     1       0.851   2.983  19.808  0.00  0.00    +0.000 C 
ATOM     27  C   UNL     1       1.687   2.475  20.979  0.00  0.00    +0.000 C 
ATOM     28  N   UNL     1       3.102   2.823  20.824  0.00  0.00    +0.000 NA
ATOM     29  C   UNL     1       3.640   2.258  19.572  0.00  0.00    +0.000 C 
ATOM     30  H   UNL     1       3.627   2.446  21.613  0.00  0.00    +0.000 HD
ENDBRANCH  21  24
ENDBRANCH   6  18
TORSDOF 3
ENDMDL
MODEL 4
REMARK VINA RESULT:      -8.3      0.797      1.005
REMARK  Name = 
REMARK  4 active torsions:
REMARK  status: ('A' for Active; 'I' for Inactive)
REMARK    1  A    between atoms: C_1  and  C_2
REMARK    2  A    between atoms: C_4  and  C_5
REMARK    3  A    between atoms: C_10  and  N_11
REMARK    4  A    between atoms: N_14  and  C_15
REMARK                            x       y       z     vdW  Elec       q    Type
REMARK                         _______ _______ _______ _____ _____    ______ ____
ROOT
ATOM      1  C   UNL     1       0.655  10.051  19.685  0.00  0.00    +0.000 A 
ATOM      2  N   UNL     1       0.466  10.790  18.579  0.00  0.00    +0.000 NA
ATOM      3  N   UNL     1       1.200  10.177  17.630  0.00  0.00    +0.000 N 
ATOM      4  C   UNL     1       1.847   9.050  18.058  0.00  0.00    +0.000 A 
ATOM      5  C   UNL     1       2.695   8.133  17.422  0.00  0.00    +0.000 A 
ATOM      6  C   UNL     1       3.143   7.088  18.229  0.00  0.00    +0.000 A 
ATOM      7  N   UNL     1       2.771   6.950  19.517  0.00  0.00    +0.000 NA
ATOM      8  C   UNL     1       1.951   7.836  20.110  0.00  0.00    +0.000 A 
ATOM      9  C   UNL     1       1.482   8.929  19.394  0.00  0.00    +0.000 A 
ATOM     10  H   UNL     1       1.214  10.583  16.701  0.00  0.00    +0.000 HD
ENDROOT
BRANCH   1  14
ATOM     11  C   UNL     1      -1.452  13.364  22.782  0.00  0.00    +0.000 C 
ATOM     12  C   UNL     1      -0.975  11.982  22.454  0.00  0.00    +0.000 A 
ATOM     13  C   UNL     1      -0.381  11.699  21.228  0.00  0.00    +0.000 A 
ATOM     14  C   UNL     1       0.059  10.399  20.976  0.00  0.00    +0.000 A 
ATOM     15  C   UNL     1      -0.094   9.437  21.978  0.00  0.00    +0.000 A 
ATOM     16  C   UNL     1      -0.707   9.802  23.162  0.00  0.00    +0.000 A 
ATOM     17  N   UNL     1      -1.153  11.046  23.417  0.00  0.00    +0.000 NA
ENDBRANCH   1  14
BRANCH   6  18
ATOM     18  N   UNL     1       4.011   6.123  17.702  0.00  0.00    +0.000 N 
ATOM     19  C   UNL     1       4.158   4.820  18.117  0.00  0.00    +0.000 C 
ATOM     20  O   UNL     1       4.939   4.073  17.534  0.00  0.00    +0.000 OA
ATOM     21  N   UNL     1       3.424   4.443  19.197  0.00  0.00    +0.000 N 
ATOM     22  H   UNL     1       4.606   6.370  16.928  0.00  0.00    +0.000 HD
ATOM     23  H   UNL     1       2.727   5.115  19.507  0.00  0.00    +0.000 HD
BRANCH  21  24
ATOM     24  C   UNL     1       3.330   3.120  19.788  0.00  0.00    +0.000 C 
ATOM     25  C   UNL     1       2.813   2.096  18.767  0.00  0.00    +0.000 C 
ATOM     26  C   UNL     1       1.326   2.289  18.458  0.00  0.00    +0.000 C 
ATOM     27  C   UNL     1       0.480   2.390  19.724  0.00  0.00    +0.000 C 
ATOM     28  N   UNL     1       0.978   3.434  20.625  0.00  0.00    +0.000 NA
ATOM     29  C   UNL     1       2.377   3.164  21.006  0.00  0.00    +0.000 C 
ATOM     30  H   UNL     1       0.401   3.452  21.466  0.00  0.00    +0.000 HD
ENDBRANCH  21  24
ENDBRANCH   6  18
TORSDOF 3
ENDMDL
MODEL 5
REMARK VINA RESULT:      -8.2      3.481      8.136
REMARK  Name = 
REMARK  4 active torsions:
REMARK  status: ('A' for Active; 'I' for Inactive)
REMARK    1  A    between atoms: C_1  and  C_2
REMARK    2  A    between atoms: C_4  and  C_5
REMARK    3  A    between atoms: C_10  and  N_11
REMARK    4  A    between atoms: N_14  and  C_15
REMARK                            x       y       z     vdW  Elec       q    Type
REMARK                         _______ _______ _______ _____ _____    ______ ____
ROOT
ATOM      1  C   UNL     1       2.860   6.058  19.254  0.00  0.00    +0.000 A 
ATOM      2  N   UNL     1       2.558   5.460  20.420  0.00  0.00    +0.000 NA
ATOM      3  N   UNL     1       1.859   6.385  21.106  0.00  0.00    +0.000 N 
ATOM      4  C   UNL     1       1.666   7.561  20.432  0.00  0.00    +0.000 A 
ATOM      5  C   UNL     1       1.016   8.757  20.763  0.00  0.00    +0.000 A 
ATOM      6  C   UNL     1       1.036   9.733  19.767  0.00  0.00    +0.000 A 
ATOM      7  N   UNL     1       1.612   9.535  18.564  0.00  0.00    +0.000 NA
ATOM      8  C   UNL     1       2.226   8.378  18.262  0.00  0.00    +0.000 A 
ATOM      9  C   UNL     1       2.287   7.362  19.205  0.00  0.00    +0.000 A 
ATOM     10  H   UNL     1       1.537   6.146  22.037  0.00  0.00    +0.000 HD
ENDROOT
BRANCH   1  14
ATOM     11  C   UNL     1       7.003   5.745  16.471  0.00  0.00    +0.000 C 
ATOM     12  C   UNL     1       5.659   5.238  16.899  0.00  0.00    +0.000 A 
ATOM     13  C   UNL     1       4.913   5.909  17.864  0.00  0.00    +0.000 A 
ATOM     14  C   UNL     1       3.661   5.404  18.219  0.00  0.00    +0.000 A 
ATOM     15  C   UNL     1       3.197   4.255  17.572  0.00  0.00    +0.000 A 
ATOM     16  C   UNL     1       4.010   3.645  16.635  0.00  0.00    +0.000 A 
ATOM     17  N   UNL     1       5.226   4.108  16.291  0.00  0.00    +0.000 NA
ENDBRANCH   1  14
BRANCH   6  18
ATOM     18  N   UNL     1       0.432  10.976  19.996  0.00  0.00    +0.000 N 
ATOM     19  C   UNL     1      -0.824  11.377  19.601  0.00  0.00    +0.000 C 
ATOM     20  O   UNL     1      -1.236  12.493  19.905  0.00  0.00    +0.000 OA
ATOM     21  N   UNL     1      -1.534  10.492  18.854  0.00  0.00    +0.000 N 
ATOM     22  H   UNL     1       0.938  11.679  20.508  0.00  0.00    +0.000 HD
ATOM     23  H   UNL     1      -1.131   9.561  18.780  0.00  0.00    +0.000 HD
BRANCH  21  24
ATOM     24  C   UNL     1      -2.899  10.627  18.378  0.00  0.00    +0.000 C 
ATOM     25  C   UNL     1      -3.337   9.378  17.600  0.00  0.00    +0.000 C 
ATOM     26  C   UNL     1      -2.653   9.280  16.234  0.00  0.00    +0.000 C 
ATOM     27  C   UNL     1      -2.757  10.580  15.440  0.00  0.00    +0.000 C 
ATOM     28  N   UNL     1      -2.255  11.723  16.207  0.00  0.00    +0.000 NA
ATOM     29  C   UNL     1      -3.009  11.872  17.467  0.00  0.00    +0.000 C 
ATOM     30  H   UNL     1      -2.364  12.572  15.652  0.00  0.00    +0.000 HD
ENDBRANCH  21  24
ENDBRANCH   6  18
TORSDOF 3
ENDMDL
MODEL 6
REMARK VINA RESULT:      -8.2      1.738      2.464
REMARK  Name = 
REMARK  4 active torsions:
REMARK  status: ('A' for Active; 'I' for Inactive)
REMARK    1  A    between atoms: C_1  and  C_2
REMARK    2  A    between atoms: C_4  and  C_5
REMARK    3  A    between atoms: C_10  and  N_11
REMARK    4  A    between atoms: N_14  and  C_15
REMARK                            x       y       z     vdW  Elec       q    Type
REMARK                         _______ _______ _______ _____ _____    ______ ____
ROOT
ATOM      1  C   UNL     1       0.881   9.524  19.997  0.00  0.00    +0.000 A 
ATOM      2  N   UNL     1       0.840   8.929  21.202  0.00  0.00    +0.000 NA
ATOM      3  N   UNL     1       1.573   7.809  21.053  0.00  0.00    +0.000 N 
ATOM      4  C   UNL     1       2.116   7.652  19.807  0.00  0.00    +0.000 A 
ATOM      5  C   UNL     1       2.922   6.659  19.232  0.00  0.00    +0.000 A 
ATOM      6  C   UNL     1       3.278   6.886  17.903  0.00  0.00    +0.000 A 
ATOM      7  N   UNL     1       2.902   7.990  17.226  0.00  0.00    +0.000 NA
ATOM      8  C   UNL     1       2.135   8.936  17.796  0.00  0.00    +0.000 A 
ATOM      9  C   UNL     1       1.702   8.777  19.105  0.00  0.00    +0.000 A 
ATOM     10  H   UNL     1       1.666   7.189  21.851  0.00  0.00    +0.000 HD
ENDROOT
BRANCH   1  14
ATOM     11  C   UNL     1       0.778  14.501  19.525  0.00  0.00    +0.000 C 
ATOM     12  C   UNL     1       0.122  13.156  19.460  0.00  0.00    +0.000 A 
ATOM     13  C   UNL     1       0.826  11.997  19.774  0.00  0.00    +0.000 A 
ATOM     14  C   UNL     1       0.167  10.769  19.711  0.00  0.00    +0.000 A 
ATOM     15  C   UNL     1      -1.185  10.755  19.356  0.00  0.00    +0.000 A 
ATOM     16  C   UNL     1      -1.804  11.952  19.047  0.00  0.00    +0.000 A 
ATOM     17  N   UNL     1      -1.180  13.144  19.086  0.00  0.00    +0.000 NA
ENDBRANCH   1  14
BRANCH   6  18
ATOM     18  N   UNL     1       4.067   5.949  17.222  0.00  0.00    +0.000 N 
ATOM     19  C   UNL     1       3.973   4.578  17.289  0.00  0.00    +0.000 C 
ATOM     20  O   UNL     1       4.714   3.878  16.604  0.00  0.00    +0.000 OA
ATOM     21  N   UNL     1       3.057   4.075  18.156  0.00  0.00    +0.000 N 
ATOM     22  H   UNL     1       4.788   6.276  16.601  0.00  0.00    +0.000 HD
ATOM     23  H   UNL     1       2.424   4.759  18.567  0.00  0.00    +0.000 HD
BRANCH  21  24
ATOM     24  C   UNL     1       2.701   2.683  18.364  0.00  0.00    +0.000 C 
ATOM     25  C   UNL     1       1.195   2.532  18.619  0.00  0.00    +0.000 C 
ATOM     26  C   UNL     1       0.788   3.055  19.999  0.00  0.00    +0.000 C 
ATOM     27  C   UNL     1       1.669   2.496  21.112  0.00  0.00    +0.000 C 
ATOM     28  N   UNL     1       3.091   2.737  20.849  0.00  0.00    +0.000 NA
ATOM     29  C   UNL     1       3.490   2.121  19.569  0.00  0.00    +0.000 C 
ATOM     30  H   UNL     1       3.645   2.329  21.602  0.00  0.00    +0.000 HD
ENDBRANCH  21  24
ENDBRANCH   6  18
TORSDOF 3
ENDMDL
MODEL 7
REMARK VINA RESULT:      -8.1      2.516      4.426
REMARK  Name = 
REMARK  4 active torsions:
REMARK  status: ('A' for Active; 'I' for Inactive)
REMARK    1  A    between atoms: C_1  and  C_2
REMARK    2  A    between atoms: C_4  and  C_5
REMARK    3  A    between atoms: C_10  and  N_11
REMARK    4  A    between atoms: N_14  and  C_15
REMARK                            x       y       z     vdW  Elec       q    Type
REMARK                         _______ _______ _______ _____ _____    ______ ____
ROOT
ATOM      1  C   UNL     1       1.235   9.482  20.049  0.00  0.00    +0.000 A 
ATOM      2  N   UNL     1       1.177   9.270  21.375  0.00  0.00    +0.000 NA
ATOM      3  N   UNL     1       1.527   7.979  21.530  0.00  0.00    +0.000 N 
ATOM      4  C   UNL     1       1.839   7.336  20.362  0.00  0.00    +0.000 A 
ATOM      5  C   UNL     1       2.241   6.025  20.070  0.00  0.00    +0.000 A 
ATOM      6  C   UNL     1       2.477   5.770  18.720  0.00  0.00    +0.000 A 
ATOM      7  N   UNL     1       2.355   6.715  17.766  0.00  0.00    +0.000 NA
ATOM      8  C   UNL     1       1.974   7.969  18.066  0.00  0.00    +0.000 A 
ATOM      9  C   UNL     1       1.683   8.306  19.381  0.00  0.00    +0.000 A 
ATOM     10  H   UNL     1       1.537   7.596  22.468  0.00  0.00    +0.000 HD
ENDROOT
BRANCH   1  14
ATOM     11  C   UNL     1       2.529  13.876  18.045  0.00  0.00    +0.000 C 
ATOM     12  C   UNL     1       1.503  12.865  18.456  0.00  0.00    +0.000 A 
ATOM     13  C   UNL     1       1.877  11.670  19.064  0.00  0.00    +0.000 A 
ATOM     14  C   UNL     1       0.883  10.766  19.441  0.00  0.00    +0.000 A 
ATOM     15  C   UNL     1      -0.453  11.109  19.213  0.00  0.00    +0.000 A 
ATOM     16  C   UNL     1      -0.734  12.312  18.592  0.00  0.00    +0.000 A 
ATOM     17  N   UNL     1       0.212  13.189  18.206  0.00  0.00    +0.000 NA
ENDBRANCH   1  14
BRANCH   6  18
ATOM     18  N   UNL     1       2.867   4.487  18.310  0.00  0.00    +0.000 N 
ATOM     19  C   UNL     1       4.059   4.127  17.726  0.00  0.00    +0.000 C 
ATOM     20  O   UNL     1       4.276   2.950  17.451  0.00  0.00    +0.000 OA
ATOM     21  N   UNL     1       4.932   5.133  17.461  0.00  0.00    +0.000 N 
ATOM     22  H   UNL     1       2.234   3.717  18.447  0.00  0.00    +0.000 HD
ATOM     23  H   UNL     1       4.685   6.039  17.852  0.00  0.00    +0.000 HD
BRANCH  21  24
ATOM     24  C   UNL     1       6.278   5.023  16.928  0.00  0.00    +0.000 C 
ATOM     25  C   UNL     1       7.289   4.724  18.044  0.00  0.00    +0.000 C 
ATOM     26  C   UNL     1       7.526   5.937  18.949  0.00  0.00    +0.000 C 
ATOM     27  C   UNL     1       7.830   7.202  18.152  0.00  0.00    +0.000 C 
ATOM     28  N   UNL     1       6.792   7.476  17.155  0.00  0.00    +0.000 NA
ATOM     29  C   UNL     1       6.663   6.343  16.219  0.00  0.00    +0.000 C 
ATOM     30  H   UNL     1       7.044   8.313  16.630  0.00  0.00    +0.000 HD
ENDBRANCH  21  24
ENDBRANCH   6  18
TORSDOF 3
ENDMDL
MODEL 8
REMARK VINA RESULT:      -8.0      2.806      8.206
REMARK  Name = 
REMARK  4 active torsions:
REMARK  status: ('A' for Active; 'I' for Inactive)
REMARK    1  A    between atoms: C_1  and  C_2
REMARK    2  A    between atoms: C_4  and  C_5
REMARK    3  A    between atoms: C_10  and  N_11
REMARK    4  A    between atoms: N_14  and  C_15
REMARK                            x       y       z     vdW  Elec       q    Type
REMARK                         _______ _______ _______ _____ _____    ______ ____
ROOT
ATOM      1  C   UNL     1       3.970   3.977  18.122  0.00  0.00    +0.000 A 
ATOM      2  N   UNL     1       3.390   2.774  18.280  0.00  0.00    +0.000 NA
ATOM      3  N   UNL     1       2.397   2.989  19.165  0.00  0.00    +0.000 N 
ATOM      4  C   UNL     1       2.282   4.289  19.579  0.00  0.00    +0.000 A 
ATOM      5  C   UNL     1       1.414   4.937  20.469  0.00  0.00    +0.000 A 
ATOM      6  C   UNL     1       1.627   6.308  20.606  0.00  0.00    +0.000 A 
ATOM      7  N   UNL     1       2.577   6.971  19.917  0.00  0.00    +0.000 NA
ATOM      8  C   UNL     1       3.397   6.334  19.062  0.00  0.00    +0.000 A 
ATOM      9  C   UNL     1       3.282   4.962  18.888  0.00  0.00    +0.000 A 
ATOM     10  H   UNL     1       1.828   2.198  19.445  0.00  0.00    +0.000 HD
ENDROOT
BRANCH   1  14
ATOM     11  C   UNL     1       6.150   3.928  13.622  0.00  0.00    +0.000 C 
ATOM     12  C   UNL     1       6.177   4.181  15.098  0.00  0.00    +0.000 A 
ATOM     13  C   UNL     1       5.057   3.942  15.889  0.00  0.00    +0.000 A 
ATOM     14  C   UNL     1       5.136   4.181  17.261  0.00  0.00    +0.000 A 
ATOM     15  C   UNL     1       6.349   4.630  17.791  0.00  0.00    +0.000 A 
ATOM     16  C   UNL     1       7.408   4.854  16.932  0.00  0.00    +0.000 A 
ATOM     17  N   UNL     1       7.345   4.645  15.604  0.00  0.00    +0.000 NA
ENDBRANCH   1  14
BRANCH   6  18
ATOM     18  N   UNL     1       0.829   7.053  21.484  0.00  0.00    +0.000 N 
ATOM     19  C   UNL     1       0.509   8.388  21.388  0.00  0.00    +0.000 C 
ATOM     20  O   UNL     1      -0.235   8.902  22.218  0.00  0.00    +0.000 OA
ATOM     21  N   UNL     1       1.078   9.074  20.363  0.00  0.00    +0.000 N 
ATOM     22  H   UNL     1       0.421   6.596  22.282  0.00  0.00    +0.000 HD
ATOM     23  H   UNL     1       1.570   8.506  19.678  0.00  0.00    +0.000 HD
BRANCH  21  24
ATOM     24  C   UNL     1       0.852  10.458  19.987  0.00  0.00    +0.000 C 
ATOM     25  C   UNL     1      -0.636  10.821  20.094  0.00  0.00    +0.000 C 
ATOM     26  C   UNL     1      -1.470  10.170  18.987  0.00  0.00    +0.000 C 
ATOM     27  C   UNL     1      -0.870  10.395  17.602  0.00  0.00    +0.000 C 
ATOM     28  N   UNL     1       0.529   9.960  17.542  0.00  0.00    +0.000 NA
ATOM     29  C   UNL     1       1.339  10.688  18.537  0.00  0.00    +0.000 C 
ATOM     30  H   UNL     1       0.898  10.149  16.610  0.00  0.00    +0.000 HD
ENDBRANCH  21  24
ENDBRANCH   6  18
TORSDOF 3
ENDMDL
MODEL 9
REMARK VINA RESULT:      -8.0      2.483      4.365
REMARK  Name = 
REMARK  4 active torsions:
REMARK  status: ('A' for Active; 'I' for Inactive)
REMARK    1  A    between atoms: C_1  and  C_2
REMARK    2  A    between atoms: C_4  and  C_5
REMARK    3  A    between atoms: C_10  and  N_11
REMARK    4  A    between atoms: N_14  and  C_15
REMARK                            x       y       z     vdW  Elec       q    Type
REMARK                         _______ _______ _______ _____ _____    ______ ____
ROOT
ATOM      1  C   UNL     1       1.158   9.248  20.067  0.00  0.00    +0.000 A 
ATOM      2  N   UNL     1       1.222   9.120  21.404  0.00  0.00    +0.000 NA
ATOM      3  N   UNL     1       1.691   7.873  21.604  0.00  0.00    +0.000 N 
ATOM      4  C   UNL     1       1.963   7.181  20.455  0.00  0.00    +0.000 A 
ATOM      5  C   UNL     1       2.451   5.890  20.207  0.00  0.00    +0.000 A 
ATOM      6  C   UNL     1       2.601   5.567  18.859  0.00  0.00    +0.000 A 
ATOM      7  N   UNL     1       2.325   6.435  17.866  0.00  0.00    +0.000 NA
ATOM      8  C   UNL     1       1.865   7.672  18.122  0.00  0.00    +0.000 A 
ATOM      9  C   UNL     1       1.651   8.071  19.434  0.00  0.00    +0.000 A 
ATOM     10  H   UNL     1       1.807   7.554  22.560  0.00  0.00    +0.000 HD
ENDROOT
BRANCH   1  14
ATOM     11  C   UNL     1      -2.475  11.773  17.738  0.00  0.00    +0.000 C 
ATOM     12  C   UNL     1      -1.098  11.679  18.320  0.00  0.00    +0.000 A 
ATOM     13  C   UNL     1      -0.642  10.499  18.900  0.00  0.00    +0.000 A 
ATOM     14  C   UNL     1       0.653  10.457  19.416  0.00  0.00    +0.000 A 
ATOM     15  C   UNL     1       1.451  11.600  19.308  0.00  0.00    +0.000 A 
ATOM     16  C   UNL     1       0.914  12.734  18.729  0.00  0.00    +0.000 A 
ATOM     17  N   UNL     1      -0.339  12.798  18.240  0.00  0.00    +0.000 NA
ENDBRANCH   1  14
BRANCH   6  18
ATOM     18  N   UNL     1       3.063   4.295  18.495  0.00  0.00    +0.000 N 
ATOM     19  C   UNL     1       4.250   3.989  17.871  0.00  0.00    +0.000 C 
ATOM     20  O   UNL     1       4.540   2.817  17.643  0.00  0.00    +0.000 OA
ATOM     21  N   UNL     1       5.035   5.039  17.514  0.00  0.00    +0.000 N 
ATOM     22  H   UNL     1       2.495   3.491  18.700  0.00  0.00    +0.000 HD
ATOM     23  H   UNL     1       4.740   5.945  17.871  0.00  0.00    +0.000 HD
BRANCH  21  24
ATOM     24  C   UNL     1       6.360   4.996  16.921  0.00  0.00    +0.000 C 
ATOM     25  C   UNL     1       7.433   4.744  17.988  0.00  0.00    +0.000 C 
ATOM     26  C   UNL     1       7.651   5.965  18.887  0.00  0.00    +0.000 C 
ATOM     27  C   UNL     1       7.857   7.245  18.084  0.00  0.00    +0.000 C 
ATOM     28  N   UNL     1       6.763   7.471  17.135  0.00  0.00    +0.000 NA
ATOM     29  C   UNL     1       6.648   6.335  16.201  0.00  0.00    +0.000 C 
ATOM     30  H   UNL     1       6.951   8.321  16.604  0.00  0.00    +0.000 HD
ENDBRANCH  21  24
ENDBRANCH   6  18
TORSDOF 3
ENDMDL
