MODEL 1
REMARK VINA RESULT:      -8.6      0.000      0.000
REMARK  Name = 
REMARK  6 active torsions:
REMARK  status: ('A' for Active; 'I' for Inactive)
REMARK    1  A    between atoms: C_1  and  O_2
REMARK    2  A    between atoms: O_2  and  C_3
REMARK    3  A    between atoms: C_3  and  C_4
REMARK    4  A    between atoms: C_9  and  C_11
REMARK    5  A    between atoms: C_16  and  C_17
REMARK    6  A    between atoms: C_17  and  C_18
REMARK                            x       y       z     vdW  Elec       q    Type
REMARK                         _______ _______ _______ _____ _____    ______ ____
ROOT
ATOM      1  C   UNL     1       4.568   5.856  17.851  0.00  0.00    +0.000 A 
ATOM      2  C   UNL     1       5.808   6.404  18.232  0.00  0.00    +0.000 A 
ATOM      3  C   UNL     1       6.942   6.299  17.403  0.00  0.00    +0.000 A 
ATOM      4  C   UNL     1       6.784   5.671  16.162  0.00  0.00    +0.000 A 
ATOM      5  N   UNL     1       7.642   5.527  15.100  0.00  0.00    +0.000 NA
ATOM      6  C   UNL     1       6.913   4.897  14.195  0.00  0.00    +0.000 A 
ATOM      7  O   UNL     1       5.645   4.570  14.603  0.00  0.00    +0.000 OA
ATOM      8  C   UNL     1       5.568   5.080  15.864  0.00  0.00    +0.000 A 
ATOM      9  C   UNL     1       4.460   5.069  16.696  0.00  0.00    +0.000 A 
ENDROOT
BRANCH   1  15
ATOM     10  C   UNL     1       2.515   2.811  19.757  0.00  0.00    +0.000 C 
ATOM     11  C   UNL     1       1.346   3.092  20.706  0.00  0.00    +0.000 C 
ATOM     12  C   UNL     1       0.787   4.506  20.524  0.00  0.00    +0.000 C 
ATOM     13  C   UNL     1       1.888   5.569  20.590  0.00  0.00    +0.000 C 
ATOM     14  N   UNL     1       3.018   5.241  19.719  0.00  0.00    +0.000 N 
ATOM     15  C   UNL     1       3.372   6.132  18.695  0.00  0.00    +0.000 C 
ATOM     16  O   UNL     1       2.712   7.133  18.424  0.00  0.00    +0.000 OA
ATOM     17  C   UNL     1       3.577   3.899  19.928  0.00  0.00    +0.000 C 
BRANCH  10  18
ATOM     18  C   UNL     1       2.073   2.696  18.290  0.00  0.00    +0.000 C 
BRANCH  18  20
ATOM     19  C   UNL     1       3.780   1.074  18.455  0.00  0.00    +0.000 C 
ATOM     20  O   UNL     1       3.017   1.891  17.578  0.00  0.00    +0.000 OA
ENDBRANCH  18  20
ENDBRANCH  10  18
ENDBRANCH   1  15
BRANCH   6  21
ATOM     21  C   UNL     1       7.253   4.561  12.787  0.00  0.00    +0.000 C 
BRANCH  21  22
ATOM     22  C   UNL     1       6.271   3.611  12.147  0.00  0.00    +0.000 A 
ATOM     23  C   UNL     1       5.005   4.066  11.747  0.00  0.00    +0.000 A 
ATOM     24  C   UNL     1       4.090   3.188  11.163  0.00  0.00    +0.000 A 
ATOM     25  C   UNL     1       4.434   1.852  10.962  0.00  0.00    +0.000 A 
ATOM     26  C   UNL     1       5.695   1.398  11.341  0.00  0.00    +0.000 A 
ATOM     27 CL   UNL     1       6.121  -0.251  11.089  0.00  0.00    +0.000 Cl
ATOM     28  C   UNL     1       6.614   2.269  11.926  0.00  0.00    +0.000 A 
ENDBRANCH  21  22
ENDBRANCH   6  21
TORSDOF 5
ENDMDL
MODEL 2
REMARK VINA RESULT:      -8.6      5.455      8.486
REMARK  Name = 
REMARK  6 active torsions:
REMARK  status: ('A' for Active; 'I' for Inactive)
REMARK    1  A    between atoms: C_1  and  O_2
REMARK    2  A    between atoms: O_2  and  C_3
REMARK    3  A    between atoms: C_3  and  C_4
REMARK    4  A    between atoms: C_9  and  C_11
REMARK    5  A    between atoms: C_16  and  C_17
REMARK    6  A    between atoms: C_17  and  C_18
REMARK                            x       y       z     vdW  Elec       q    Type
REMARK                         _______ _______ _______ _____ _____    ______ ____
ROOT
ATOM      1  C   UNL     1       2.817   7.281  18.656  0.00  0.00    +0.000 A 
ATOM      2  C   UNL     1       2.309   7.033  19.945  0.00  0.00    +0.000 A 
ATOM      3  C   UNL     1       1.425   7.933  20.571  0.00  0.00    +0.000 A 
ATOM      4  C   UNL     1       1.030   9.064  19.849  0.00  0.00    +0.000 A 
ATOM      5  N   UNL     1       0.104  10.040  20.122  0.00  0.00    +0.000 NA
ATOM      6  C   UNL     1       0.133  10.806  19.045  0.00  0.00    +0.000 A 
ATOM      7  O   UNL     1       1.050  10.433  18.097  0.00  0.00    +0.000 OA
ATOM      8  C   UNL     1       1.614   9.307  18.617  0.00  0.00    +0.000 A 
ATOM      9  C   UNL     1       2.567   8.502  18.013  0.00  0.00    +0.000 A 
ENDROOT
BRANCH   1  15
ATOM     10  C   UNL     1       1.601   3.326  18.625  0.00  0.00    +0.000 C 
ATOM     11  C   UNL     1       2.369   2.248  17.855  0.00  0.00    +0.000 C 
ATOM     12  C   UNL     1       3.786   2.701  17.495  0.00  0.00    +0.000 C 
ATOM     13  C   UNL     1       3.790   4.064  16.794  0.00  0.00    +0.000 C 
ATOM     14  N   UNL     1       2.998   5.055  17.523  0.00  0.00    +0.000 N 
ATOM     15  C   UNL     1       3.623   6.223  17.985  0.00  0.00    +0.000 C 
ATOM     16  O   UNL     1       4.835   6.409  17.899  0.00  0.00    +0.000 OA
ATOM     17  C   UNL     1       1.625   4.631  17.827  0.00  0.00    +0.000 C 
BRANCH  10  18
ATOM     18  C   UNL     1       2.142   3.538  20.048  0.00  0.00    +0.000 C 
BRANCH  18  20
ATOM     19  C   UNL     1       1.384   2.475  22.014  0.00  0.00    +0.000 C 
ATOM     20  O   UNL     1       1.069   3.402  20.983  0.00  0.00    +0.000 OA
ENDBRANCH  18  20
ENDBRANCH  10  18
ENDBRANCH   1  15
BRANCH   6  21
ATOM     21  C   UNL     1      -0.734  11.963  18.696  0.00  0.00    +0.000 C 
BRANCH  21  22
ATOM     22  C   UNL     1      -2.029  11.560  18.036  0.00  0.00    +0.000 A 
ATOM     23  C   UNL     1      -3.246  11.704  18.719  0.00  0.00    +0.000 A 
ATOM     24  C   UNL     1      -4.446  11.323  18.116  0.00  0.00    +0.000 A 
ATOM     25  C   UNL     1      -4.444  10.806  16.822  0.00  0.00    +0.000 A 
ATOM     26  C   UNL     1      -3.242  10.675  16.131  0.00  0.00    +0.000 A 
ATOM     27 CL   UNL     1      -3.240  10.040  14.531  0.00  0.00    +0.000 Cl
ATOM     28  C   UNL     1      -2.039  11.053  16.728  0.00  0.00    +0.000 A 
ENDBRANCH  21  22
ENDBRANCH   6  21
TORSDOF 5
ENDMDL
MODEL 3
REMARK VINA RESULT:      -8.5      5.739      8.605
REMARK  Name = 
REMARK  6 active torsions:
REMARK  status: ('A' for Active; 'I' for Inactive)
REMARK    1  A    between atoms: C_1  and  O_2
REMARK    2  A    between atoms: O_2  and  C_3
REMARK    3  A    between atoms: C_3  and  C_4
REMARK    4  A    between atoms: C_9  and  C_11
REMARK    5  A    between atoms: C_16  and  C_17
REMARK    6  A    between atoms: C_17  and  C_18
REMARK                            x       y       z     vdW  Elec       q    Type
REMARK                         _______ _______ _______ _____ _____    ______ ____
ROOT
ATOM      1  C   UNL     1       2.839   7.069  18.753  0.00  0.00    +0.000 A 
ATOM      2  C   UNL     1       2.376   6.801  20.055  0.00  0.00    +0.000 A 
ATOM      3  C   UNL     1       1.467   7.662  20.703  0.00  0.00    +0.000 A 
ATOM      4  C   UNL     1       1.003   8.772  19.989  0.00  0.00    +0.000 A 
ATOM      5  N   UNL     1       0.041   9.705  20.285  0.00  0.00    +0.000 NA
ATOM      6  C   UNL     1       0.008  10.469  19.206  0.00  0.00    +0.000 A 
ATOM      7  O   UNL     1       0.917  10.136  18.236  0.00  0.00    +0.000 OA
ATOM      8  C   UNL     1       1.545   9.038  18.742  0.00  0.00    +0.000 A 
ATOM      9  C   UNL     1       2.517   8.275  18.116  0.00  0.00    +0.000 A 
ENDROOT
BRANCH   1  15
ATOM     10  C   UNL     1       1.636   3.119  18.472  0.00  0.00    +0.000 C 
ATOM     11  C   UNL     1       2.439   2.082  17.681  0.00  0.00    +0.000 C 
ATOM     12  C   UNL     1       3.868   2.554  17.404  0.00  0.00    +0.000 C 
ATOM     13  C   UNL     1       3.898   3.951  16.773  0.00  0.00    +0.000 C 
ATOM     14  N   UNL     1       3.073   4.903  17.518  0.00  0.00    +0.000 N 
ATOM     15  C   UNL     1       3.675   6.047  18.064  0.00  0.00    +0.000 C 
ATOM     16  O   UNL     1       4.889   6.238  18.038  0.00  0.00    +0.000 OA
ATOM     17  C   UNL     1       1.690   4.463  17.743  0.00  0.00    +0.000 C 
BRANCH  10  18
ATOM     18  C   UNL     1       2.118   3.259  19.925  0.00  0.00    +0.000 C 
BRANCH  18  20
ATOM     19  C   UNL     1       1.467   2.557  22.083  0.00  0.00    +0.000 C 
ATOM     20  O   UNL     1       1.022   3.004  20.809  0.00  0.00    +0.000 OA
ENDBRANCH  18  20
ENDBRANCH  10  18
ENDBRANCH   1  15
BRANCH   6  21
ATOM     21  C   UNL     1      -0.919  11.585  18.877  0.00  0.00    +0.000 C 
BRANCH  21  22
ATOM     22  C   UNL     1      -2.021  11.184  17.928  0.00  0.00    +0.000 A 
ATOM     23  C   UNL     1      -1.824  10.135  17.018  0.00  0.00    +0.000 A 
ATOM     24  C   UNL     1      -2.838   9.766  16.132  0.00  0.00    +0.000 A 
ATOM     25  C   UNL     1      -4.061  10.433  16.154  0.00  0.00    +0.000 A 
ATOM     26  C   UNL     1      -4.271  11.465  17.066  0.00  0.00    +0.000 A 
ATOM     27 CL   UNL     1      -5.783  12.286  17.096  0.00  0.00    +0.000 Cl
ATOM     28  C   UNL     1      -3.261  11.839  17.954  0.00  0.00    +0.000 A 
ENDBRANCH  21  22
ENDBRANCH   6  21
TORSDOF 5
ENDMDL
MODEL 4
REMARK VINA RESULT:      -8.4      5.656      9.169
REMARK  Name = 
REMARK  6 active torsions:
REMARK  status: ('A' for Active; 'I' for Inactive)
REMARK    1  A    between atoms: C_1  and  O_2
REMARK    2  A    between atoms: O_2  and  C_3
REMARK    3  A    between atoms: C_3  and  C_4
REMARK    4  A    between atoms: C_9  and  C_11
REMARK    5  A    between atoms: C_16  and  C_17
REMARK    6  A    between atoms: C_17  and  C_18
REMARK                            x       y       z     vdW  Elec       q    Type
REMARK                         _______ _______ _______ _____ _____    ______ ____
ROOT
ATOM      1  C   UNL     1       2.712   6.350  18.814  0.00  0.00    +0.000 A 
ATOM      2  C   UNL     1       2.363   6.211  20.171  0.00  0.00    +0.000 A 
ATOM      3  C   UNL     1       1.695   7.238  20.866  0.00  0.00    +0.000 A 
ATOM      4  C   UNL     1       1.345   8.387  20.148  0.00  0.00    +0.000 A 
ATOM      5  N   UNL     1       0.596   9.483  20.495  0.00  0.00    +0.000 NA
ATOM      6  C   UNL     1       0.568  10.204  19.388  0.00  0.00    +0.000 A 
ATOM      7  O   UNL     1       1.290   9.685  18.344  0.00  0.00    +0.000 OA
ATOM      8  C   UNL     1       1.777   8.512  18.838  0.00  0.00    +0.000 A 
ATOM      9  C   UNL     1       2.528   7.571  18.151  0.00  0.00    +0.000 A 
ENDROOT
BRANCH   1  15
ATOM     10  C   UNL     1       6.777   5.978  18.132  0.00  0.00    +0.000 C 
ATOM     11  C   UNL     1       7.378   4.728  17.481  0.00  0.00    +0.000 C 
ATOM     12  C   UNL     1       6.318   3.890  16.761  0.00  0.00    +0.000 C 
ATOM     13  C   UNL     1       5.120   3.584  17.666  0.00  0.00    +0.000 C 
ATOM     14  N   UNL     1       4.607   4.788  18.320  0.00  0.00    +0.000 N 
ATOM     15  C   UNL     1       3.278   5.175  18.094  0.00  0.00    +0.000 C 
ATOM     16  O   UNL     1       2.546   4.606  17.286  0.00  0.00    +0.000 OA
ATOM     17  C   UNL     1       5.621   5.565  19.045  0.00  0.00    +0.000 C 
BRANCH  10  18
ATOM     18  C   UNL     1       6.320   7.022  17.100  0.00  0.00    +0.000 C 
BRANCH  18  20
ATOM     19  C   UNL     1       8.059   8.329  18.016  0.00  0.00    +0.000 C 
ATOM     20  O   UNL     1       7.404   7.914  16.825  0.00  0.00    +0.000 OA
ENDBRANCH  18  20
ENDBRANCH  10  18
ENDBRANCH   1  15
BRANCH   6  21
ATOM     21  C   UNL     1      -0.188  11.452  19.101  0.00  0.00    +0.000 C 
BRANCH  21  22
ATOM     22  C   UNL     1      -1.599  11.199  18.630  0.00  0.00    +0.000 A 
ATOM     23  C   UNL     1      -1.867  10.163  17.724  0.00  0.00    +0.000 A 
ATOM     24  C   UNL     1      -3.170   9.931  17.278  0.00  0.00    +0.000 A 
ATOM     25  C   UNL     1      -4.218  10.724  17.742  0.00  0.00    +0.000 A 
ATOM     26  C   UNL     1      -3.962  11.744  18.655  0.00  0.00    +0.000 A 
ATOM     27 CL   UNL     1      -5.257  12.720  19.231  0.00  0.00    +0.000 Cl
ATOM     28  C   UNL     1      -2.662  11.982  19.104  0.00  0.00    +0.000 A 
ENDBRANCH  21  22
ENDBRANCH   6  21
TORSDOF 5
ENDMDL
MODEL 5
REMARK VINA RESULT:      -8.4      6.096      9.964
REMARK  Name = 
REMARK  6 active torsions:
REMARK  status: ('A' for Active; 'I' for Inactive)
REMARK    1  A    between atoms: C_1  and  O_2
REMARK    2  A    between atoms: O_2  and  C_3
REMARK    3  A    between atoms: C_3  and  C_4
REMARK    4  A    between atoms: C_9  and  C_11
REMARK    5  A    between atoms: C_16  and  C_17
REMARK    6  A    between atoms: C_17  and  C_18
REMARK                            x       y       z     vdW  Elec       q    Type
REMARK                         _______ _______ _______ _____ _____    ______ ____
ROOT
ATOM      1  C   UNL     1       2.657   7.181  18.544  0.00  0.00    +0.000 A 
ATOM      2  C   UNL     1       2.359   8.130  17.549  0.00  0.00    +0.000 A 
ATOM      3  C   UNL     1       1.632   9.300  17.845  0.00  0.00    +0.000 A 
ATOM      4  C   UNL     1       1.254   9.511  19.175  0.00  0.00    +0.000 A 
ATOM      5  N   UNL     1       0.664  10.585  19.793  0.00  0.00    +0.000 NA
ATOM      6  C   UNL     1       0.610  10.221  21.064  0.00  0.00    +0.000 A 
ATOM      7  O   UNL     1       1.079   8.959  21.321  0.00  0.00    +0.000 OA
ATOM      8  C   UNL     1       1.500   8.514  20.105  0.00  0.00    +0.000 A 
ATOM      9  C   UNL     1       2.118   7.304  19.832  0.00  0.00    +0.000 A 
ENDROOT
BRANCH   1  15
ATOM     10  C   UNL     1       1.262   3.288  18.368  0.00  0.00    +0.000 C 
ATOM     11  C   UNL     1       2.157   2.127  17.925  0.00  0.00    +0.000 C 
ATOM     12  C   UNL     1       3.642   2.492  17.982  0.00  0.00    +0.000 C 
ATOM     13  C   UNL     1       3.938   3.800  17.241  0.00  0.00    +0.000 C 
ATOM     14  N   UNL     1       3.028   4.874  17.642  0.00  0.00    +0.000 N 
ATOM     15  C   UNL     1       3.558   6.044  18.205  0.00  0.00    +0.000 C 
ATOM     16  O   UNL     1       4.750   6.172  18.477  0.00  0.00    +0.000 OA
ATOM     17  C   UNL     1       1.603   4.531  17.544  0.00  0.00    +0.000 C 
BRANCH  10  18
ATOM     18  C   UNL     1       1.370   3.577  19.874  0.00  0.00    +0.000 C 
BRANCH  18  20
ATOM     19  C   UNL     1       1.738   2.558  21.971  0.00  0.00    +0.000 C 
ATOM     20  O   UNL     1       1.589   2.349  20.573  0.00  0.00    +0.000 OA
ENDBRANCH  18  20
ENDBRANCH  10  18
ENDBRANCH   1  15
BRANCH   6  21
ATOM     21  C   UNL     1       0.180  11.013  22.247  0.00  0.00    +0.000 C 
BRANCH  21  22
ATOM     22  C   UNL     1      -1.189  11.627  22.087  0.00  0.00    +0.000 A 
ATOM     23  C   UNL     1      -1.621  12.075  20.830  0.00  0.00    +0.000 A 
ATOM     24  C   UNL     1      -2.884  12.653  20.680  0.00  0.00    +0.000 A 
ATOM     25  C   UNL     1      -3.730  12.777  21.780  0.00  0.00    +0.000 A 
ATOM     26  C   UNL     1      -3.315  12.318  23.028  0.00  0.00    +0.000 A 
ATOM     27 CL   UNL     1      -4.362  12.467  24.386  0.00  0.00    +0.000 Cl
ATOM     28  C   UNL     1      -2.054  11.741  23.186  0.00  0.00    +0.000 A 
ENDBRANCH  21  22
ENDBRANCH   6  21
TORSDOF 5
ENDMDL
MODEL 6
REMARK VINA RESULT:      -8.4      4.457      6.610
REMARK  Name = 
REMARK  6 active torsions:
REMARK  status: ('A' for Active; 'I' for Inactive)
REMARK    1  A    between atoms: C_1  and  O_2
REMARK    2  A    between atoms: O_2  and  C_3
REMARK    3  A    between atoms: C_3  and  C_4
REMARK    4  A    between atoms: C_9  and  C_11
REMARK    5  A    between atoms: C_16  and  C_17
REMARK    6  A    between atoms: C_17  and  C_18
REMARK                            x       y       z     vdW  Elec       q    Type
REMARK                         _______ _______ _______ _____ _____    ______ ____
ROOT
ATOM      1  C   UNL     1       1.707   8.940  18.946  0.00  0.00    +0.000 A 
ATOM      2  C   UNL     1       1.479   8.448  20.244  0.00  0.00    +0.000 A 
ATOM      3  C   UNL     1       1.792   7.118  20.590  0.00  0.00    +0.000 A 
ATOM      4  C   UNL     1       2.382   6.313  19.609  0.00  0.00    +0.000 A 
ATOM      5  N   UNL     1       2.908   5.047  19.668  0.00  0.00    +0.000 NA
ATOM      6  C   UNL     1       3.369   4.845  18.445  0.00  0.00    +0.000 A 
ATOM      7  O   UNL     1       3.140   5.873  17.567  0.00  0.00    +0.000 OA
ATOM      8  C   UNL     1       2.515   6.816  18.325  0.00  0.00    +0.000 A 
ATOM      9  C   UNL     1       2.123   8.081  17.919  0.00  0.00    +0.000 A 
ENDROOT
BRANCH   1  15
ATOM     10  C   UNL     1      -2.076  10.533  18.420  0.00  0.00    +0.000 C 
ATOM     11  C   UNL     1      -2.305  12.037  18.248  0.00  0.00    +0.000 C 
ATOM     12  C   UNL     1      -1.017  12.774  17.873  0.00  0.00    +0.000 C 
ATOM     13  C   UNL     1       0.131  12.443  18.833  0.00  0.00    +0.000 C 
ATOM     14  N   UNL     1       0.285  11.000  19.024  0.00  0.00    +0.000 N 
ATOM     15  C   UNL     1       1.502  10.392  18.682  0.00  0.00    +0.000 C 
ATOM     16  O   UNL     1       2.417  10.997  18.128  0.00  0.00    +0.000 OA
ATOM     17  C   UNL     1      -0.945  10.306  19.425  0.00  0.00    +0.000 C 
BRANCH  10  18
ATOM     18  C   UNL     1      -1.784   9.821  17.090  0.00  0.00    +0.000 C 
BRANCH  18  20
ATOM     19  C   UNL     1      -2.933  10.264  15.076  0.00  0.00    +0.000 C 
ATOM     20  O   UNL     1      -3.006   9.666  16.363  0.00  0.00    +0.000 OA
ENDBRANCH  18  20
ENDBRANCH  10  18
ENDBRANCH   1  15
BRANCH   6  21
ATOM     21  C   UNL     1       4.154   3.698  17.918  0.00  0.00    +0.000 C 
BRANCH  21  22
ATOM     22  C   UNL     1       5.199   4.105  16.909  0.00  0.00    +0.000 A 
ATOM     23  C   UNL     1       6.310   4.864  17.307  0.00  0.00    +0.000 A 
ATOM     24  C   UNL     1       7.274   5.251  16.374  0.00  0.00    +0.000 A 
ATOM     25  C   UNL     1       7.145   4.873  15.039  0.00  0.00    +0.000 A 
ATOM     26  C   UNL     1       6.054   4.105  14.639  0.00  0.00    +0.000 A 
ATOM     27 CL   UNL     1       5.897   3.635  12.991  0.00  0.00    +0.000 Cl
ATOM     28  C   UNL     1       5.086   3.716  15.566  0.00  0.00    +0.000 A 
ENDBRANCH  21  22
ENDBRANCH   6  21
TORSDOF 5
ENDMDL
MODEL 7
REMARK VINA RESULT:      -8.3      5.370      9.090
REMARK  Name = 
REMARK  6 active torsions:
REMARK  status: ('A' for Active; 'I' for Inactive)
REMARK    1  A    between atoms: C_1  and  O_2
REMARK    2  A    between atoms: O_2  and  C_3
REMARK    3  A    between atoms: C_3  and  C_4
REMARK    4  A    between atoms: C_9  and  C_11
REMARK    5  A    between atoms: C_16  and  C_17
REMARK    6  A    between atoms: C_17  and  C_18
REMARK                            x       y       z     vdW  Elec       q    Type
REMARK                         _______ _______ _______ _____ _____    ______ ____
ROOT
ATOM      1  C   UNL     1       2.376   6.486  19.053  0.00  0.00    +0.000 A 
ATOM      2  C   UNL     1       1.937   6.339  20.382  0.00  0.00    +0.000 A 
ATOM      3  C   UNL     1       1.346   7.409  21.082  0.00  0.00    +0.000 A 
ATOM      4  C   UNL     1       1.167   8.615  20.395  0.00  0.00    +0.000 A 
ATOM      5  N   UNL     1       0.523   9.775  20.748  0.00  0.00    +0.000 NA
ATOM      6  C   UNL     1       0.639  10.534  19.671  0.00  0.00    +0.000 A 
ATOM      7  O   UNL     1       1.359   9.974  18.647  0.00  0.00    +0.000 OA
ATOM      8  C   UNL     1       1.684   8.737  19.116  0.00  0.00    +0.000 A 
ATOM      9  C   UNL     1       2.365   7.743  18.432  0.00  0.00    +0.000 A 
ENDROOT
BRANCH   1  15
ATOM     10  C   UNL     1       6.390   5.877  18.249  0.00  0.00    +0.000 C 
ATOM     11  C   UNL     1       6.896   4.595  17.580  0.00  0.00    +0.000 C 
ATOM     12  C   UNL     1       5.768   3.823  16.892  0.00  0.00    +0.000 C 
ATOM     13  C   UNL     1       4.581   3.586  17.832  0.00  0.00    +0.000 C 
ATOM     14  N   UNL     1       4.160   4.817  18.501  0.00  0.00    +0.000 N 
ATOM     15  C   UNL     1       2.849   5.281  18.315  0.00  0.00    +0.000 C 
ATOM     16  O   UNL     1       2.062   4.759  17.529  0.00  0.00    +0.000 OA
ATOM     17  C   UNL     1       5.239   5.531  19.196  0.00  0.00    +0.000 C 
BRANCH  10  18
ATOM     18  C   UNL     1       5.965   6.948  17.232  0.00  0.00    +0.000 C 
BRANCH  18  20
ATOM     19  C   UNL     1       7.838   8.282  17.768  0.00  0.00    +0.000 C 
ATOM     20  O   UNL     1       7.131   7.609  16.733  0.00  0.00    +0.000 OA
ENDBRANCH  18  20
ENDBRANCH  10  18
ENDBRANCH   1  15
BRANCH   6  21
ATOM     21  C   UNL     1       0.042  11.868  19.397  0.00  0.00    +0.000 C 
BRANCH  21  22
ATOM     22  C   UNL     1      -1.403  11.798  18.970  0.00  0.00    +0.000 A 
ATOM     23  C   UNL     1      -2.413  12.299  19.806  0.00  0.00    +0.000 A 
ATOM     24  C   UNL     1      -3.752  12.228  19.419  0.00  0.00    +0.000 A 
ATOM     25  C   UNL     1      -4.095  11.667  18.190  0.00  0.00    +0.000 A 
ATOM     26  C   UNL     1      -3.097  11.182  17.348  0.00  0.00    +0.000 A 
ATOM     27 CL   UNL     1      -3.521  10.493  15.829  0.00  0.00    +0.000 Cl
ATOM     28  C   UNL     1      -1.757  11.249  17.729  0.00  0.00    +0.000 A 
ENDBRANCH  21  22
ENDBRANCH   6  21
TORSDOF 5
ENDMDL
MODEL 8
REMARK VINA RESULT:      -8.2      1.308      1.745
REMARK  Name = 
REMARK  6 active torsions:
REMARK  status: ('A' for Active; 'I' for Inactive)
REMARK    1  A    between atoms: C_1  and  O_2
REMARK    2  A    between atoms: O_2  and  C_3
REMARK    3  A    between atoms: C_3  and  C_4
REMARK    4  A    between atoms: C_9  and  C_11
REMARK    5  A    between atoms: C_16  and  C_17
REMARK    6  A    between atoms: C_17  and  C_18
REMARK                            x       y       z     vdW  Elec       q    Type
REMARK                         _______ _______ _______ _____ _____    ______ ____
ROOT
ATOM      1  C   UNL     1       4.943   5.108  18.341  0.00  0.00    +0.000 A 
ATOM      2  C   UNL     1       6.268   5.268  18.789  0.00  0.00    +0.000 A 
ATOM      3  C   UNL     1       7.358   5.184  17.900  0.00  0.00    +0.000 A 
ATOM      4  C   UNL     1       7.077   4.983  16.544  0.00  0.00    +0.000 A 
ATOM      5  N   UNL     1       7.889   4.984  15.438  0.00  0.00    +0.000 NA
ATOM      6  C   UNL     1       7.048   4.796  14.435  0.00  0.00    +0.000 A 
ATOM      7  O   UNL     1       5.739   4.622  14.806  0.00  0.00    +0.000 OA
ATOM      8  C   UNL     1       5.765   4.754  16.161  0.00  0.00    +0.000 A 
ATOM      9  C   UNL     1       4.678   4.723  17.019  0.00  0.00    +0.000 A 
ENDROOT
BRANCH   1  15
ATOM     10  C   UNL     1       2.473   2.053  19.640  0.00  0.00    +0.000 C 
ATOM     11  C   UNL     1       1.388   2.282  20.696  0.00  0.00    +0.000 C 
ATOM     12  C   UNL     1       1.059   3.767  20.867  0.00  0.00    +0.000 C 
ATOM     13  C   UNL     1       2.318   4.608  21.102  0.00  0.00    +0.000 C 
ATOM     14  N   UNL     1       3.359   4.322  20.114  0.00  0.00    +0.000 N 
ATOM     15  C   UNL     1       3.827   5.360  19.295  0.00  0.00    +0.000 C 
ATOM     16  O   UNL     1       3.330   6.484  19.294  0.00  0.00    +0.000 OA
ATOM     17  C   UNL     1       3.700   2.899  19.985  0.00  0.00    +0.000 C 
BRANCH  10  18
ATOM     18  C   UNL     1       1.984   2.345  18.213  0.00  0.00    +0.000 C 
BRANCH  18  20
ATOM     19  C   UNL     1       1.048   4.335  17.352  0.00  0.00    +0.000 C 
ATOM     20  O   UNL     1       0.887   3.263  18.272  0.00  0.00    +0.000 OA
ENDBRANCH  18  20
ENDBRANCH  10  18
ENDBRANCH   1  15
BRANCH   6  21
ATOM     21  C   UNL     1       7.314   4.819  12.972  0.00  0.00    +0.000 C 
BRANCH  21  22
ATOM     22  C   UNL     1       6.655   3.683  12.229  0.00  0.00    +0.000 A 
ATOM     23  C   UNL     1       7.412   2.581  11.805  0.00  0.00    +0.000 A 
ATOM     24  C   UNL     1       6.808   1.532  11.109  0.00  0.00    +0.000 A 
ATOM     25  C   UNL     1       5.441   1.569  10.839  0.00  0.00    +0.000 A 
ATOM     26  C   UNL     1       4.679   2.652  11.271  0.00  0.00    +0.000 A 
ATOM     27 CL   UNL     1       2.991   2.695  10.942  0.00  0.00    +0.000 Cl
ATOM     28  C   UNL     1       5.277   3.704  11.967  0.00  0.00    +0.000 A 
ENDBRANCH  21  22
ENDBRANCH   6  21
TORSDOF 5
ENDMDL
MODEL 9
REMARK VINA RESULT:      -8.2      4.738      8.763
REMARK  Name = 
REMARK  6 active torsions:
REMARK  status: ('A' for Active; 'I' for Inactive)
REMARK    1  A    between atoms: C_1  and  O_2
REMARK    2  A    between atoms: O_2  and  C_3
REMARK    3  A    between atoms: C_3  and  C_4
REMARK    4  A    between atoms: C_9  and  C_11
REMARK    5  A    between atoms: C_16  and  C_17
REMARK    6  A    between atoms: C_17  and  C_18
REMARK                            x       y       z     vdW  Elec       q    Type
REMARK                         _______ _______ _______ _____ _____    ______ ____
ROOT
ATOM      1  C   UNL     1       2.802   5.479  18.851  0.00  0.00    +0.000 A 
ATOM      2  C   UNL     1       2.203   4.863  19.966  0.00  0.00    +0.000 A 
ATOM      3  C   UNL     1       1.537   5.617  20.952  0.00  0.00    +0.000 A 
ATOM      4  C   UNL     1       1.449   7.001  20.763  0.00  0.00    +0.000 A 
ATOM      5  N   UNL     1       0.774   7.972  21.458  0.00  0.00    +0.000 NA
ATOM      6  C   UNL     1       1.024   9.075  20.772  0.00  0.00    +0.000 A 
ATOM      7  O   UNL     1       1.860   8.908  19.698  0.00  0.00    +0.000 OA
ATOM      8  C   UNL     1       2.119   7.571  19.693  0.00  0.00    +0.000 A 
ATOM      9  C   UNL     1       2.873   6.876  18.761  0.00  0.00    +0.000 A 
ENDROOT
BRANCH   1  15
ATOM     10  C   UNL     1       6.814   5.579  17.843  0.00  0.00    +0.000 C 
ATOM     11  C   UNL     1       7.411   4.630  16.799  0.00  0.00    +0.000 C 
ATOM     12  C   UNL     1       6.332   3.995  15.919  0.00  0.00    +0.000 C 
ATOM     13  C   UNL     1       5.219   3.353  16.753  0.00  0.00    +0.000 C 
ATOM     14  N   UNL     1       4.711   4.263  17.780  0.00  0.00    +0.000 N 
ATOM     15  C   UNL     1       3.355   4.620  17.767  0.00  0.00    +0.000 C 
ATOM     16  O   UNL     1       2.587   4.287  16.867  0.00  0.00    +0.000 OA
ATOM     17  C   UNL     1       5.747   4.836  18.650  0.00  0.00    +0.000 C 
BRANCH  10  18
ATOM     18  C   UNL     1       6.241   6.862  17.219  0.00  0.00    +0.000 C 
BRANCH  18  20
ATOM     19  C   UNL     1       7.951   8.365  17.846  0.00  0.00    +0.000 C 
ATOM     20  O   UNL     1       7.320   7.686  16.768  0.00  0.00    +0.000 OA
ENDBRANCH  18  20
ENDBRANCH  10  18
ENDBRANCH   1  15
BRANCH   6  21
ATOM     21  C   UNL     1       0.472  10.443  20.965  0.00  0.00    +0.000 C 
BRANCH  21  22
ATOM     22  C   UNL     1      -0.328  10.934  19.783  0.00  0.00    +0.000 A 
ATOM     23  C   UNL     1      -0.105  12.218  19.263  0.00  0.00    +0.000 A 
ATOM     24  C   UNL     1      -0.849  12.680  18.176  0.00  0.00    +0.000 A 
ATOM     25  C   UNL     1      -1.814  11.861  17.591  0.00  0.00    +0.000 A 
ATOM     26  C   UNL     1      -2.029  10.579  18.091  0.00  0.00    +0.000 A 
ATOM     27 CL   UNL     1      -3.217   9.567  17.367  0.00  0.00    +0.000 Cl
ATOM     28  C   UNL     1      -1.289  10.111  19.178  0.00  0.00    +0.000 A 
ENDBRANCH  21  22
ENDBRANCH   6  21
TORSDOF 5
ENDMDL
