MODEL 1
REMARK VINA RESULT:      -9.1      0.000      0.000
REMARK  Name = 
REMARK  7 active torsions:
REMARK  status: ('A' for Active; 'I' for Inactive)
REMARK    1  A    between atoms: C_1  and  O_2
REMARK    2  A    between atoms: O_2  and  C_3
REMARK    3  A    between atoms: C_5  and  C_6
REMARK    4  A    between atoms: C_11  and  O_12
REMARK    5  A    between atoms: C_13  and  C_14
REMARK    6  A    between atoms: N_20  and  C_21
REMARK    7  A    between atoms: C_21  and  C_22
REMARK                            x       y       z     vdW  Elec       q    Type
REMARK                         _______ _______ _______ _____ _____    ______ ____
ROOT
ATOM      1  C   UNL     1       6.755   5.072  15.598  0.00  0.00    +0.000 A 
ATOM      2  C   UNL     1       5.751   4.180  15.983  0.00  0.00    +0.000 A 
ATOM      3  C   UNL     1       5.210   4.156  17.277  0.00  0.00    +0.000 A 
ATOM      4  C   UNL     1       5.557   5.169  18.194  0.00  0.00    +0.000 A 
ATOM      5  C   UNL     1       6.496   6.133  17.802  0.00  0.00    +0.000 A 
ATOM      6  N   UNL     1       6.957   7.268  18.431  0.00  0.00    +0.000 NA
ATOM      7  C   UNL     1       7.839   7.758  17.584  0.00  0.00    +0.000 A 
ATOM      8  N   UNL     1       8.541   8.896  17.624  0.00  0.00    +0.000 N 
ATOM      9  O   UNL     1       8.014   7.023  16.452  0.00  0.00    +0.000 OA
ATOM     10  C   UNL     1       7.098   6.019  16.555  0.00  0.00    +0.000 A 
ATOM     11  H   UNL     1       9.522   8.828  17.380  0.00  0.00    +0.000 HD
ENDROOT
BRANCH   3  12
ATOM     12  C   UNL     1       4.150   3.172  17.649  0.00  0.00    +0.000 C 
ATOM     13  O   UNL     1       4.330   2.011  17.283  0.00  0.00    +0.000 OA
ATOM     14  N   UNL     1       3.043   3.533  18.433  0.00  0.00    +0.000 N 
ATOM     15  C   UNL     1       2.252   2.463  19.036  0.00  0.00    +0.000 C 
ATOM     16  C   UNL     1       2.131   2.688  20.543  0.00  0.00    +0.000 C 
ATOM     17  C   UNL     1       1.608   4.088  20.881  0.00  0.00    +0.000 C 
ATOM     18  C   UNL     1       2.394   5.185  20.138  0.00  0.00    +0.000 C 
ATOM     19  C   UNL     1       1.816   6.577  20.386  0.00  0.00    +0.000 C 
ATOM     20  C   UNL     1       2.475   4.874  18.633  0.00  0.00    +0.000 C 
BRANCH  17  21
ATOM     21  O   UNL     1       0.210   4.171  20.611  0.00  0.00    +0.000 OA
ATOM     22  H   UNL     1      -0.288   3.851  21.380  0.00  0.00    +0.000 HD
ENDBRANCH  17  21
ENDBRANCH   3  12
BRANCH   1  24
ATOM     23  C   UNL     1       6.761   4.270  13.371  0.00  0.00    +0.000 C 
ATOM     24  O   UNL     1       7.367   5.084  14.374  0.00  0.00    +0.000 OA
ENDBRANCH   1  24
BRANCH   8  25
ATOM     25  C   UNL     1       8.184   9.939  18.555  0.00  0.00    +0.000 C 
BRANCH  25  26
ATOM     26  C   UNL     1       9.400  10.793  18.825  0.00  0.00    +0.000 A 
ATOM     27  C   UNL     1      10.089  11.425  17.775  0.00  0.00    +0.000 A 
ATOM     28  C   UNL     1      11.212  12.218  18.035  0.00  0.00    +0.000 A 
ATOM     29 CL   UNL     1      12.049  12.970  16.736  0.00  0.00    +0.000 Cl
ATOM     30  C   UNL     1      11.659  12.400  19.343  0.00  0.00    +0.000 A 
ATOM     31  C   UNL     1      10.977  11.786  20.393  0.00  0.00    +0.000 A 
ATOM     32  C   UNL     1       9.859  10.995  20.130  0.00  0.00    +0.000 A 
ATOM     33  F   UNL     1       9.224  10.418  21.159  0.00  0.00    +0.000 F 
ENDBRANCH  25  26
ENDBRANCH   8  25
TORSDOF 5
ENDMDL
MODEL 2
REMARK VINA RESULT:      -9.0      5.011      7.062
REMARK  Name = 
REMARK  7 active torsions:
REMARK  status: ('A' for Active; 'I' for Inactive)
REMARK    1  A    between atoms: C_1  and  O_2
REMARK    2  A    between atoms: O_2  and  C_3
REMARK    3  A    between atoms: C_5  and  C_6
REMARK    4  A    between atoms: C_11  and  O_12
REMARK    5  A    between atoms: C_13  and  C_14
REMARK    6  A    between atoms: N_20  and  C_21
REMARK    7  A    between atoms: C_21  and  C_22
REMARK                            x       y       z     vdW  Elec       q    Type
REMARK                         _______ _______ _______ _____ _____    ______ ____
ROOT
ATOM      1  C   UNL     1       1.601   8.069  20.340  0.00  0.00    +0.000 A 
ATOM      2  C   UNL     1       2.096   6.877  19.805  0.00  0.00    +0.000 A 
ATOM      3  C   UNL     1       2.486   6.749  18.464  0.00  0.00    +0.000 A 
ATOM      4  C   UNL     1       2.545   7.896  17.645  0.00  0.00    +0.000 A 
ATOM      5  C   UNL     1       2.140   9.124  18.184  0.00  0.00    +0.000 A 
ATOM      6  N   UNL     1       2.169  10.401  17.670  0.00  0.00    +0.000 NA
ATOM      7  C   UNL     1       1.642  11.136  18.628  0.00  0.00    +0.000 A 
ATOM      8  N   UNL     1       1.495  12.462  18.723  0.00  0.00    +0.000 N 
ATOM      9  O   UNL     1       1.247  10.440  19.729  0.00  0.00    +0.000 OA
ATOM     10  C   UNL     1       1.633   9.158  19.477  0.00  0.00    +0.000 A 
ATOM     11  H   UNL     1       0.599  12.792  19.062  0.00  0.00    +0.000 HD
ENDROOT
BRANCH   3  12
ATOM     12  C   UNL     1       2.993   5.449  17.932  0.00  0.00    +0.000 C 
ATOM     13  O   UNL     1       2.145   4.591  17.688  0.00  0.00    +0.000 OA
ATOM     14  N   UNL     1       4.353   5.239  17.657  0.00  0.00    +0.000 N 
ATOM     15  C   UNL     1       4.716   4.093  16.828  0.00  0.00    +0.000 C 
ATOM     16  C   UNL     1       5.575   4.550  15.650  0.00  0.00    +0.000 C 
ATOM     17  C   UNL     1       6.787   5.375  16.101  0.00  0.00    +0.000 C 
ATOM     18  C   UNL     1       6.379   6.506  17.065  0.00  0.00    +0.000 C 
ATOM     19  C   UNL     1       7.588   7.269  17.602  0.00  0.00    +0.000 C 
ATOM     20  C   UNL     1       5.509   5.958  18.211  0.00  0.00    +0.000 C 
BRANCH  17  21
ATOM     21  O   UNL     1       7.776   4.525  16.678  0.00  0.00    +0.000 OA
ATOM     22  H   UNL     1       8.100   4.918  17.504  0.00  0.00    +0.000 HD
ENDBRANCH  17  21
ENDBRANCH   3  12
BRANCH   1  24
ATOM     23  C   UNL     1      -0.267   8.439  21.744  0.00  0.00    +0.000 C 
ATOM     24  O   UNL     1       1.138   8.224  21.619  0.00  0.00    +0.000 OA
ENDBRANCH   1  24
BRANCH   8  25
ATOM     25  C   UNL     1       2.201  13.339  17.821  0.00  0.00    +0.000 C 
BRANCH  25  26
ATOM     26  C   UNL     1       2.989  14.344  18.629  0.00  0.00    +0.000 A 
ATOM     27  C   UNL     1       3.162  14.183  20.015  0.00  0.00    +0.000 A 
ATOM     28  C   UNL     1       3.896  15.116  20.754  0.00  0.00    +0.000 A 
ATOM     29 CL   UNL     1       4.084  14.909  22.450  0.00  0.00    +0.000 Cl
ATOM     30  C   UNL     1       4.475  16.216  20.124  0.00  0.00    +0.000 A 
ATOM     31  C   UNL     1       4.318  16.380  18.748  0.00  0.00    +0.000 A 
ATOM     32  C   UNL     1       3.584  15.449  18.014  0.00  0.00    +0.000 A 
ATOM     33  F   UNL     1       3.451  15.632  16.694  0.00  0.00    +0.000 F 
ENDBRANCH  25  26
ENDBRANCH   8  25
TORSDOF 5
ENDMDL
MODEL 3
REMARK VINA RESULT:      -8.8      5.683      7.668
REMARK  Name = 
REMARK  7 active torsions:
REMARK  status: ('A' for Active; 'I' for Inactive)
REMARK    1  A    between atoms: C_1  and  O_2
REMARK    2  A    between atoms: O_2  and  C_3
REMARK    3  A    between atoms: C_5  and  C_6
REMARK    4  A    between atoms: C_11  and  O_12
REMARK    5  A    between atoms: C_13  and  C_14
REMARK    6  A    between atoms: N_20  and  C_21
REMARK    7  A    between atoms: C_21  and  C_22
REMARK                            x       y       z     vdW  Elec       q    Type
REMARK                         _______ _______ _______ _____ _____    ______ ____
ROOT
ATOM      1  C   UNL     1       1.597   7.897  20.354  0.00  0.00    +0.000 A 
ATOM      2  C   UNL     1       2.111   6.722  19.799  0.00  0.00    +0.000 A 
ATOM      3  C   UNL     1       2.509   6.626  18.458  0.00  0.00    +0.000 A 
ATOM      4  C   UNL     1       2.557   7.788  17.661  0.00  0.00    +0.000 A 
ATOM      5  C   UNL     1       2.132   9.001  18.222  0.00  0.00    +0.000 A 
ATOM      6  N   UNL     1       2.147  10.288  17.733  0.00  0.00    +0.000 NA
ATOM      7  C   UNL     1       1.606  10.997  18.702  0.00  0.00    +0.000 A 
ATOM      8  N   UNL     1       1.441  12.318  18.822  0.00  0.00    +0.000 N 
ATOM      9  O   UNL     1       1.214  10.275  19.787  0.00  0.00    +0.000 OA
ATOM     10  C   UNL     1       1.619   9.003  19.513  0.00  0.00    +0.000 A 
ATOM     11  H   UNL     1       0.539  12.631  19.163  0.00  0.00    +0.000 HD
ENDROOT
BRANCH   3  12
ATOM     12  C   UNL     1       3.036   5.343  17.903  0.00  0.00    +0.000 C 
ATOM     13  O   UNL     1       2.199   4.484  17.624  0.00  0.00    +0.000 OA
ATOM     14  N   UNL     1       4.402   5.150  17.647  0.00  0.00    +0.000 N 
ATOM     15  C   UNL     1       4.789   4.027  16.797  0.00  0.00    +0.000 C 
ATOM     16  C   UNL     1       5.664   4.520  15.645  0.00  0.00    +0.000 C 
ATOM     17  C   UNL     1       6.860   5.343  16.137  0.00  0.00    +0.000 C 
ATOM     18  C   UNL     1       6.427   6.447  17.120  0.00  0.00    +0.000 C 
ATOM     19  C   UNL     1       7.620   7.206  17.696  0.00  0.00    +0.000 C 
ATOM     20  C   UNL     1       5.543   5.865  18.238  0.00  0.00    +0.000 C 
BRANCH  17  21
ATOM     21  O   UNL     1       7.847   4.487  16.710  0.00  0.00    +0.000 OA
ATOM     22  H   UNL     1       7.483   3.592  16.807  0.00  0.00    +0.000 HD
ENDBRANCH  17  21
ENDBRANCH   3  12
BRANCH   1  24
ATOM     23  C   UNL     1      -0.266   8.311  21.753  0.00  0.00    +0.000 C 
ATOM     24  O   UNL     1       1.125   8.021  21.633  0.00  0.00    +0.000 OA
ENDBRANCH   1  24
BRANCH   8  25
ATOM     25  C   UNL     1       2.140  13.222  17.941  0.00  0.00    +0.000 C 
BRANCH  25  26
ATOM     26  C   UNL     1       1.987  14.632  18.461  0.00  0.00    +0.000 A 
ATOM     27  C   UNL     1       0.988  14.955  19.396  0.00  0.00    +0.000 A 
ATOM     28  C   UNL     1       0.856  16.262  19.876  0.00  0.00    +0.000 A 
ATOM     29 CL   UNL     1      -0.380  16.639  21.008  0.00  0.00    +0.000 Cl
ATOM     30  C   UNL     1       1.722  17.263  19.439  0.00  0.00    +0.000 A 
ATOM     31  C   UNL     1       2.723  16.952  18.519  0.00  0.00    +0.000 A 
ATOM     32  C   UNL     1       2.850  15.648  18.042  0.00  0.00    +0.000 A 
ATOM     33  F   UNL     1       3.821  15.379  17.159  0.00  0.00    +0.000 F 
ENDBRANCH  25  26
ENDBRANCH   8  25
TORSDOF 5
ENDMDL
MODEL 4
REMARK VINA RESULT:      -8.7      5.207      7.224
REMARK  Name = 
REMARK  7 active torsions:
REMARK  status: ('A' for Active; 'I' for Inactive)
REMARK    1  A    between atoms: C_1  and  O_2
REMARK    2  A    between atoms: O_2  and  C_3
REMARK    3  A    between atoms: C_5  and  C_6
REMARK    4  A    between atoms: C_11  and  O_12
REMARK    5  A    between atoms: C_13  and  C_14
REMARK    6  A    between atoms: N_20  and  C_21
REMARK    7  A    between atoms: C_21  and  C_22
REMARK                            x       y       z     vdW  Elec       q    Type
REMARK                         _______ _______ _______ _____ _____    ______ ____
ROOT
ATOM      1  C   UNL     1       1.599   7.983  20.348  0.00  0.00    +0.000 A 
ATOM      2  C   UNL     1       2.107   6.802  19.802  0.00  0.00    +0.000 A 
ATOM      3  C   UNL     1       2.496   6.690  18.459  0.00  0.00    +0.000 A 
ATOM      4  C   UNL     1       2.539   7.844  17.649  0.00  0.00    +0.000 A 
ATOM      5  C   UNL     1       2.120   9.062  18.199  0.00  0.00    +0.000 A 
ATOM      6  N   UNL     1       2.132  10.344  17.696  0.00  0.00    +0.000 NA
ATOM      7  C   UNL     1       1.599  11.064  18.661  0.00  0.00    +0.000 A 
ATOM      8  N   UNL     1       1.436  12.387  18.768  0.00  0.00    +0.000 N 
ATOM      9  O   UNL     1       1.214  10.355  19.757  0.00  0.00    +0.000 OA
ATOM     10  C   UNL     1       1.616   9.080  19.494  0.00  0.00    +0.000 A 
ATOM     11  H   UNL     1       0.537  12.704  19.112  0.00  0.00    +0.000 HD
ENDROOT
BRANCH   3  12
ATOM     12  C   UNL     1       3.017   5.401  17.915  0.00  0.00    +0.000 C 
ATOM     13  O   UNL     1       2.178   4.540  17.650  0.00  0.00    +0.000 OA
ATOM     14  N   UNL     1       4.382   5.203  17.652  0.00  0.00    +0.000 N 
ATOM     15  C   UNL     1       4.761   4.070  16.812  0.00  0.00    +0.000 C 
ATOM     16  C   UNL     1       5.630   4.550  15.649  0.00  0.00    +0.000 C 
ATOM     17  C   UNL     1       6.830   5.376  16.124  0.00  0.00    +0.000 C 
ATOM     18  C   UNL     1       6.405   6.491  17.098  0.00  0.00    +0.000 C 
ATOM     19  C   UNL     1       7.603   7.255  17.659  0.00  0.00    +0.000 C 
ATOM     20  C   UNL     1       5.527   5.922  18.228  0.00  0.00    +0.000 C 
BRANCH  17  21
ATOM     21  O   UNL     1       7.819   4.525  16.700  0.00  0.00    +0.000 OA
ATOM     22  H   UNL     1       8.525   5.065  17.090  0.00  0.00    +0.000 HD
ENDBRANCH  17  21
ENDBRANCH   3  12
BRANCH   1  24
ATOM     23  C   UNL     1      -0.261   8.376  21.756  0.00  0.00    +0.000 C 
ATOM     24  O   UNL     1       1.137   8.122  21.629  0.00  0.00    +0.000 OA
ENDBRANCH   1  24
BRANCH   8  25
ATOM     25  C   UNL     1       2.129  13.281  17.872  0.00  0.00    +0.000 C 
BRANCH  25  26
ATOM     26  C   UNL     1       2.535  14.521  18.631  0.00  0.00    +0.000 A 
ATOM     27  C   UNL     1       3.855  14.694  19.085  0.00  0.00    +0.000 A 
ATOM     28  C   UNL     1       4.223  15.848  19.785  0.00  0.00    +0.000 A 
ATOM     29 CL   UNL     1       5.838  16.032  20.343  0.00  0.00    +0.000 Cl
ATOM     30  C   UNL     1       3.286  16.849  20.034  0.00  0.00    +0.000 A 
ATOM     31  C   UNL     1       1.977  16.693  19.580  0.00  0.00    +0.000 A 
ATOM     32  C   UNL     1       1.613  15.540  18.884  0.00  0.00    +0.000 A 
ATOM     33  F   UNL     1       0.348  15.419  18.460  0.00  0.00    +0.000 F 
ENDBRANCH  25  26
ENDBRANCH   8  25
TORSDOF 5
ENDMDL
MODEL 5
REMARK VINA RESULT:      -8.5      5.844      9.306
REMARK  Name = 
REMARK  7 active torsions:
REMARK  status: ('A' for Active; 'I' for Inactive)
REMARK    1  A    between atoms: C_1  and  O_2
REMARK    2  A    between atoms: O_2  and  C_3
REMARK    3  A    between atoms: C_5  and  C_6
REMARK    4  A    between atoms: C_11  and  O_12
REMARK    5  A    between atoms: C_13  and  C_14
REMARK    6  A    between atoms: N_20  and  C_21
REMARK    7  A    between atoms: C_21  and  C_22
REMARK                            x       y       z     vdW  Elec       q    Type
REMARK                         _______ _______ _______ _____ _____    ______ ____
ROOT
ATOM      1  C   UNL     1       0.655   9.289  21.019  0.00  0.00    +0.000 A 
ATOM      2  C   UNL     1       0.162  10.483  20.489  0.00  0.00    +0.000 A 
ATOM      3  C   UNL     1       0.523  10.959  19.220  0.00  0.00    +0.000 A 
ATOM      4  C   UNL     1       1.283  10.139  18.361  0.00  0.00    +0.000 A 
ATOM      5  C   UNL     1       1.717   8.893  18.836  0.00  0.00    +0.000 A 
ATOM      6  N   UNL     1       2.381   7.860  18.215  0.00  0.00    +0.000 NA
ATOM      7  C   UNL     1       2.527   6.964  19.168  0.00  0.00    +0.000 A 
ATOM      8  N   UNL     1       3.024   5.723  19.124  0.00  0.00    +0.000 N 
ATOM      9  O   UNL     1       2.029   7.333  20.380  0.00  0.00    +0.000 OA
ATOM     10  C   UNL     1       1.441   8.541  20.151  0.00  0.00    +0.000 A 
ATOM     11  H   UNL     1       3.655   5.463  19.874  0.00  0.00    +0.000 HD
ENDROOT
BRANCH   3  12
ATOM     12  C   UNL     1      -0.016  12.251  18.702  0.00  0.00    +0.000 C 
ATOM     13  O   UNL     1      -1.148  12.216  18.219  0.00  0.00    +0.000 OA
ATOM     14  N   UNL     1       0.697  13.455  18.821  0.00  0.00    +0.000 N 
ATOM     15  C   UNL     1      -0.030  14.705  18.612  0.00  0.00    +0.000 C 
ATOM     16  C   UNL     1       0.166  15.630  19.813  0.00  0.00    +0.000 C 
ATOM     17  C   UNL     1       1.647  15.842  20.146  0.00  0.00    +0.000 C 
ATOM     18  C   UNL     1       2.406  14.505  20.247  0.00  0.00    +0.000 C 
ATOM     19  C   UNL     1       3.902  14.707  20.476  0.00  0.00    +0.000 C 
ATOM     20  C   UNL     1       2.143  13.635  19.004  0.00  0.00    +0.000 C 
BRANCH  17  21
ATOM     21  O   UNL     1       2.248  16.716  19.193  0.00  0.00    +0.000 OA
ATOM     22  H   UNL     1       3.210  16.722  19.319  0.00  0.00    +0.000 HD
ENDBRANCH  17  21
ENDBRANCH   3  12
BRANCH   1  24
ATOM     23  C   UNL     1      -0.449   9.646  23.082  0.00  0.00    +0.000 C 
ATOM     24  O   UNL     1       0.393   8.821  22.279  0.00  0.00    +0.000 OA
ENDBRANCH   1  24
BRANCH   8  25
ATOM     25  C   UNL     1       3.233   5.067  17.856  0.00  0.00    +0.000 C 
BRANCH  25  26
ATOM     26  C   UNL     1       4.718   4.931  17.612  0.00  0.00    +0.000 A 
ATOM     27  C   UNL     1       5.651   5.314  18.592  0.00  0.00    +0.000 A 
ATOM     28  C   UNL     1       7.023   5.181  18.359  0.00  0.00    +0.000 A 
ATOM     29 CL   UNL     1       8.148   5.668  19.564  0.00  0.00    +0.000 Cl
ATOM     30  C   UNL     1       7.486   4.657  17.153  0.00  0.00    +0.000 A 
ATOM     31  C   UNL     1       6.569   4.264  16.178  0.00  0.00    +0.000 A 
ATOM     32  C   UNL     1       5.201   4.400  16.413  0.00  0.00    +0.000 A 
ATOM     33  F   UNL     1       4.344   4.015  15.459  0.00  0.00    +0.000 F 
ENDBRANCH  25  26
ENDBRANCH   8  25
TORSDOF 5
ENDMDL
MODEL 6
REMARK VINA RESULT:      -8.4      5.465      7.427
REMARK  Name = 
REMARK  7 active torsions:
REMARK  status: ('A' for Active; 'I' for Inactive)
REMARK    1  A    between atoms: C_1  and  O_2
REMARK    2  A    between atoms: O_2  and  C_3
REMARK    3  A    between atoms: C_5  and  C_6
REMARK    4  A    between atoms: C_11  and  O_12
REMARK    5  A    between atoms: C_13  and  C_14
REMARK    6  A    between atoms: N_20  and  C_21
REMARK    7  A    between atoms: C_21  and  C_22
REMARK                            x       y       z     vdW  Elec       q    Type
REMARK                         _______ _______ _______ _____ _____    ______ ____
ROOT
ATOM      1  C   UNL     1       1.546   8.066  20.377  0.00  0.00    +0.000 A 
ATOM      2  C   UNL     1       2.040   6.889  19.810  0.00  0.00    +0.000 A 
ATOM      3  C   UNL     1       2.436   6.799  18.468  0.00  0.00    +0.000 A 
ATOM      4  C   UNL     1       2.503   7.968  17.683  0.00  0.00    +0.000 A 
ATOM      5  C   UNL     1       2.099   9.182  18.255  0.00  0.00    +0.000 A 
ATOM      6  N   UNL     1       2.135  10.474  17.779  0.00  0.00    +0.000 NA
ATOM      7  C   UNL     1       1.605  11.181  18.755  0.00  0.00    +0.000 A 
ATOM      8  N   UNL     1       1.462  12.504  18.889  0.00  0.00    +0.000 N 
ATOM      9  O   UNL     1       1.202  10.455  19.834  0.00  0.00    +0.000 OA
ATOM     10  C   UNL     1       1.586   9.180  19.546  0.00  0.00    +0.000 A 
ATOM     11  H   UNL     1       0.566  12.828  19.233  0.00  0.00    +0.000 HD
ENDROOT
BRANCH   3  12
ATOM     12  C   UNL     1       2.942   5.513  17.901  0.00  0.00    +0.000 C 
ATOM     13  O   UNL     1       2.094   4.661  17.638  0.00  0.00    +0.000 OA
ATOM     14  N   UNL     1       4.301   5.311  17.615  0.00  0.00    +0.000 N 
ATOM     15  C   UNL     1       4.661   4.186  16.755  0.00  0.00    +0.000 C 
ATOM     16  C   UNL     1       5.515   4.675  15.586  0.00  0.00    +0.000 C 
ATOM     17  C   UNL     1       6.728   5.488  16.053  0.00  0.00    +0.000 C 
ATOM     18  C   UNL     1       6.323   6.594  17.047  0.00  0.00    +0.000 C 
ATOM     19  C   UNL     1       7.535   7.344  17.598  0.00  0.00    +0.000 C 
ATOM     20  C   UNL     1       5.459   6.016  18.182  0.00  0.00    +0.000 C 
BRANCH  17  21
ATOM     21  O   UNL     1       7.720   4.624  16.604  0.00  0.00    +0.000 OA
ATOM     22  H   UNL     1       8.546   4.719  16.104  0.00  0.00    +0.000 HD
ENDBRANCH  17  21
ENDBRANCH   3  12
BRANCH   1  24
ATOM     23  C   UNL     1      -0.319   8.455  21.781  0.00  0.00    +0.000 C 
ATOM     24  O   UNL     1       1.076   8.185  21.657  0.00  0.00    +0.000 OA
ENDBRANCH   1  24
BRANCH   8  25
ATOM     25  C   UNL     1       2.176  13.406  18.016  0.00  0.00    +0.000 C 
BRANCH  25  26
ATOM     26  C   UNL     1       2.324  14.742  18.705  0.00  0.00    +0.000 A 
ATOM     27  C   UNL     1       1.637  15.877  18.239  0.00  0.00    +0.000 A 
ATOM     28  C   UNL     1       1.778  17.110  18.885  0.00  0.00    +0.000 A 
ATOM     29 CL   UNL     1       0.941  18.488  18.291  0.00  0.00    +0.000 Cl
ATOM     30  C   UNL     1       2.595  17.227  20.008  0.00  0.00    +0.000 A 
ATOM     31  C   UNL     1       3.273  16.105  20.485  0.00  0.00    +0.000 A 
ATOM     32  C   UNL     1       3.132  14.878  19.837  0.00  0.00    +0.000 A 
ATOM     33  F   UNL     1       3.795  13.818  20.318  0.00  0.00    +0.000 F 
ENDBRANCH  25  26
ENDBRANCH   8  25
TORSDOF 5
ENDMDL
MODEL 7
REMARK VINA RESULT:      -8.4      5.333      7.229
REMARK  Name = 
REMARK  7 active torsions:
REMARK  status: ('A' for Active; 'I' for Inactive)
REMARK    1  A    between atoms: C_1  and  O_2
REMARK    2  A    between atoms: O_2  and  C_3
REMARK    3  A    between atoms: C_5  and  C_6
REMARK    4  A    between atoms: C_11  and  O_12
REMARK    5  A    between atoms: C_13  and  C_14
REMARK    6  A    between atoms: N_20  and  C_21
REMARK    7  A    between atoms: C_21  and  C_22
REMARK                            x       y       z     vdW  Elec       q    Type
REMARK                         _______ _______ _______ _____ _____    ______ ____
ROOT
ATOM      1  C   UNL     1       1.342   8.318  20.465  0.00  0.00    +0.000 A 
ATOM      2  C   UNL     1       2.199   7.424  19.820  0.00  0.00    +0.000 A 
ATOM      3  C   UNL     1       2.549   7.545  18.468  0.00  0.00    +0.000 A 
ATOM      4  C   UNL     1       2.165   8.698  17.752  0.00  0.00    +0.000 A 
ATOM      5  C   UNL     1       1.378   9.658  18.403  0.00  0.00    +0.000 A 
ATOM      6  N   UNL     1       0.933  10.898  18.003  0.00  0.00    +0.000 NA
ATOM      7  C   UNL     1       0.226  11.323  19.029  0.00  0.00    +0.000 A 
ATOM      8  N   UNL     1      -0.373  12.499  19.242  0.00  0.00    +0.000 N 
ATOM      9  O   UNL     1       0.149  10.450  20.070  0.00  0.00    +0.000 OA
ATOM     10  C   UNL     1       0.950   9.411  19.701  0.00  0.00    +0.000 A 
ATOM     11  H   UNL     1      -1.312  12.465  19.622  0.00  0.00    +0.000 HD
ENDROOT
BRANCH   3  12
ATOM     12  C   UNL     1       3.456   6.554  17.816  0.00  0.00    +0.000 C 
ATOM     13  O   UNL     1       4.508   6.996  17.356  0.00  0.00    +0.000 OA
ATOM     14  N   UNL     1       3.160   5.182  17.791  0.00  0.00    +0.000 N 
ATOM     15  C   UNL     1       4.238   4.255  17.454  0.00  0.00    +0.000 C 
ATOM     16  C   UNL     1       4.369   3.189  18.541  0.00  0.00    +0.000 C 
ATOM     17  C   UNL     1       3.037   2.486  18.828  0.00  0.00    +0.000 C 
ATOM     18  C   UNL     1       1.899   3.497  19.067  0.00  0.00    +0.000 C 
ATOM     19  C   UNL     1       0.547   2.810  19.251  0.00  0.00    +0.000 C 
ATOM     20  C   UNL     1       1.847   4.537  17.932  0.00  0.00    +0.000 C 
BRANCH  17  21
ATOM     21  O   UNL     1       2.720   1.578  17.775  0.00  0.00    +0.000 OA
ATOM     22  H   UNL     1       3.316   1.731  17.025  0.00  0.00    +0.000 HD
ENDBRANCH  17  21
ENDBRANCH   3  12
BRANCH   1  24
ATOM     23  C   UNL     1       1.402   9.186  22.666  0.00  0.00    +0.000 C 
ATOM     24  O   UNL     1       0.911   8.200  21.759  0.00  0.00    +0.000 OA
ENDBRANCH   1  24
BRANCH   8  25
ATOM     25  C   UNL     1      -0.062  13.637  18.410  0.00  0.00    +0.000 C 
BRANCH  25  26
ATOM     26  C   UNL     1       1.187  14.304  18.938  0.00  0.00    +0.000 A 
ATOM     27  C   UNL     1       2.415  14.176  18.265  0.00  0.00    +0.000 A 
ATOM     28  C   UNL     1       3.566  14.801  18.759  0.00  0.00    +0.000 A 
ATOM     29 CL   UNL     1       5.060  14.621  17.930  0.00  0.00    +0.000 Cl
ATOM     30  C   UNL     1       3.507  15.567  19.922  0.00  0.00    +0.000 A 
ATOM     31  C   UNL     1       2.292  15.708  20.591  0.00  0.00    +0.000 A 
ATOM     32  C   UNL     1       1.148  15.083  20.097  0.00  0.00    +0.000 A 
ATOM     33  F   UNL     1      -0.005  15.237  20.761  0.00  0.00    +0.000 F 
ENDBRANCH  25  26
ENDBRANCH   8  25
TORSDOF 5
ENDMDL
MODEL 8
REMARK VINA RESULT:      -8.4      4.560      8.238
REMARK  Name = 
REMARK  7 active torsions:
REMARK  status: ('A' for Active; 'I' for Inactive)
REMARK    1  A    between atoms: C_1  and  O_2
REMARK    2  A    between atoms: O_2  and  C_3
REMARK    3  A    between atoms: C_5  and  C_6
REMARK    4  A    between atoms: C_11  and  O_12
REMARK    5  A    between atoms: C_13  and  C_14
REMARK    6  A    between atoms: N_20  and  C_21
REMARK    7  A    between atoms: C_21  and  C_22
REMARK                            x       y       z     vdW  Elec       q    Type
REMARK                         _______ _______ _______ _____ _____    ______ ____
ROOT
ATOM      1  C   UNL     1       2.169   4.543  20.690  0.00  0.00    +0.000 A 
ATOM      2  C   UNL     1       2.747   3.934  19.573  0.00  0.00    +0.000 A 
ATOM      3  C   UNL     1       2.848   4.570  18.327  0.00  0.00    +0.000 A 
ATOM      4  C   UNL     1       2.511   5.935  18.213  0.00  0.00    +0.000 A 
ATOM      5  C   UNL     1       2.013   6.597  19.344  0.00  0.00    +0.000 A 
ATOM      6  N   UNL     1       1.690   7.918  19.561  0.00  0.00    +0.000 NA
ATOM      7  C   UNL     1       1.260   7.934  20.805  0.00  0.00    +0.000 A 
ATOM      8  N   UNL     1       0.894   8.959  21.583  0.00  0.00    +0.000 N 
ATOM      9  O   UNL     1       1.253   6.722  21.423  0.00  0.00    +0.000 OA
ATOM     10  C   UNL     1       1.807   5.873  20.512  0.00  0.00    +0.000 A 
ATOM     11  H   UNL     1       0.049   8.831  22.128  0.00  0.00    +0.000 HD
ENDROOT
BRANCH   3  12
ATOM     12  C   UNL     1       3.458   3.873  17.156  0.00  0.00    +0.000 C 
ATOM     13  O   UNL     1       2.734   3.080  16.554  0.00  0.00    +0.000 OA
ATOM     14  N   UNL     1       4.762   4.155  16.720  0.00  0.00    +0.000 N 
ATOM     15  C   UNL     1       5.154   3.700  15.388  0.00  0.00    +0.000 C 
ATOM     16  C   UNL     1       5.698   4.873  14.574  0.00  0.00    +0.000 C 
ATOM     17  C   UNL     1       6.818   5.619  15.309  0.00  0.00    +0.000 C 
ATOM     18  C   UNL     1       6.410   5.983  16.749  0.00  0.00    +0.000 C 
ATOM     19  C   UNL     1       7.554   6.634  17.525  0.00  0.00    +0.000 C 
ATOM     20  C   UNL     1       5.865   4.748  17.490  0.00  0.00    +0.000 C 
BRANCH  17  21
ATOM     21  O   UNL     1       8.022   4.855  15.281  0.00  0.00    +0.000 OA
ATOM     22  H   UNL     1       8.340   4.783  14.367  0.00  0.00    +0.000 HD
ENDBRANCH  17  21
ENDBRANCH   3  12
BRANCH   1  24
ATOM     23  C   UNL     1       1.631   2.557  21.857  0.00  0.00    +0.000 C 
ATOM     24  O   UNL     1       1.978   3.940  21.903  0.00  0.00    +0.000 OA
ENDBRANCH   1  24
BRANCH   8  25
ATOM     25  C   UNL     1       1.208  10.314  21.198  0.00  0.00    +0.000 C 
BRANCH  25  26
ATOM     26  C   UNL     1      -0.046  10.983  20.688  0.00  0.00    +0.000 A 
ATOM     27  C   UNL     1      -0.438  10.860  19.344  0.00  0.00    +0.000 A 
ATOM     28  C   UNL     1      -1.603  11.480  18.881  0.00  0.00    +0.000 A 
ATOM     29 CL   UNL     1      -2.057  11.329  17.231  0.00  0.00    +0.000 Cl
ATOM     30  C   UNL     1      -2.398  12.223  19.752  0.00  0.00    +0.000 A 
ATOM     31  C   UNL     1      -2.025  12.344  21.090  0.00  0.00    +0.000 A 
ATOM     32  C   UNL     1      -0.861  11.725  21.547  0.00  0.00    +0.000 A 
ATOM     33  F   UNL     1      -0.528  11.859  22.838  0.00  0.00    +0.000 F 
ENDBRANCH  25  26
ENDBRANCH   8  25
TORSDOF 5
ENDMDL
MODEL 9
REMARK VINA RESULT:      -8.4      5.811      7.744
REMARK  Name = 
REMARK  7 active torsions:
REMARK  status: ('A' for Active; 'I' for Inactive)
REMARK    1  A    between atoms: C_1  and  O_2
REMARK    2  A    between atoms: O_2  and  C_3
REMARK    3  A    between atoms: C_5  and  C_6
REMARK    4  A    between atoms: C_11  and  O_12
REMARK    5  A    between atoms: C_13  and  C_14
REMARK    6  A    between atoms: N_20  and  C_21
REMARK    7  A    between atoms: C_21  and  C_22
REMARK                            x       y       z     vdW  Elec       q    Type
REMARK                         _______ _______ _______ _____ _____    ______ ____
ROOT
ATOM      1  C   UNL     1       1.312   8.327  20.526  0.00  0.00    +0.000 A 
ATOM      2  C   UNL     1       2.193   7.451  19.887  0.00  0.00    +0.000 A 
ATOM      3  C   UNL     1       2.484   7.530  18.517  0.00  0.00    +0.000 A 
ATOM      4  C   UNL     1       2.011   8.627  17.767  0.00  0.00    +0.000 A 
ATOM      5  C   UNL     1       1.197   9.572  18.407  0.00  0.00    +0.000 A 
ATOM      6  N   UNL     1       0.670  10.767  17.971  0.00  0.00    +0.000 NA
ATOM      7  C   UNL     1      -0.021  11.200  19.005  0.00  0.00    +0.000 A 
ATOM      8  N   UNL     1      -0.675  12.351  19.191  0.00  0.00    +0.000 N 
ATOM      9  O   UNL     1      -0.010  10.372  20.086  0.00  0.00    +0.000 OA
ATOM     10  C   UNL     1       0.833   9.362  19.731  0.00  0.00    +0.000 A 
ATOM     11  H   UNL     1      -1.596  12.283  19.610  0.00  0.00    +0.000 HD
ENDROOT
BRANCH   3  12
ATOM     12  C   UNL     1       3.419   6.560  17.873  0.00  0.00    +0.000 C 
ATOM     13  O   UNL     1       4.472   7.023  17.437  0.00  0.00    +0.000 OA
ATOM     14  N   UNL     1       3.147   5.183  17.830  0.00  0.00    +0.000 N 
ATOM     15  C   UNL     1       4.246   4.277  17.505  0.00  0.00    +0.000 C 
ATOM     16  C   UNL     1       4.375   3.204  18.586  0.00  0.00    +0.000 C 
ATOM     17  C   UNL     1       3.050   2.476  18.842  0.00  0.00    +0.000 C 
ATOM     18  C   UNL     1       1.891   3.466  19.068  0.00  0.00    +0.000 C 
ATOM     19  C   UNL     1       0.548   2.755  19.221  0.00  0.00    +0.000 C 
ATOM     20  C   UNL     1       1.843   4.515  17.942  0.00  0.00    +0.000 C 
BRANCH  17  21
ATOM     21  O   UNL     1       2.768   1.573  17.775  0.00  0.00    +0.000 OA
ATOM     22  H   UNL     1       2.094   1.958  17.193  0.00  0.00    +0.000 HD
ENDBRANCH  17  21
ENDBRANCH   3  12
BRANCH   1  24
ATOM     23  C   UNL     1       1.450   9.268  22.693  0.00  0.00    +0.000 C 
ATOM     24  O   UNL     1       0.937   8.246  21.840  0.00  0.00    +0.000 OA
ENDBRANCH   1  24
BRANCH   8  25
ATOM     25  C   UNL     1      -0.458  13.464  18.299  0.00  0.00    +0.000 C 
BRANCH  25  26
ATOM     26  C   UNL     1       0.510  14.428  18.943  0.00  0.00    +0.000 A 
ATOM     27  C   UNL     1       0.072  15.372  19.888  0.00  0.00    +0.000 A 
ATOM     28  C   UNL     1       0.976  16.258  20.482  0.00  0.00    +0.000 A 
ATOM     29 CL   UNL     1       0.418  17.414  21.625  0.00  0.00    +0.000 Cl
ATOM     30  C   UNL     1       2.330  16.211  20.151  0.00  0.00    +0.000 A 
ATOM     31  C   UNL     1       2.777  15.272  19.222  0.00  0.00    +0.000 A 
ATOM     32  C   UNL     1       1.872  14.391  18.630  0.00  0.00    +0.000 A 
ATOM     33  F   UNL     1       2.331  13.500  17.742  0.00  0.00    +0.000 F 
ENDBRANCH  25  26
ENDBRANCH   8  25
TORSDOF 5
ENDMDL
