MODEL 1
REMARK VINA RESULT:      -7.5      0.000      0.000
REMARK  Name = 
REMARK  2 active torsions:
REMARK  status: ('A' for Active; 'I' for Inactive)
REMARK    1  A    between atoms: C_2  and  C_3
REMARK    2  A    between atoms: C_8  and  C_9
REMARK                            x       y       z     vdW  Elec       q    Type
REMARK                         _______ _______ _______ _____ _____    ______ ____
ROOT
ATOM      1  O   UNL     1       2.283  13.648  21.590  0.00  0.00    +0.000 OA
ATOM      2  C   UNL     1       1.859  13.597  20.439  0.00  0.00    +0.000 C 
ATOM      3  N   UNL     1       0.846  12.691  20.094  0.00  0.00    +0.000 N 
ATOM      4  C   UNL     1       0.252  12.415  18.794  0.00  0.00    +0.000 C 
ATOM      5  C   UNL     1      -0.600  11.156  18.922  0.00  0.00    +0.000 C 
ATOM      6  C   UNL     1       0.003   9.982  18.144  0.00  0.00    +0.000 C 
ATOM      7  N   UNL     1       0.883   9.404  19.126  0.00  0.00    +0.000 N 
ATOM      8  C   UNL     1       1.734   8.398  18.883  0.00  0.00    +0.000 A 
ATOM      9  N   UNL     1       2.186   7.542  19.773  0.00  0.00    +0.000 NA
ATOM     10  C   UNL     1       3.149   6.854  19.103  0.00  0.00    +0.000 A 
ATOM     11  C   UNL     1       4.010   5.851  19.553  0.00  0.00    +0.000 A 
ATOM     12  C   UNL     1       4.945   5.340  18.648  0.00  0.00    +0.000 A 
ATOM     13  C   UNL     1       5.007   5.814  17.331  0.00  0.00    +0.000 A 
ATOM     14  C   UNL     1       4.134   6.809  16.862  0.00  0.00    +0.000 A 
ATOM     15  C   UNL     1       3.229   7.300  17.796  0.00  0.00    +0.000 A 
ATOM     16  O   UNL     1       2.294   8.288  17.637  0.00  0.00    +0.000 OA
ATOM     17  C   UNL     1       0.280   9.476  20.445  0.00  0.00    +0.000 C 
ATOM     18  C   UNL     1      -0.532  10.770  20.412  0.00  0.00    +0.000 C 
ATOM     19  C   UNL     1       0.172  11.925  21.123  0.00  0.00    +0.000 C 
ENDROOT
BRANCH   2  20
ATOM     20  C   UNL     1       2.454  14.509  19.396  0.00  0.00    +0.000 A 
ATOM     21  C   UNL     1       3.610  14.076  18.715  0.00  0.00    +0.000 A 
ATOM     22  C   UNL     1       4.311  14.891  17.831  0.00  0.00    +0.000 A 
ATOM     23  C   UNL     1       3.795  16.128  17.501  0.00  0.00    +0.000 A 
ATOM     24  C   UNL     1       2.574  16.523  18.046  0.00  0.00    +0.000 A 
ATOM     25  C   UNL     1       1.880  15.739  19.001  0.00  0.00    +0.000 A 
BRANCH  25  26
ATOM     26  C   UNL     1       0.593  16.289  19.438  0.00  0.00    +0.000 A 
ATOM     27  N   UNL     1       0.404  17.047  20.508  0.00  0.00    +0.000 NA
ATOM     28  N   UNL     1      -0.932  17.349  20.608  0.00  0.00    +0.000 NA
ATOM     29  C   UNL     1      -1.541  16.759  19.609  0.00  0.00    +0.000 A 
ATOM     30  N   UNL     1      -0.634  16.069  18.867  0.00  0.00    +0.000 N 
ATOM     31  H   UNL     1      -0.812  15.559  18.015  0.00  0.00    +0.000 HD
ENDBRANCH  25  26
ENDBRANCH   2  20
TORSDOF 2
ENDMDL
MODEL 2
REMARK VINA RESULT:      -7.5      5.245      7.655
REMARK  Name = 
REMARK  2 active torsions:
REMARK  status: ('A' for Active; 'I' for Inactive)
REMARK    1  A    between atoms: C_2  and  C_3
REMARK    2  A    between atoms: C_8  and  C_9
REMARK                            x       y       z     vdW  Elec       q    Type
REMARK                         _______ _______ _______ _____ _____    ______ ____
ROOT
ATOM      1  O   UNL     1       8.423  14.179  21.318  0.00  0.00    +0.000 OA
ATOM      2  C   UNL     1       8.214  14.197  20.108  0.00  0.00    +0.000 C 
ATOM      3  N   UNL     1       7.196  15.000  19.575  0.00  0.00    +0.000 N 
ATOM      4  C   UNL     1       6.733  15.119  18.200  0.00  0.00    +0.000 C 
ATOM      5  C   UNL     1       5.431  15.914  18.208  0.00  0.00    +0.000 C 
ATOM      6  C   UNL     1       4.231  15.039  17.826  0.00  0.00    +0.000 C 
ATOM      7  N   UNL     1       3.838  14.510  19.105  0.00  0.00    +0.000 N 
ATOM      8  C   UNL     1       2.883  13.586  19.281  0.00  0.00    +0.000 A 
ATOM      9  N   UNL     1       2.169  13.418  20.372  0.00  0.00    +0.000 NA
ATOM     10  C   UNL     1       1.493  12.260  20.145  0.00  0.00    +0.000 A 
ATOM     11  C   UNL     1       0.618  11.555  20.974  0.00  0.00    +0.000 A 
ATOM     12  C   UNL     1       0.090  10.353  20.493  0.00  0.00    +0.000 A 
ATOM     13  C   UNL     1       0.421   9.880  19.216  0.00  0.00    +0.000 A 
ATOM     14  C   UNL     1       1.285  10.589  18.367  0.00  0.00    +0.000 A 
ATOM     15  C   UNL     1       1.799  11.771  18.887  0.00  0.00    +0.000 A 
ATOM     16  O   UNL     1       2.685  12.641  18.308  0.00  0.00    +0.000 OA
ATOM     17  C   UNL     1       4.003  15.517  20.137  0.00  0.00    +0.000 C 
ATOM     18  C   UNL     1       5.215  16.325  19.677  0.00  0.00    +0.000 C 
ATOM     19  C   UNL     1       6.494  15.945  20.422  0.00  0.00    +0.000 C 
ENDROOT
BRANCH   2  20
ATOM     20  C   UNL     1       9.053  13.328  19.204  0.00  0.00    +0.000 A 
ATOM     21  C   UNL     1       8.778  11.946  19.167  0.00  0.00    +0.000 A 
ATOM     22  C   UNL     1       9.573  11.042  18.470  0.00  0.00    +0.000 A 
ATOM     23  C   UNL     1      10.596  11.516  17.675  0.00  0.00    +0.000 A 
ATOM     24  C   UNL     1      10.798  12.892  17.574  0.00  0.00    +0.000 A 
ATOM     25  C   UNL     1      10.046  13.825  18.330  0.00  0.00    +0.000 A 
BRANCH  25  26
ATOM     26  C   UNL     1      10.365  15.234  18.070  0.00  0.00    +0.000 A 
ATOM     27  N   UNL     1      10.943  16.062  18.927  0.00  0.00    +0.000 NA
ATOM     28  N   UNL     1      11.056  17.299  18.342  0.00  0.00    +0.000 NA
ATOM     29  C   UNL     1      10.531  17.213  17.144  0.00  0.00    +0.000 A 
ATOM     30  N   UNL     1      10.067  15.950  16.940  0.00  0.00    +0.000 N 
ATOM     31  H   UNL     1       9.657  15.586  16.094  0.00  0.00    +0.000 HD
ENDBRANCH  25  26
ENDBRANCH   2  20
TORSDOF 2
ENDMDL
MODEL 3
REMARK VINA RESULT:      -7.4      3.614      6.433
REMARK  Name = 
REMARK  2 active torsions:
REMARK  status: ('A' for Active; 'I' for Inactive)
REMARK    1  A    between atoms: C_2  and  C_3
REMARK    2  A    between atoms: C_8  and  C_9
REMARK                            x       y       z     vdW  Elec       q    Type
REMARK                         _______ _______ _______ _____ _____    ______ ____
ROOT
ATOM      1  O   UNL     1      -0.528  10.848  23.315  0.00  0.00    +0.000 OA
ATOM      2  C   UNL     1      -1.250  11.532  22.596  0.00  0.00    +0.000 C 
ATOM      3  N   UNL     1      -1.246  11.351  21.205  0.00  0.00    +0.000 N 
ATOM      4  C   UNL     1      -1.957  12.088  20.171  0.00  0.00    +0.000 C 
ATOM      5  C   UNL     1      -1.389  11.670  18.818  0.00  0.00    +0.000 C 
ATOM      6  C   UNL     1      -0.612  12.811  18.153  0.00  0.00    +0.000 C 
ATOM      7  N   UNL     1       0.708  12.616  18.691  0.00  0.00    +0.000 N 
ATOM      8  C   UNL     1       1.739  13.449  18.489  0.00  0.00    +0.000 A 
ATOM      9  N   UNL     1       3.011  13.119  18.529  0.00  0.00    +0.000 NA
ATOM     10  C   UNL     1       3.659  14.313  18.463  0.00  0.00    +0.000 A 
ATOM     11  C   UNL     1       5.026  14.595  18.516  0.00  0.00    +0.000 A 
ATOM     12  C   UNL     1       5.418  15.936  18.465  0.00  0.00    +0.000 A 
ATOM     13  C   UNL     1       4.468  16.961  18.355  0.00  0.00    +0.000 A 
ATOM     14  C   UNL     1       3.093  16.688  18.282  0.00  0.00    +0.000 A 
ATOM     15  C   UNL     1       2.744  15.345  18.349  0.00  0.00    +0.000 A 
ATOM     16  O   UNL     1       1.492  14.789  18.341  0.00  0.00    +0.000 OA
ATOM     17  C   UNL     1       0.997  11.199  18.813  0.00  0.00    +0.000 C 
ATOM     18  C   UNL     1      -0.357  10.570  19.133  0.00  0.00    +0.000 C 
ATOM     19  C   UNL     1      -0.518  10.243  20.617  0.00  0.00    +0.000 C 
ENDROOT
BRANCH   2  20
ATOM     20  C   UNL     1      -2.129  12.584  23.224  0.00  0.00    +0.000 A 
ATOM     21  C   UNL     1      -3.342  12.172  23.814  0.00  0.00    +0.000 A 
ATOM     22  C   UNL     1      -4.283  13.073  24.303  0.00  0.00    +0.000 A 
ATOM     23  C   UNL     1      -3.975  14.418  24.337  0.00  0.00    +0.000 A 
ATOM     24  C   UNL     1      -2.721  14.840  23.897  0.00  0.00    +0.000 A 
ATOM     25  C   UNL     1      -1.777  13.948  23.331  0.00  0.00    +0.000 A 
BRANCH  25  26
ATOM     26  C   UNL     1      -0.495  14.557  22.958  0.00  0.00    +0.000 A 
ATOM     27  N   UNL     1       0.159  15.466  23.665  0.00  0.00    +0.000 NA
ATOM     28  N   UNL     1       1.303  15.816  22.989  0.00  0.00    +0.000 NA
ATOM     29  C   UNL     1       1.322  15.129  21.874  0.00  0.00    +0.000 A 
ATOM     30  N   UNL     1       0.210  14.349  21.801  0.00  0.00    +0.000 N 
ATOM     31  H   UNL     1      -0.016  13.684  21.077  0.00  0.00    +0.000 HD
ENDBRANCH  25  26
ENDBRANCH   2  20
TORSDOF 2
ENDMDL
MODEL 4
REMARK VINA RESULT:      -7.3      4.077      8.593
REMARK  Name = 
REMARK  2 active torsions:
REMARK  status: ('A' for Active; 'I' for Inactive)
REMARK    1  A    between atoms: C_2  and  C_3
REMARK    2  A    between atoms: C_8  and  C_9
REMARK                            x       y       z     vdW  Elec       q    Type
REMARK                         _______ _______ _______ _____ _____    ______ ____
ROOT
ATOM      1  O   UNL     1      -1.167   9.929  19.752  0.00  0.00    +0.000 OA
ATOM      2  C   UNL     1      -1.248  10.875  18.974  0.00  0.00    +0.000 C 
ATOM      3  N   UNL     1      -0.426  12.000  19.134  0.00  0.00    +0.000 N 
ATOM      4  C   UNL     1      -0.404  13.247  18.384  0.00  0.00    +0.000 C 
ATOM      5  C   UNL     1       0.481  14.235  19.136  0.00  0.00    +0.000 C 
ATOM      6  C   UNL     1      -0.335  15.390  19.728  0.00  0.00    +0.000 C 
ATOM      7  N   UNL     1      -0.710  14.853  21.009  0.00  0.00    +0.000 N 
ATOM      8  C   UNL     1      -1.541  15.458  21.870  0.00  0.00    +0.000 A 
ATOM      9  N   UNL     1      -1.551  15.290  23.174  0.00  0.00    +0.000 NA
ATOM     10  C   UNL     1      -2.673  15.944  23.578  0.00  0.00    +0.000 A 
ATOM     11  C   UNL     1      -3.229  16.066  24.853  0.00  0.00    +0.000 A 
ATOM     12  C   UNL     1      -4.429  16.773  24.977  0.00  0.00    +0.000 A 
ATOM     13  C   UNL     1      -5.045  17.349  23.857  0.00  0.00    +0.000 A 
ATOM     14  C   UNL     1      -4.484  17.250  22.574  0.00  0.00    +0.000 A 
ATOM     15  C   UNL     1      -3.300  16.528  22.491  0.00  0.00    +0.000 A 
ATOM     16  O   UNL     1      -2.556  16.236  21.378  0.00  0.00    +0.000 OA
ATOM     17  C   UNL     1       0.375  14.062  21.560  0.00  0.00    +0.000 C 
ATOM     18  C   UNL     1       1.044  13.446  20.333  0.00  0.00    +0.000 C 
ATOM     19  C   UNL     1       0.643  11.988  20.113  0.00  0.00    +0.000 C 
ENDROOT
BRANCH   2  20
ATOM     20  C   UNL     1      -2.258  10.822  17.855  0.00  0.00    +0.000 A 
ATOM     21  C   UNL     1      -1.934  10.078  16.702  0.00  0.00    +0.000 A 
ATOM     22  C   UNL     1      -2.734  10.070  15.564  0.00  0.00    +0.000 A 
ATOM     23  C   UNL     1      -3.959  10.707  15.596  0.00  0.00    +0.000 A 
ATOM     24  C   UNL     1      -4.373  11.326  16.775  0.00  0.00    +0.000 A 
ATOM     25  C   UNL     1      -3.543  11.405  17.921  0.00  0.00    +0.000 A 
BRANCH  25  26
ATOM     26  C   UNL     1      -4.154  12.058  19.084  0.00  0.00    +0.000 A 
ATOM     27  N   UNL     1      -5.340  11.765  19.597  0.00  0.00    +0.000 NA
ATOM     28  N   UNL     1      -5.583  12.600  20.660  0.00  0.00    +0.000 NA
ATOM     29  C   UNL     1      -4.552  13.401  20.770  0.00  0.00    +0.000 A 
ATOM     30  N   UNL     1      -3.648  13.115  19.795  0.00  0.00    +0.000 N 
ATOM     31  H   UNL     1      -2.742  13.541  19.666  0.00  0.00    +0.000 HD
ENDBRANCH  25  26
ENDBRANCH   2  20
TORSDOF 2
ENDMDL
MODEL 5
REMARK VINA RESULT:      -7.2      5.648      8.064
REMARK  Name = 
REMARK  2 active torsions:
REMARK  status: ('A' for Active; 'I' for Inactive)
REMARK    1  A    between atoms: C_2  and  C_3
REMARK    2  A    between atoms: C_8  and  C_9
REMARK                            x       y       z     vdW  Elec       q    Type
REMARK                         _______ _______ _______ _____ _____    ______ ____
ROOT
ATOM      1  O   UNL     1       3.424  13.679  21.608  0.00  0.00    +0.000 OA
ATOM      2  C   UNL     1       4.049  14.733  21.671  0.00  0.00    +0.000 C 
ATOM      3  N   UNL     1       4.466  15.385  20.501  0.00  0.00    +0.000 N 
ATOM      4  C   UNL     1       5.268  16.588  20.345  0.00  0.00    +0.000 C 
ATOM      5  C   UNL     1       5.662  16.707  18.876  0.00  0.00    +0.000 C 
ATOM      6  C   UNL     1       7.165  16.489  18.672  0.00  0.00    +0.000 C 
ATOM      7  N   UNL     1       7.232  15.061  18.506  0.00  0.00    +0.000 N 
ATOM      8  C   UNL     1       8.372  14.363  18.407  0.00  0.00    +0.000 A 
ATOM      9  N   UNL     1       8.512  13.204  17.803  0.00  0.00    +0.000 NA
ATOM     10  C   UNL     1       9.771  12.812  18.137  0.00  0.00    +0.000 A 
ATOM     11  C   UNL     1      10.456  11.636  17.826  0.00  0.00    +0.000 A 
ATOM     12  C   UNL     1      11.746  11.476  18.342  0.00  0.00    +0.000 A 
ATOM     13  C   UNL     1      12.332  12.470  19.136  0.00  0.00    +0.000 A 
ATOM     14  C   UNL     1      11.661  13.665  19.439  0.00  0.00    +0.000 A 
ATOM     15  C   UNL     1      10.377  13.780  18.919  0.00  0.00    +0.000 A 
ATOM     16  O   UNL     1       9.482  14.804  19.080  0.00  0.00    +0.000 OA
ATOM     17  C   UNL     1       6.082  14.588  17.757  0.00  0.00    +0.000 C 
ATOM     18  C   UNL     1       4.956  15.533  18.171  0.00  0.00    +0.000 C 
ATOM     19  C   UNL     1       4.018  14.912  19.205  0.00  0.00    +0.000 C 
ENDROOT
BRANCH   2  20
ATOM     20  C   UNL     1       4.382  15.311  23.024  0.00  0.00    +0.000 A 
ATOM     21  C   UNL     1       3.676  16.454  23.451  0.00  0.00    +0.000 A 
ATOM     22  C   UNL     1       3.995  17.140  24.619  0.00  0.00    +0.000 A 
ATOM     23  C   UNL     1       4.950  16.619  25.468  0.00  0.00    +0.000 A 
ATOM     24  C   UNL     1       5.561  15.408  25.144  0.00  0.00    +0.000 A 
ATOM     25  C   UNL     1       5.302  14.731  23.926  0.00  0.00    +0.000 A 
BRANCH  25  26
ATOM     26  C   UNL     1       6.003  13.452  23.768  0.00  0.00    +0.000 A 
ATOM     27  N   UNL     1       5.697  12.324  24.392  0.00  0.00    +0.000 NA
ATOM     28  N   UNL     1       6.586  11.349  24.011  0.00  0.00    +0.000 NA
ATOM     29  C   UNL     1       7.431  11.899  23.174  0.00  0.00    +0.000 A 
ATOM     30  N   UNL     1       7.120  13.213  23.010  0.00  0.00    +0.000 N 
ATOM     31  H   UNL     1       7.571  13.869  22.390  0.00  0.00    +0.000 HD
ENDBRANCH  25  26
ENDBRANCH   2  20
TORSDOF 2
ENDMDL
MODEL 6
REMARK VINA RESULT:      -7.0      5.708      8.812
REMARK  Name = 
REMARK  2 active torsions:
REMARK  status: ('A' for Active; 'I' for Inactive)
REMARK    1  A    between atoms: C_2  and  C_3
REMARK    2  A    between atoms: C_8  and  C_9
REMARK                            x       y       z     vdW  Elec       q    Type
REMARK                         _______ _______ _______ _____ _____    ______ ____
ROOT
ATOM      1  O   UNL     1       8.990  10.559  19.542  0.00  0.00    +0.000 OA
ATOM      2  C   UNL     1       9.418  11.669  19.846  0.00  0.00    +0.000 C 
ATOM      3  N   UNL     1       9.182  12.197  21.124  0.00  0.00    +0.000 N 
ATOM      4  C   UNL     1       9.529  13.502  21.666  0.00  0.00    +0.000 C 
ATOM      5  C   UNL     1       8.804  13.668  22.998  0.00  0.00    +0.000 C 
ATOM      6  C   UNL     1       7.711  14.739  22.919  0.00  0.00    +0.000 C 
ATOM      7  N   UNL     1       6.580  13.969  22.475  0.00  0.00    +0.000 N 
ATOM      8  C   UNL     1       5.390  14.490  22.146  0.00  0.00    +0.000 A 
ATOM      9  N   UNL     1       4.236  13.863  22.200  0.00  0.00    +0.000 NA
ATOM     10  C   UNL     1       3.371  14.720  21.592  0.00  0.00    +0.000 A 
ATOM     11  C   UNL     1       2.012  14.571  21.310  0.00  0.00    +0.000 A 
ATOM     12  C   UNL     1       1.369  15.609  20.629  0.00  0.00    +0.000 A 
ATOM     13  C   UNL     1       2.068  16.764  20.251  0.00  0.00    +0.000 A 
ATOM     14  C   UNL     1       3.430  16.933  20.546  0.00  0.00    +0.000 A 
ATOM     15  C   UNL     1       4.035  15.873  21.212  0.00  0.00    +0.000 A 
ATOM     16  O   UNL     1       5.344  15.742  21.590  0.00  0.00    +0.000 OA
ATOM     17  C   UNL     1       6.595  12.654  23.091  0.00  0.00    +0.000 C 
ATOM     18  C   UNL     1       8.080  12.328  23.235  0.00  0.00    +0.000 C 
ATOM     19  C   UNL     1       8.580  11.372  22.153  0.00  0.00    +0.000 C 
ENDROOT
BRANCH   2  20
ATOM     20  C   UNL     1      10.184  12.468  18.821  0.00  0.00    +0.000 A 
ATOM     21  C   UNL     1      11.497  12.061  18.506  0.00  0.00    +0.000 A 
ATOM     22  C   UNL     1      12.333  12.800  17.676  0.00  0.00    +0.000 A 
ATOM     23  C   UNL     1      11.830  13.908  17.025  0.00  0.00    +0.000 A 
ATOM     24  C   UNL     1      10.490  14.250  17.201  0.00  0.00    +0.000 A 
ATOM     25  C   UNL     1       9.641  13.552  18.096  0.00  0.00    +0.000 A 
BRANCH  25  26
ATOM     26  C   UNL     1       8.251  14.023  18.127  0.00  0.00    +0.000 A 
ATOM     27  N   UNL     1       7.249  13.508  17.429  0.00  0.00    +0.000 NA
ATOM     28  N   UNL     1       6.108  14.224  17.697  0.00  0.00    +0.000 NA
ATOM     29  C   UNL     1       6.432  15.173  18.540  0.00  0.00    +0.000 A 
ATOM     30  N   UNL     1       7.762  15.100  18.818  0.00  0.00    +0.000 N 
ATOM     31  H   UNL     1       8.277  15.675  19.468  0.00  0.00    +0.000 HD
ENDBRANCH  25  26
ENDBRANCH   2  20
TORSDOF 2
ENDMDL
MODEL 7
REMARK VINA RESULT:      -6.9      6.623      8.172
REMARK  Name = 
REMARK  2 active torsions:
REMARK  status: ('A' for Active; 'I' for Inactive)
REMARK    1  A    between atoms: C_2  and  C_3
REMARK    2  A    between atoms: C_8  and  C_9
REMARK                            x       y       z     vdW  Elec       q    Type
REMARK                         _______ _______ _______ _____ _____    ______ ____
ROOT
ATOM      1  O   UNL     1       6.529  14.174  21.270  0.00  0.00    +0.000 OA
ATOM      2  C   UNL     1       7.586  13.653  21.613  0.00  0.00    +0.000 C 
ATOM      3  N   UNL     1       8.575  13.359  20.662  0.00  0.00    +0.000 N 
ATOM      4  C   UNL     1       9.854  12.687  20.833  0.00  0.00    +0.000 C 
ATOM      5  C   UNL     1      10.413  12.377  19.448  0.00  0.00    +0.000 C 
ATOM      6  C   UNL     1      10.423  10.870  19.165  0.00  0.00    +0.000 C 
ATOM      7  N   UNL     1       9.112  10.671  18.606  0.00  0.00    +0.000 N 
ATOM      8  C   UNL     1       8.594   9.474  18.297  0.00  0.00    +0.000 A 
ATOM      9  N   UNL     1       7.667   9.250  17.392  0.00  0.00    +0.000 NA
ATOM     10  C   UNL     1       7.337   7.944  17.580  0.00  0.00    +0.000 A 
ATOM     11  C   UNL     1       6.372   7.162  16.942  0.00  0.00    +0.000 A 
ATOM     12  C   UNL     1       6.216   5.840  17.370  0.00  0.00    +0.000 A 
ATOM     13  C   UNL     1       7.012   5.317  18.399  0.00  0.00    +0.000 A 
ATOM     14  C   UNL     1       7.998   6.087  19.034  0.00  0.00    +0.000 A 
ATOM     15  C   UNL     1       8.112   7.399  18.590  0.00  0.00    +0.000 A 
ATOM     16  O   UNL     1       8.950   8.383  19.045  0.00  0.00    +0.000 OA
ATOM     17  C   UNL     1       8.741  11.803  17.776  0.00  0.00    +0.000 C 
ATOM     18  C   UNL     1       9.409  12.996  18.457  0.00  0.00    +0.000 C 
ATOM     19  C   UNL     1       8.431  13.819  19.295  0.00  0.00    +0.000 C 
ENDROOT
BRANCH   2  20
ATOM     20  C   UNL     1       7.802  13.315  23.067  0.00  0.00    +0.000 A 
ATOM     21  C   UNL     1       7.440  12.027  23.511  0.00  0.00    +0.000 A 
ATOM     22  C   UNL     1       7.475  11.658  24.852  0.00  0.00    +0.000 A 
ATOM     23  C   UNL     1       8.005  12.534  25.779  0.00  0.00    +0.000 A 
ATOM     24  C   UNL     1       8.510  13.759  25.346  0.00  0.00    +0.000 A 
ATOM     25  C   UNL     1       8.419  14.182  23.996  0.00  0.00    +0.000 A 
BRANCH  25  26
ATOM     26  C   UNL     1       9.036  15.483  23.712  0.00  0.00    +0.000 A 
ATOM     27  N   UNL     1      10.132  15.673  22.993  0.00  0.00    +0.000 NA
ATOM     28  N   UNL     1      10.418  17.016  22.966  0.00  0.00    +0.000 NA
ATOM     29  C   UNL     1       9.503  17.624  23.681  0.00  0.00    +0.000 A 
ATOM     30  N   UNL     1       8.635  16.705  24.184  0.00  0.00    +0.000 N 
ATOM     31  H   UNL     1       7.808  16.891  24.731  0.00  0.00    +0.000 HD
ENDBRANCH  25  26
ENDBRANCH   2  20
TORSDOF 2
ENDMDL
MODEL 8
REMARK VINA RESULT:      -6.8      4.475      6.862
REMARK  Name = 
REMARK  2 active torsions:
REMARK  status: ('A' for Active; 'I' for Inactive)
REMARK    1  A    between atoms: C_2  and  C_3
REMARK    2  A    between atoms: C_8  and  C_9
REMARK                            x       y       z     vdW  Elec       q    Type
REMARK                         _______ _______ _______ _____ _____    ______ ____
ROOT
ATOM      1  O   UNL     1       2.747  15.606  17.884  0.00  0.00    +0.000 OA
ATOM      2  C   UNL     1       2.940  14.893  18.864  0.00  0.00    +0.000 C 
ATOM      3  N   UNL     1       3.827  15.297  19.873  0.00  0.00    +0.000 N 
ATOM      4  C   UNL     1       4.255  14.588  21.069  0.00  0.00    +0.000 C 
ATOM      5  C   UNL     1       5.429  15.350  21.675  0.00  0.00    +0.000 C 
ATOM      6  C   UNL     1       6.739  14.562  21.556  0.00  0.00    +0.000 C 
ATOM      7  N   UNL     1       7.216  14.986  20.266  0.00  0.00    +0.000 N 
ATOM      8  C   UNL     1       8.295  14.479  19.654  0.00  0.00    +0.000 A 
ATOM      9  N   UNL     1       9.036  15.101  18.764  0.00  0.00    +0.000 NA
ATOM     10  C   UNL     1       9.870  14.133  18.299  0.00  0.00    +0.000 A 
ATOM     11  C   UNL     1      10.845  14.192  17.301  0.00  0.00    +0.000 A 
ATOM     12  C   UNL     1      11.537  13.017  16.993  0.00  0.00    +0.000 A 
ATOM     13  C   UNL     1      11.265  11.822  17.674  0.00  0.00    +0.000 A 
ATOM     14  C   UNL     1      10.301  11.755  18.691  0.00  0.00    +0.000 A 
ATOM     15  C   UNL     1       9.626  12.940  18.957  0.00  0.00    +0.000 A 
ATOM     16  O   UNL     1       8.619  13.163  19.858  0.00  0.00    +0.000 OA
ATOM     17  C   UNL     1       6.917  16.390  20.056  0.00  0.00    +0.000 C 
ATOM     18  C   UNL     1       5.597  16.603  20.795  0.00  0.00    +0.000 C 
ATOM     19  C   UNL     1       4.393  16.631  19.854  0.00  0.00    +0.000 C 
ENDROOT
BRANCH   2  20
ATOM     20  C   UNL     1       2.227  13.567  18.962  0.00  0.00    +0.000 A 
ATOM     21  C   UNL     1       2.693  12.501  18.166  0.00  0.00    +0.000 A 
ATOM     22  C   UNL     1       2.030  11.281  18.083  0.00  0.00    +0.000 A 
ATOM     23  C   UNL     1       0.946  11.045  18.903  0.00  0.00    +0.000 A 
ATOM     24  C   UNL     1       0.552  12.028  19.810  0.00  0.00    +0.000 A 
ATOM     25  C   UNL     1       1.169  13.303  19.861  0.00  0.00    +0.000 A 
BRANCH  25  26
ATOM     26  C   UNL     1       0.654  14.200  20.901  0.00  0.00    +0.000 A 
ATOM     27  N   UNL     1       0.873  14.076  22.201  0.00  0.00    +0.000 NA
ATOM     28  N   UNL     1       0.211  15.083  22.861  0.00  0.00    +0.000 NA
ATOM     29  C   UNL     1      -0.415  15.796  21.957  0.00  0.00    +0.000 A 
ATOM     30  N   UNL     1      -0.186  15.269  20.724  0.00  0.00    +0.000 N 
ATOM     31  H   UNL     1      -0.504  15.637  19.840  0.00  0.00    +0.000 HD
ENDBRANCH  25  26
ENDBRANCH   2  20
TORSDOF 2
ENDMDL
MODEL 9
REMARK VINA RESULT:      -6.7      4.627      7.390
REMARK  Name = 
REMARK  2 active torsions:
REMARK  status: ('A' for Active; 'I' for Inactive)
REMARK    1  A    between atoms: C_2  and  C_3
REMARK    2  A    between atoms: C_8  and  C_9
REMARK                            x       y       z     vdW  Elec       q    Type
REMARK                         _______ _______ _______ _____ _____    ______ ____
ROOT
ATOM      1  O   UNL     1       7.213  15.152  22.692  0.00  0.00    +0.000 OA
ATOM      2  C   UNL     1       7.404  14.807  21.530  0.00  0.00    +0.000 C 
ATOM      3  N   UNL     1       6.665  15.383  20.486  0.00  0.00    +0.000 N 
ATOM      4  C   UNL     1       6.676  15.078  19.063  0.00  0.00    +0.000 C 
ATOM      5  C   UNL     1       5.495  15.794  18.417  0.00  0.00    +0.000 C 
ATOM      6  C   UNL     1       4.428  14.805  17.935  0.00  0.00    +0.000 C 
ATOM      7  N   UNL     1       3.612  14.662  19.111  0.00  0.00    +0.000 N 
ATOM      8  C   UNL     1       2.593  13.798  19.226  0.00  0.00    +0.000 A 
ATOM      9  N   UNL     1       1.558  13.933  20.024  0.00  0.00    +0.000 NA
ATOM     10  C   UNL     1       0.917  12.736  19.933  0.00  0.00    +0.000 A 
ATOM     11  C   UNL     1      -0.221  12.276  20.597  0.00  0.00    +0.000 A 
ATOM     12  C   UNL     1      -0.644  10.968  20.339  0.00  0.00    +0.000 A 
ATOM     13  C   UNL     1       0.049  10.153  19.434  0.00  0.00    +0.000 A 
ATOM     14  C   UNL     1       1.183  10.611  18.745  0.00  0.00    +0.000 A 
ATOM     15  C   UNL     1       1.579  11.911  19.040  0.00  0.00    +0.000 A 
ATOM     16  O   UNL     1       2.658  12.602  18.557  0.00  0.00    +0.000 OA
ATOM     17  C   UNL     1       3.501  15.932  19.805  0.00  0.00    +0.000 C 
ATOM     18  C   UNL     1       4.846  16.611  19.552  0.00  0.00    +0.000 C 
ATOM     19  C   UNL     1       5.791  16.510  20.748  0.00  0.00    +0.000 C 
ENDROOT
BRANCH   2  20
ATOM     20  C   UNL     1       8.431  13.741  21.239  0.00  0.00    +0.000 A 
ATOM     21  C   UNL     1       9.460  14.042  20.324  0.00  0.00    +0.000 A 
ATOM     22  C   UNL     1      10.378  13.091  19.888  0.00  0.00    +0.000 A 
ATOM     23  C   UNL     1      10.373  11.836  20.461  0.00  0.00    +0.000 A 
ATOM     24  C   UNL     1       9.460  11.556  21.477  0.00  0.00    +0.000 A 
ATOM     25  C   UNL     1       8.472  12.486  21.886  0.00  0.00    +0.000 A 
BRANCH  25  26
ATOM     26  C   UNL     1       7.621  12.039  22.995  0.00  0.00    +0.000 A 
ATOM     27  N   UNL     1       8.024  11.325  24.035  0.00  0.00    +0.000 NA
ATOM     28  N   UNL     1       6.946  11.078  24.849  0.00  0.00    +0.000 NA
ATOM     29  C   UNL     1       5.898  11.628  24.286  0.00  0.00    +0.000 A 
ATOM     30  N   UNL     1       6.268  12.219  23.117  0.00  0.00    +0.000 N 
ATOM     31  H   UNL     1       5.679  12.756  22.498  0.00  0.00    +0.000 HD
ENDBRANCH  25  26
ENDBRANCH   2  20
TORSDOF 2
ENDMDL
