MODEL 1
REMARK VINA RESULT:      -8.2      0.000      0.000
REMARK  Name = 
REMARK  10 active torsions:
REMARK  status: ('A' for Active; 'I' for Inactive)
REMARK    1  A    between atoms: C_1  and  C_2
REMARK    2  A    between atoms: C_7  and  C_8
REMARK    3  A    between atoms: C_7  and  C_9
REMARK    4  A    between atoms: C_9  and  C_10
REMARK    5  A    between atoms: C_10  and  C_11
REMARK    6  A    between atoms: C_11  and  C_12
REMARK    7  A    between atoms: C_14  and  C_15
REMARK    8  A    between atoms: C_15  and  O_17
REMARK    9  A    between atoms: C_18  and  C_19
REMARK   10  A    between atoms: C_22  and  C_23
REMARK                            x       y       z     vdW  Elec       q    Type
REMARK                         _______ _______ _______ _____ _____    ______ ____
ROOT
ATOM      1  C   UNL     1       1.242   2.576  21.681  0.00  0.00    +0.000 C 
ATOM      2  C   UNL     1       1.137   3.340  20.364  0.00  0.00    +0.000 C 
ATOM      3  C   UNL     1       0.777   2.550  19.327  0.00  0.00    +0.000 C 
ATOM      4  C   UNL     1       1.027   2.835  17.888  0.00  0.00    +0.000 C 
ATOM      5  C   UNL     1       2.338   3.609  17.736  0.00  0.00    +0.000 C 
ATOM      6  C   UNL     1       2.242   4.871  18.585  0.00  0.00    +0.000 C 
ATOM      7  C   UNL     1       3.343   5.963  18.352  0.00  0.00    +0.000 C 
ATOM      8  C   UNL     1       4.484   5.393  19.263  0.00  0.00    +0.000 C 
ATOM      9  C   UNL     1       2.415   7.247  18.631  0.00  0.00    +0.000 C 
ATOM     10  C   UNL     1       2.388   8.498  17.732  0.00  0.00    +0.000 C 
ATOM     11  C   UNL     1       2.017   7.379  20.095  0.00  0.00    +0.000 C 
ATOM     12  C   UNL     1       1.078   6.148  20.465  0.00  0.00    +0.000 C 
ATOM     13  C   UNL     1       1.814   4.749  20.200  0.00  0.00    +0.000 C 
ATOM     14  C   UNL     1       2.815   4.824  21.424  0.00  0.00    +0.000 C 
ENDROOT
BRANCH   7  15
ATOM     15  C   UNL     1       4.150   6.226  17.037  0.00  0.00    +0.000 C 
BRANCH  15  16
ATOM     16  C   UNL     1       5.635   6.604  17.422  0.00  0.00    +0.000 C 
BRANCH  16  17
ATOM     17  C   UNL     1       6.694   5.591  17.138  0.00  0.00    +0.000 C 
ATOM     18  C   UNL     1       7.743   5.288  17.924  0.00  0.00    +0.000 C 
BRANCH  17  19
ATOM     19  C   UNL     1       6.686   5.009  15.769  0.00  0.00    +0.000 C 
ATOM     20  O   UNL     1       7.443   5.384  14.881  0.00  0.00    +0.000 OA
ENDBRANCH  17  19
BRANCH  18  21
ATOM     21  C   UNL     1       8.012   5.852  19.270  0.00  0.00    +0.000 C 
ATOM     22  O   UNL     1       7.749   5.270  20.310  0.00  0.00    +0.000 OA
BRANCH  21  23
ATOM     23  O   UNL     1       8.562   7.068  19.201  0.00  0.00    +0.000 OA
ATOM     24  H   UNL     1       7.963   7.828  19.282  0.00  0.00    +0.000 HD
ENDBRANCH  21  23
ENDBRANCH  18  21
ENDBRANCH  16  17
ENDBRANCH  15  16
ENDBRANCH   7  15
TORSDOF 6
ENDMDL
MODEL 2
REMARK VINA RESULT:      -7.7      2.421      4.037
REMARK  Name = 
REMARK  10 active torsions:
REMARK  status: ('A' for Active; 'I' for Inactive)
REMARK    1  A    between atoms: C_1  and  C_2
REMARK    2  A    between atoms: C_7  and  C_8
REMARK    3  A    between atoms: C_7  and  C_9
REMARK    4  A    between atoms: C_9  and  C_10
REMARK    5  A    between atoms: C_10  and  C_11
REMARK    6  A    between atoms: C_11  and  C_12
REMARK    7  A    between atoms: C_14  and  C_15
REMARK    8  A    between atoms: C_15  and  O_17
REMARK    9  A    between atoms: C_18  and  C_19
REMARK   10  A    between atoms: C_22  and  C_23
REMARK                            x       y       z     vdW  Elec       q    Type
REMARK                         _______ _______ _______ _____ _____    ______ ____
ROOT
ATOM      1  C   UNL     1       1.290   3.662  20.712  0.00  0.00    +0.000 C 
ATOM      2  C   UNL     1       1.779   3.712  19.267  0.00  0.00    +0.000 C 
ATOM      3  C   UNL     1       1.578   2.550  18.605  0.00  0.00    +0.000 C 
ATOM      4  C   UNL     1       2.319   2.098  17.396  0.00  0.00    +0.000 C 
ATOM      5  C   UNL     1       3.757   2.616  17.448  0.00  0.00    +0.000 C 
ATOM      6  C   UNL     1       3.707   4.133  17.584  0.00  0.00    +0.000 C 
ATOM      7  C   UNL     1       5.053   4.906  17.357  0.00  0.00    +0.000 C 
ATOM      8  C   UNL     1       5.689   4.763  18.782  0.00  0.00    +0.000 C 
ATOM      9  C   UNL     1       4.417   6.227  16.695  0.00  0.00    +0.000 C 
ATOM     10  C   UNL     1       4.965   6.898  15.420  0.00  0.00    +0.000 C 
ATOM     11  C   UNL     1       3.631   7.066  17.693  0.00  0.00    +0.000 C 
ATOM     12  C   UNL     1       2.361   6.226  18.154  0.00  0.00    +0.000 C 
ATOM     13  C   UNL     1       2.788   4.823  18.802  0.00  0.00    +0.000 C 
ATOM     14  C   UNL     1       3.352   5.405  20.161  0.00  0.00    +0.000 C 
ENDROOT
BRANCH   7  15
ATOM     15  C   UNL     1       6.263   4.456  16.471  0.00  0.00    +0.000 C 
BRANCH  15  16
ATOM     16  C   UNL     1       5.731   4.125  15.020  0.00  0.00    +0.000 C 
BRANCH  16  17
ATOM     17  C   UNL     1       6.652   4.394  13.877  0.00  0.00    +0.000 C 
ATOM     18  C   UNL     1       6.554   3.889  12.634  0.00  0.00    +0.000 C 
BRANCH  17  19
ATOM     19  C   UNL     1       7.898   5.136  14.207  0.00  0.00    +0.000 C 
ATOM     20  O   UNL     1       8.511   5.809  13.386  0.00  0.00    +0.000 OA
ENDBRANCH  17  19
BRANCH  18  21
ATOM     21  C   UNL     1       5.462   3.018  12.133  0.00  0.00    +0.000 C 
ATOM     22  O   UNL     1       4.312   3.398  11.980  0.00  0.00    +0.000 OA
BRANCH  21  23
ATOM     23  O   UNL     1       5.887   1.776  11.884  0.00  0.00    +0.000 OA
ATOM     24  H   UNL     1       6.672   1.473  12.368  0.00  0.00    +0.000 HD
ENDBRANCH  21  23
ENDBRANCH  18  21
ENDBRANCH  16  17
ENDBRANCH  15  16
ENDBRANCH   7  15
TORSDOF 6
ENDMDL
MODEL 3
REMARK VINA RESULT:      -7.6      0.966      1.270
REMARK  Name = 
REMARK  10 active torsions:
REMARK  status: ('A' for Active; 'I' for Inactive)
REMARK    1  A    between atoms: C_1  and  C_2
REMARK    2  A    between atoms: C_7  and  C_8
REMARK    3  A    between atoms: C_7  and  C_9
REMARK    4  A    between atoms: C_9  and  C_10
REMARK    5  A    between atoms: C_10  and  C_11
REMARK    6  A    between atoms: C_11  and  C_12
REMARK    7  A    between atoms: C_14  and  C_15
REMARK    8  A    between atoms: C_15  and  O_17
REMARK    9  A    between atoms: C_18  and  C_19
REMARK   10  A    between atoms: C_22  and  C_23
REMARK                            x       y       z     vdW  Elec       q    Type
REMARK                         _______ _______ _______ _____ _____    ______ ____
ROOT
ATOM      1  C   UNL     1       1.175   2.533  21.822  0.00  0.00    +0.000 C 
ATOM      2  C   UNL     1       1.106   3.249  20.476  0.00  0.00    +0.000 C 
ATOM      3  C   UNL     1       0.712   2.437  19.469  0.00  0.00    +0.000 C 
ATOM      4  C   UNL     1       0.977   2.655  18.021  0.00  0.00    +0.000 C 
ATOM      5  C   UNL     1       2.322   3.362  17.843  0.00  0.00    +0.000 C 
ATOM      6  C   UNL     1       2.282   4.658  18.643  0.00  0.00    +0.000 C 
ATOM      7  C   UNL     1       3.432   5.690  18.371  0.00  0.00    +0.000 C 
ATOM      8  C   UNL     1       4.545   5.104  19.307  0.00  0.00    +0.000 C 
ATOM      9  C   UNL     1       2.563   7.024  18.598  0.00  0.00    +0.000 C 
ATOM     10  C   UNL     1       2.595   8.240  17.651  0.00  0.00    +0.000 C 
ATOM     11  C   UNL     1       2.169   7.231  20.054  0.00  0.00    +0.000 C 
ATOM     12  C   UNL     1       1.176   6.059  20.468  0.00  0.00    +0.000 C 
ATOM     13  C   UNL     1       1.847   4.618  20.260  0.00  0.00    +0.000 C 
ATOM     14  C   UNL     1       2.849   4.696  21.483  0.00  0.00    +0.000 C 
ENDROOT
BRANCH   7  15
ATOM     15  C   UNL     1       4.252   5.865  17.049  0.00  0.00    +0.000 C 
BRANCH  15  16
ATOM     16  C   UNL     1       4.934   4.485  16.691  0.00  0.00    +0.000 C 
BRANCH  16  17
ATOM     17  C   UNL     1       6.250   4.536  15.988  0.00  0.00    +0.000 C 
ATOM     18  C   UNL     1       7.397   5.046  16.473  0.00  0.00    +0.000 C 
BRANCH  17  19
ATOM     19  C   UNL     1       6.232   4.162  14.549  0.00  0.00    +0.000 C 
ATOM     20  O   UNL     1       5.215   4.193  13.865  0.00  0.00    +0.000 OA
ENDBRANCH  17  19
BRANCH  18  21
ATOM     21  C   UNL     1       7.597   5.594  17.837  0.00  0.00    +0.000 C 
ATOM     22  O   UNL     1       7.483   6.777  18.113  0.00  0.00    +0.000 OA
BRANCH  21  23
ATOM     23  O   UNL     1       7.927   4.641  18.714  0.00  0.00    +0.000 OA
ATOM     24  H   UNL     1       8.685   4.819  19.295  0.00  0.00    +0.000 HD
ENDBRANCH  21  23
ENDBRANCH  18  21
ENDBRANCH  16  17
ENDBRANCH  15  16
ENDBRANCH   7  15
TORSDOF 6
ENDMDL
MODEL 4
REMARK VINA RESULT:      -7.4      1.395      2.471
REMARK  Name = 
REMARK  10 active torsions:
REMARK  status: ('A' for Active; 'I' for Inactive)
REMARK    1  A    between atoms: C_1  and  C_2
REMARK    2  A    between atoms: C_7  and  C_8
REMARK    3  A    between atoms: C_7  and  C_9
REMARK    4  A    between atoms: C_9  and  C_10
REMARK    5  A    between atoms: C_10  and  C_11
REMARK    6  A    between atoms: C_11  and  C_12
REMARK    7  A    between atoms: C_14  and  C_15
REMARK    8  A    between atoms: C_15  and  O_17
REMARK    9  A    between atoms: C_18  and  C_19
REMARK   10  A    between atoms: C_22  and  C_23
REMARK                            x       y       z     vdW  Elec       q    Type
REMARK                         _______ _______ _______ _____ _____    ______ ____
ROOT
ATOM      1  C   UNL     1       1.167   2.513  21.743  0.00  0.00    +0.000 C 
ATOM      2  C   UNL     1       1.102   3.297  20.434  0.00  0.00    +0.000 C 
ATOM      3  C   UNL     1       0.791   2.520  19.373  0.00  0.00    +0.000 C 
ATOM      4  C   UNL     1       1.091   2.831  17.949  0.00  0.00    +0.000 C 
ATOM      5  C   UNL     1       2.397   3.622  17.858  0.00  0.00    +0.000 C 
ATOM      6  C   UNL     1       2.254   4.868  18.723  0.00  0.00    +0.000 C 
ATOM      7  C   UNL     1       3.351   5.976  18.548  0.00  0.00    +0.000 C 
ATOM      8  C   UNL     1       4.463   5.405  19.493  0.00  0.00    +0.000 C 
ATOM      9  C   UNL     1       2.398   7.245  18.812  0.00  0.00    +0.000 C 
ATOM     10  C   UNL     1       2.390   8.510  17.932  0.00  0.00    +0.000 C 
ATOM     11  C   UNL     1       1.944   7.349  20.262  0.00  0.00    +0.000 C 
ATOM     12  C   UNL     1       1.007   6.103  20.577  0.00  0.00    +0.000 C 
ATOM     13  C   UNL     1       1.768   4.716  20.318  0.00  0.00    +0.000 C 
ATOM     14  C   UNL     1       2.721   4.783  21.580  0.00  0.00    +0.000 C 
ENDROOT
BRANCH   7  15
ATOM     15  C   UNL     1       4.203   6.269  17.268  0.00  0.00    +0.000 C 
BRANCH  15  16
ATOM     16  C   UNL     1       5.626   5.605  17.445  0.00  0.00    +0.000 C 
BRANCH  16  17
ATOM     17  C   UNL     1       6.651   5.897  16.401  0.00  0.00    +0.000 C 
ATOM     18  C   UNL     1       6.850   5.211  15.261  0.00  0.00    +0.000 C 
BRANCH  17  19
ATOM     19  C   UNL     1       7.667   6.923  16.758  0.00  0.00    +0.000 C 
ATOM     20  O   UNL     1       7.373   8.025  17.207  0.00  0.00    +0.000 OA
ENDBRANCH  17  19
BRANCH  18  21
ATOM     21  C   UNL     1       6.034   4.070  14.779  0.00  0.00    +0.000 C 
ATOM     22  O   UNL     1       5.311   4.123  13.797  0.00  0.00    +0.000 OA
BRANCH  21  23
ATOM     23  O   UNL     1       6.177   2.991  15.554  0.00  0.00    +0.000 OA
ATOM     24  H   UNL     1       6.693   3.099  16.370  0.00  0.00    +0.000 HD
ENDBRANCH  21  23
ENDBRANCH  18  21
ENDBRANCH  16  17
ENDBRANCH  15  16
ENDBRANCH   7  15
TORSDOF 6
ENDMDL
MODEL 5
REMARK VINA RESULT:      -7.3      0.663      2.195
REMARK  Name = 
REMARK  10 active torsions:
REMARK  status: ('A' for Active; 'I' for Inactive)
REMARK    1  A    between atoms: C_1  and  C_2
REMARK    2  A    between atoms: C_7  and  C_8
REMARK    3  A    between atoms: C_7  and  C_9
REMARK    4  A    between atoms: C_9  and  C_10
REMARK    5  A    between atoms: C_10  and  C_11
REMARK    6  A    between atoms: C_11  and  C_12
REMARK    7  A    between atoms: C_14  and  C_15
REMARK    8  A    between atoms: C_15  and  O_17
REMARK    9  A    between atoms: C_18  and  C_19
REMARK   10  A    between atoms: C_22  and  C_23
REMARK                            x       y       z     vdW  Elec       q    Type
REMARK                         _______ _______ _______ _____ _____    ______ ____
ROOT
ATOM      1  C   UNL     1       1.227   2.512  21.731  0.00  0.00    +0.000 C 
ATOM      2  C   UNL     1       1.200   3.226  20.383  0.00  0.00    +0.000 C 
ATOM      3  C   UNL     1       0.894   2.400  19.358  0.00  0.00    +0.000 C 
ATOM      4  C   UNL     1       1.227   2.630  17.925  0.00  0.00    +0.000 C 
ATOM      5  C   UNL     1       2.549   3.391  17.818  0.00  0.00    +0.000 C 
ATOM      6  C   UNL     1       2.413   4.685  18.613  0.00  0.00    +0.000 C 
ATOM      7  C   UNL     1       3.533   5.763  18.402  0.00  0.00    +0.000 C 
ATOM      8  C   UNL     1       4.617   5.223  19.397  0.00  0.00    +0.000 C 
ATOM      9  C   UNL     1       2.598   7.060  18.580  0.00  0.00    +0.000 C 
ATOM     10  C   UNL     1       2.630   8.277  17.635  0.00  0.00    +0.000 C 
ATOM     11  C   UNL     1       2.119   7.249  20.013  0.00  0.00    +0.000 C 
ATOM     12  C   UNL     1       1.154   6.037  20.376  0.00  0.00    +0.000 C 
ATOM     13  C   UNL     1       1.894   4.625  20.205  0.00  0.00    +0.000 C 
ATOM     14  C   UNL     1       2.825   4.743  21.479  0.00  0.00    +0.000 C 
ENDROOT
BRANCH   7  15
ATOM     15  C   UNL     1       4.413   5.973  17.125  0.00  0.00    +0.000 C 
BRANCH  15  16
ATOM     16  C   UNL     1       5.741   6.720  17.544  0.00  0.00    +0.000 C 
BRANCH  16  17
ATOM     17  C   UNL     1       6.984   5.901  17.646  0.00  0.00    +0.000 C 
ATOM     18  C   UNL     1       7.380   4.940  16.791  0.00  0.00    +0.000 C 
BRANCH  17  19
ATOM     19  C   UNL     1       7.747   6.032  18.916  0.00  0.00    +0.000 C 
ATOM     20  O   UNL     1       8.364   5.101  19.422  0.00  0.00    +0.000 OA
ENDBRANCH  17  19
BRANCH  18  21
ATOM     21  C   UNL     1       6.694   4.558  15.533  0.00  0.00    +0.000 C 
ATOM     22  O   UNL     1       5.996   3.563  15.420  0.00  0.00    +0.000 OA
BRANCH  21  23
ATOM     23  O   UNL     1       6.943   5.423  14.545  0.00  0.00    +0.000 OA
ATOM     24  H   UNL     1       6.672   5.161  13.650  0.00  0.00    +0.000 HD
ENDBRANCH  21  23
ENDBRANCH  18  21
ENDBRANCH  16  17
ENDBRANCH  15  16
ENDBRANCH   7  15
TORSDOF 6
ENDMDL
MODEL 6
REMARK VINA RESULT:      -7.3      1.043      1.329
REMARK  Name = 
REMARK  10 active torsions:
REMARK  status: ('A' for Active; 'I' for Inactive)
REMARK    1  A    between atoms: C_1  and  C_2
REMARK    2  A    between atoms: C_7  and  C_8
REMARK    3  A    between atoms: C_7  and  C_9
REMARK    4  A    between atoms: C_9  and  C_10
REMARK    5  A    between atoms: C_10  and  C_11
REMARK    6  A    between atoms: C_11  and  C_12
REMARK    7  A    between atoms: C_14  and  C_15
REMARK    8  A    between atoms: C_15  and  O_17
REMARK    9  A    between atoms: C_18  and  C_19
REMARK   10  A    between atoms: C_22  and  C_23
REMARK                            x       y       z     vdW  Elec       q    Type
REMARK                         _______ _______ _______ _____ _____    ______ ____
ROOT
ATOM      1  C   UNL     1       1.274   2.472  21.846  0.00  0.00    +0.000 C 
ATOM      2  C   UNL     1       1.123   3.242  20.537  0.00  0.00    +0.000 C 
ATOM      3  C   UNL     1       0.745   2.453  19.506  0.00  0.00    +0.000 C 
ATOM      4  C   UNL     1       0.952   2.750  18.063  0.00  0.00    +0.000 C 
ATOM      5  C   UNL     1       2.248   3.541  17.879  0.00  0.00    +0.000 C 
ATOM      6  C   UNL     1       2.159   4.797  18.738  0.00  0.00    +0.000 C 
ATOM      7  C   UNL     1       3.240   5.904  18.481  0.00  0.00    +0.000 C 
ATOM      8  C   UNL     1       4.413   5.344  19.357  0.00  0.00    +0.000 C 
ATOM      9  C   UNL     1       2.304   7.175  18.793  0.00  0.00    +0.000 C 
ATOM     10  C   UNL     1       2.237   8.430  17.903  0.00  0.00    +0.000 C 
ATOM     11  C   UNL     1       1.944   7.293  20.268  0.00  0.00    +0.000 C 
ATOM     12  C   UNL     1       1.032   6.049  20.657  0.00  0.00    +0.000 C 
ATOM     13  C   UNL     1       1.778   4.660  20.363  0.00  0.00    +0.000 C 
ATOM     14  C   UNL     1       2.811   4.742  21.559  0.00  0.00    +0.000 C 
ENDROOT
BRANCH   7  15
ATOM     15  C   UNL     1       4.007   6.185  17.146  0.00  0.00    +0.000 C 
BRANCH  15  16
ATOM     16  C   UNL     1       5.304   7.026  17.475  0.00  0.00    +0.000 C 
BRANCH  16  17
ATOM     17  C   UNL     1       6.601   6.519  16.939  0.00  0.00    +0.000 C 
ATOM     18  C   UNL     1       7.816   7.061  17.140  0.00  0.00    +0.000 C 
BRANCH  17  19
ATOM     19  C   UNL     1       6.506   5.427  15.934  0.00  0.00    +0.000 C 
ATOM     20  O   UNL     1       6.858   4.276  16.164  0.00  0.00    +0.000 OA
ENDBRANCH  17  19
BRANCH  18  21
ATOM     21  C   UNL     1       8.114   8.233  18.000  0.00  0.00    +0.000 C 
ATOM     22  O   UNL     1       7.812   9.379  17.708  0.00  0.00    +0.000 OA
BRANCH  21  23
ATOM     23  O   UNL     1       8.761   7.882  19.115  0.00  0.00    +0.000 OA
ATOM     24  H   UNL     1       9.305   8.563  19.543  0.00  0.00    +0.000 HD
ENDBRANCH  21  23
ENDBRANCH  18  21
ENDBRANCH  16  17
ENDBRANCH  15  16
ENDBRANCH   7  15
TORSDOF 6
ENDMDL
MODEL 7
REMARK VINA RESULT:      -7.0      2.650      4.806
REMARK  Name = 
REMARK  10 active torsions:
REMARK  status: ('A' for Active; 'I' for Inactive)
REMARK    1  A    between atoms: C_1  and  C_2
REMARK    2  A    between atoms: C_7  and  C_8
REMARK    3  A    between atoms: C_7  and  C_9
REMARK    4  A    between atoms: C_9  and  C_10
REMARK    5  A    between atoms: C_10  and  C_11
REMARK    6  A    between atoms: C_11  and  C_12
REMARK    7  A    between atoms: C_14  and  C_15
REMARK    8  A    between atoms: C_15  and  O_17
REMARK    9  A    between atoms: C_18  and  C_19
REMARK   10  A    between atoms: C_22  and  C_23
REMARK                            x       y       z     vdW  Elec       q    Type
REMARK                         _______ _______ _______ _____ _____    ______ ____
ROOT
ATOM      1  C   UNL     1       2.403   3.985  21.048  0.00  0.00    +0.000 C 
ATOM      2  C   UNL     1       2.976   5.078  20.149  0.00  0.00    +0.000 C 
ATOM      3  C   UNL     1       2.063   6.019  19.822  0.00  0.00    +0.000 C 
ATOM      4  C   UNL     1       2.130   6.924  18.642  0.00  0.00    +0.000 C 
ATOM      5  C   UNL     1       2.816   6.205  17.480  0.00  0.00    +0.000 C 
ATOM      6  C   UNL     1       4.189   5.745  17.956  0.00  0.00    +0.000 C 
ATOM      7  C   UNL     1       5.189   5.251  16.852  0.00  0.00    +0.000 C 
ATOM      8  C   UNL     1       4.705   3.768  16.695  0.00  0.00    +0.000 C 
ATOM      9  C   UNL     1       6.538   5.773  17.555  0.00  0.00    +0.000 C 
ATOM     10  C   UNL     1       7.649   6.544  16.815  0.00  0.00    +0.000 C 
ATOM     11  C   UNL     1       6.894   4.983  18.807  0.00  0.00    +0.000 C 
ATOM     12  C   UNL     1       5.770   5.256  19.900  0.00  0.00    +0.000 C 
ATOM     13  C   UNL     1       4.316   4.845  19.362  0.00  0.00    +0.000 C 
ATOM     14  C   UNL     1       4.522   3.277  19.435  0.00  0.00    +0.000 C 
ENDROOT
BRANCH   7  15
ATOM     15  C   UNL     1       5.227   5.686  15.349  0.00  0.00    +0.000 C 
BRANCH  15  16
ATOM     16  C   UNL     1       5.422   4.398  14.455  0.00  0.00    +0.000 C 
BRANCH  16  17
ATOM     17  C   UNL     1       6.456   4.462  13.380  0.00  0.00    +0.000 C 
ATOM     18  C   UNL     1       6.491   3.721  12.258  0.00  0.00    +0.000 C 
BRANCH  17  19
ATOM     19  C   UNL     1       7.658   5.284  13.684  0.00  0.00    +0.000 C 
ATOM     20  O   UNL     1       8.405   5.719  12.814  0.00  0.00    +0.000 OA
ENDBRANCH  17  19
BRANCH  18  21
ATOM     21  C   UNL     1       5.460   2.743  11.829  0.00  0.00    +0.000 C 
ATOM     22  O   UNL     1       4.318   3.053  11.531  0.00  0.00    +0.000 OA
BRANCH  21  23
ATOM     23  O   UNL     1       5.931   1.493  11.822  0.00  0.00    +0.000 OA
ATOM     24  H   UNL     1       6.868   1.373  12.046  0.00  0.00    +0.000 HD
ENDBRANCH  21  23
ENDBRANCH  18  21
ENDBRANCH  16  17
ENDBRANCH  15  16
ENDBRANCH   7  15
TORSDOF 6
ENDMDL
MODEL 8
REMARK VINA RESULT:      -7.0      2.826      4.458
REMARK  Name = 
REMARK  10 active torsions:
REMARK  status: ('A' for Active; 'I' for Inactive)
REMARK    1  A    between atoms: C_1  and  C_2
REMARK    2  A    between atoms: C_7  and  C_8
REMARK    3  A    between atoms: C_7  and  C_9
REMARK    4  A    between atoms: C_9  and  C_10
REMARK    5  A    between atoms: C_10  and  C_11
REMARK    6  A    between atoms: C_11  and  C_12
REMARK    7  A    between atoms: C_14  and  C_15
REMARK    8  A    between atoms: C_15  and  O_17
REMARK    9  A    between atoms: C_18  and  C_19
REMARK   10  A    between atoms: C_22  and  C_23
REMARK                            x       y       z     vdW  Elec       q    Type
REMARK                         _______ _______ _______ _____ _____    ______ ____
ROOT
ATOM      1  C   UNL     1       2.545   2.538  21.049  0.00  0.00    +0.000 C 
ATOM      2  C   UNL     1       2.520   3.577  19.931  0.00  0.00    +0.000 C 
ATOM      3  C   UNL     1       1.302   3.700  19.357  0.00  0.00    +0.000 C 
ATOM      4  C   UNL     1       1.032   4.238  17.997  0.00  0.00    +0.000 C 
ATOM      5  C   UNL     1       2.195   3.893  17.065  0.00  0.00    +0.000 C 
ATOM      6  C   UNL     1       3.473   4.448  17.682  0.00  0.00    +0.000 C 
ATOM      7  C   UNL     1       4.744   4.478  16.763  0.00  0.00    +0.000 C 
ATOM      8  C   UNL     1       5.248   3.006  16.954  0.00  0.00    +0.000 C 
ATOM      9  C   UNL     1       5.394   5.822  17.362  0.00  0.00    +0.000 C 
ATOM     10  C   UNL     1       5.956   6.964  16.494  0.00  0.00    +0.000 C 
ATOM     11  C   UNL     1       5.922   5.640  18.779  0.00  0.00    +0.000 C 
ATOM     12  C   UNL     1       4.682   5.362  19.736  0.00  0.00    +0.000 C 
ATOM     13  C   UNL     1       3.856   4.070  19.268  0.00  0.00    +0.000 C 
ATOM     14  C   UNL     1       4.919   2.989  19.724  0.00  0.00    +0.000 C 
ENDROOT
BRANCH   7  15
ATOM     15  C   UNL     1       4.779   4.578  15.202  0.00  0.00    +0.000 C 
BRANCH  15  16
ATOM     16  C   UNL     1       5.974   3.694  14.665  0.00  0.00    +0.000 C 
BRANCH  16  17
ATOM     17  C   UNL     1       6.662   4.156  13.423  0.00  0.00    +0.000 C 
ATOM     18  C   UNL     1       6.430   3.720  12.172  0.00  0.00    +0.000 C 
BRANCH  17  19
ATOM     19  C   UNL     1       7.843   5.036  13.624  0.00  0.00    +0.000 C 
ATOM     20  O   UNL     1       8.173   5.903  12.823  0.00  0.00    +0.000 OA
ENDBRANCH  17  19
BRANCH  18  21
ATOM     21  C   UNL     1       5.388   2.744  11.769  0.00  0.00    +0.000 C 
ATOM     22  O   UNL     1       4.239   3.056  11.500  0.00  0.00    +0.000 OA
BRANCH  21  23
ATOM     23  O   UNL     1       5.855   1.492  11.751  0.00  0.00    +0.000 OA
ATOM     24  H   UNL     1       6.811   1.380  11.617  0.00  0.00    +0.000 HD
ENDBRANCH  21  23
ENDBRANCH  18  21
ENDBRANCH  16  17
ENDBRANCH  15  16
ENDBRANCH   7  15
TORSDOF 6
ENDMDL
MODEL 9
REMARK VINA RESULT:      -6.9      2.333      4.663
REMARK  Name = 
REMARK  10 active torsions:
REMARK  status: ('A' for Active; 'I' for Inactive)
REMARK    1  A    between atoms: C_1  and  C_2
REMARK    2  A    between atoms: C_7  and  C_8
REMARK    3  A    between atoms: C_7  and  C_9
REMARK    4  A    between atoms: C_9  and  C_10
REMARK    5  A    between atoms: C_10  and  C_11
REMARK    6  A    between atoms: C_11  and  C_12
REMARK    7  A    between atoms: C_14  and  C_15
REMARK    8  A    between atoms: C_15  and  O_17
REMARK    9  A    between atoms: C_18  and  C_19
REMARK   10  A    between atoms: C_22  and  C_23
REMARK                            x       y       z     vdW  Elec       q    Type
REMARK                         _______ _______ _______ _____ _____    ______ ____
ROOT
ATOM      1  C   UNL     1       0.824   4.114  20.733  0.00  0.00    +0.000 C 
ATOM      2  C   UNL     1       1.967   4.977  20.205  0.00  0.00    +0.000 C 
ATOM      3  C   UNL     1       1.634   6.283  20.106  0.00  0.00    +0.000 C 
ATOM      4  C   UNL     1       2.299   7.286  19.230  0.00  0.00    +0.000 C 
ATOM      5  C   UNL     1       2.792   6.607  17.951  0.00  0.00    +0.000 C 
ATOM      6  C   UNL     1       3.715   5.462  18.352  0.00  0.00    +0.000 C 
ATOM      7  C   UNL     1       4.572   4.816  17.209  0.00  0.00    +0.000 C 
ATOM      8  C   UNL     1       3.522   3.812  16.620  0.00  0.00    +0.000 C 
ATOM      9  C   UNL     1       5.867   4.470  18.099  0.00  0.00    +0.000 C 
ATOM     10  C   UNL     1       7.314   4.769  17.663  0.00  0.00    +0.000 C 
ATOM     11  C   UNL     1       5.612   3.350  19.098  0.00  0.00    +0.000 C 
ATOM     12  C   UNL     1       4.550   3.868  20.163  0.00  0.00    +0.000 C 
ATOM     13  C   UNL     1       3.183   4.322  19.457  0.00  0.00    +0.000 C 
ATOM     14  C   UNL     1       2.663   2.870  19.100  0.00  0.00    +0.000 C 
ENDROOT
BRANCH   7  15
ATOM     15  C   UNL     1       5.062   5.503  15.890  0.00  0.00    +0.000 C 
BRANCH  15  16
ATOM     16  C   UNL     1       5.210   4.399  14.769  0.00  0.00    +0.000 C 
BRANCH  16  17
ATOM     17  C   UNL     1       6.312   4.574  13.779  0.00  0.00    +0.000 C 
ATOM     18  C   UNL     1       6.434   3.943  12.597  0.00  0.00    +0.000 C 
BRANCH  17  19
ATOM     19  C   UNL     1       7.478   5.375  14.239  0.00  0.00    +0.000 C 
ATOM     20  O   UNL     1       8.431   5.642  13.516  0.00  0.00    +0.000 OA
ENDBRANCH  17  19
BRANCH  18  21
ATOM     21  C   UNL     1       5.450   3.001  12.009  0.00  0.00    +0.000 C 
ATOM     22  O   UNL     1       4.348   3.339  11.606  0.00  0.00    +0.000 OA
BRANCH  21  23
ATOM     23  O   UNL     1       5.911   1.747  11.987  0.00  0.00    +0.000 OA
ATOM     24  H   UNL     1       6.764   1.598  11.547  0.00  0.00    +0.000 HD
ENDBRANCH  21  23
ENDBRANCH  18  21
ENDBRANCH  16  17
ENDBRANCH  15  16
ENDBRANCH   7  15
TORSDOF 6
ENDMDL
