MODEL 1
REMARK VINA RESULT:      -8.4      0.000      0.000
REMARK  Name = 
REMARK  6 active torsions:
REMARK  status: ('A' for Active; 'I' for Inactive)
REMARK    1  A    between atoms: C_1  and  C_2
REMARK    2  A    between atoms: C_5  and  C_6
REMARK    3  A    between atoms: C_7  and  C_8
REMARK    4  A    between atoms: C_14  and  C_15
REMARK    5  A    between atoms: N_23  and  C_24
REMARK    6  A    between atoms: C_31  and  N_32
REMARK                            x       y       z     vdW  Elec       q    Type
REMARK                         _______ _______ _______ _____ _____    ______ ____
ROOT
ATOM      1  C   UNL     1      -0.392  11.752  19.452  0.00  0.00    +0.000 C 
ATOM      2  C   UNL     1      -0.090  10.455  20.254  0.00  0.00    +0.000 C 
ATOM      3  C   UNL     1       0.364  10.902  21.659  0.00  0.00    +0.000 C 
ATOM      4  N   UNL     1       0.323  12.400  21.700  0.00  0.00    +0.000 NA
ATOM      5  C   UNL     1       0.138  12.918  20.330  0.00  0.00    +0.000 C 
ATOM      6  C   UNL     1       1.518  13.442  19.755  0.00  0.00    +0.000 C 
ATOM      7  O   UNL     1       2.604  12.893  19.859  0.00  0.00    +0.000 OA
ATOM      8  N   UNL     1       1.288  14.684  19.163  0.00  0.00    +0.000 N 
ATOM      9  C   UNL     1       2.309  15.505  18.563  0.00  0.00    +0.000 C 
ATOM     10  C   UNL     1       0.021  15.162  19.501  0.00  0.00    +0.000 A 
ATOM     11  C   UNL     1      -0.521  16.403  19.211  0.00  0.00    +0.000 A 
ATOM     12  C   UNL     1      -1.784  16.699  19.720  0.00  0.00    +0.000 A 
ATOM     13  C   UNL     1      -2.452  15.780  20.542  0.00  0.00    +0.000 A 
ATOM     14  C   UNL     1      -1.878  14.541  20.841  0.00  0.00    +0.000 A 
ATOM     15  C   UNL     1      -0.656  14.212  20.273  0.00  0.00    +0.000 A 
ATOM     16  H   UNL     1       1.213  12.744  22.074  0.00  0.00    +0.000 HD
ENDROOT
BRANCH   1  21
ATOM     17  C   UNL     1      -5.366  11.408  18.090  0.00  0.00    +0.000 C 
ATOM     18  C   UNL     1      -4.037  11.663  18.692  0.00  0.00    +0.000 A 
ATOM     19  N   UNL     1      -3.972  12.173  19.929  0.00  0.00    +0.000 NA
ATOM     20  O   UNL     1      -2.637  12.235  20.241  0.00  0.00    +0.000 OA
ATOM     21  C   UNL     1      -1.880  11.793  19.191  0.00  0.00    +0.000 A 
ATOM     22  C   UNL     1      -2.736  11.424  18.173  0.00  0.00    +0.000 A 
BRANCH  22  23
ATOM     23  N   UNL     1      -2.385  10.877  16.904  0.00  0.00    +0.000 N 
ATOM     24  O   UNL     1      -1.862   9.758  16.901  0.00  0.00    +0.000 OA
ATOM     25  O   UNL     1      -2.640  11.556  15.904  0.00  0.00    +0.000 OA
ENDBRANCH  22  23
ENDBRANCH   1  21
BRANCH   2  26
ATOM     26  C   UNL     1       0.855   9.463  19.582  0.00  0.00    +0.000 A 
ATOM     27  C   UNL     1       1.306   9.617  18.265  0.00  0.00    +0.000 A 
ATOM     28  C   UNL     1       2.170   8.690  17.681  0.00  0.00    +0.000 A 
ATOM     29  C   UNL     1       2.620   7.598  18.410  0.00  0.00    +0.000 A 
ATOM     30  C   UNL     1       2.202   7.432  19.728  0.00  0.00    +0.000 A 
ATOM     31  C   UNL     1       1.328   8.357  20.308  0.00  0.00    +0.000 A 
ENDBRANCH   2  26
BRANCH   3  32
ATOM     32  C   UNL     1      -0.468  10.194  22.782  0.00  0.00    +0.000 C 
ATOM     33  F   UNL     1      -1.414  10.987  23.333  0.00  0.00    +0.000 F 
ATOM     34  F   UNL     1      -1.109   9.110  22.283  0.00  0.00    +0.000 F 
ATOM     35  F   UNL     1       0.317   9.756  23.795  0.00  0.00    +0.000 F 
ENDBRANCH   3  32
TORSDOF 4
ENDMDL
MODEL 2
REMARK VINA RESULT:      -8.3      2.706      4.044
REMARK  Name = 
REMARK  6 active torsions:
REMARK  status: ('A' for Active; 'I' for Inactive)
REMARK    1  A    between atoms: C_1  and  C_2
REMARK    2  A    between atoms: C_5  and  C_6
REMARK    3  A    between atoms: C_7  and  C_8
REMARK    4  A    between atoms: C_14  and  C_15
REMARK    5  A    between atoms: N_23  and  C_24
REMARK    6  A    between atoms: C_31  and  N_32
REMARK                            x       y       z     vdW  Elec       q    Type
REMARK                         _______ _______ _______ _____ _____    ______ ____
ROOT
ATOM      1  C   UNL     1      -2.061  13.010  21.136  0.00  0.00    +0.000 C 
ATOM      2  C   UNL     1      -1.673  11.540  20.817  0.00  0.00    +0.000 C 
ATOM      3  C   UNL     1      -0.257  11.324  21.393  0.00  0.00    +0.000 C 
ATOM      4  N   UNL     1       0.176  12.605  22.040  0.00  0.00    +0.000 NA
ATOM      5  C   UNL     1      -0.763  13.681  21.663  0.00  0.00    +0.000 C 
ATOM      6  C   UNL     1      -0.127  14.587  20.531  0.00  0.00    +0.000 C 
ATOM      7  O   UNL     1       0.492  14.199  19.552  0.00  0.00    +0.000 OA
ATOM      8  N   UNL     1      -0.336  15.920  20.885  0.00  0.00    +0.000 N 
ATOM      9  C   UNL     1       0.136  17.051  20.127  0.00  0.00    +0.000 C 
ATOM     10  C   UNL     1      -0.779  16.013  22.204  0.00  0.00    +0.000 A 
ATOM     11  C   UNL     1      -0.977  17.162  22.953  0.00  0.00    +0.000 A 
ATOM     12  C   UNL     1      -1.349  17.017  24.288  0.00  0.00    +0.000 A 
ATOM     13  C   UNL     1      -1.465  15.741  24.858  0.00  0.00    +0.000 A 
ATOM     14  C   UNL     1      -1.239  14.593  24.092  0.00  0.00    +0.000 A 
ATOM     15  C   UNL     1      -0.945  14.733  22.743  0.00  0.00    +0.000 A 
ATOM     16  H   UNL     1       1.114  12.842  21.704  0.00  0.00    +0.000 HD
ENDROOT
BRANCH   1  21
ATOM     17  C   UNL     1      -6.316  13.205  24.065  0.00  0.00    +0.000 C 
ATOM     18  C   UNL     1      -4.997  12.983  23.428  0.00  0.00    +0.000 A 
ATOM     19  N   UNL     1      -4.210  12.004  23.892  0.00  0.00    +0.000 NA
ATOM     20  O   UNL     1      -3.104  11.992  23.078  0.00  0.00    +0.000 OA
ATOM     21  C   UNL     1      -3.196  12.978  22.134  0.00  0.00    +0.000 A 
ATOM     22  C   UNL     1      -4.390  13.643  22.326  0.00  0.00    +0.000 A 
BRANCH  22  23
ATOM     23  N   UNL     1      -4.913  14.720  21.552  0.00  0.00    +0.000 N 
ATOM     24  O   UNL     1      -4.433  15.840  21.752  0.00  0.00    +0.000 OA
ATOM     25  O   UNL     1      -5.799  14.452  20.733  0.00  0.00    +0.000 OA
ENDBRANCH  22  23
ENDBRANCH   1  21
BRANCH   2  26
ATOM     26  C   UNL     1      -1.821  11.115  19.359  0.00  0.00    +0.000 A 
ATOM     27  C   UNL     1      -0.928  10.240  18.729  0.00  0.00    +0.000 A 
ATOM     28  C   UNL     1      -1.094   9.872  17.392  0.00  0.00    +0.000 A 
ATOM     29  C   UNL     1      -2.171  10.356  16.663  0.00  0.00    +0.000 A 
ATOM     30  C   UNL     1      -3.084  11.213  17.271  0.00  0.00    +0.000 A 
ATOM     31  C   UNL     1      -2.911  11.588  18.608  0.00  0.00    +0.000 A 
ENDBRANCH   2  26
BRANCH   3  32
ATOM     32  C   UNL     1      -0.206  10.068  22.328  0.00  0.00    +0.000 C 
ATOM     33  F   UNL     1      -0.869   9.000  21.832  0.00  0.00    +0.000 F 
ATOM     34  F   UNL     1       1.076   9.676  22.524  0.00  0.00    +0.000 F 
ATOM     35  F   UNL     1      -0.732  10.324  23.550  0.00  0.00    +0.000 F 
ENDBRANCH   3  32
TORSDOF 4
ENDMDL
MODEL 3
REMARK VINA RESULT:      -8.2      2.494      4.106
REMARK  Name = 
REMARK  6 active torsions:
REMARK  status: ('A' for Active; 'I' for Inactive)
REMARK    1  A    between atoms: C_1  and  C_2
REMARK    2  A    between atoms: C_5  and  C_6
REMARK    3  A    between atoms: C_7  and  C_8
REMARK    4  A    between atoms: C_14  and  C_15
REMARK    5  A    between atoms: N_23  and  C_24
REMARK    6  A    between atoms: C_31  and  N_32
REMARK                            x       y       z     vdW  Elec       q    Type
REMARK                         _______ _______ _______ _____ _____    ______ ____
ROOT
ATOM      1  C   UNL     1      -1.997  12.931  20.247  0.00  0.00    +0.000 C 
ATOM      2  C   UNL     1      -1.625  11.493  19.790  0.00  0.00    +0.000 C 
ATOM      3  C   UNL     1      -0.087  11.390  19.869  0.00  0.00    +0.000 C 
ATOM      4  N   UNL     1       0.435  12.704  20.366  0.00  0.00    +0.000 NA
ATOM      5  C   UNL     1      -0.653  13.702  20.336  0.00  0.00    +0.000 C 
ATOM      6  C   UNL     1      -0.490  14.649  19.077  0.00  0.00    +0.000 C 
ATOM      7  O   UNL     1      -0.197  14.305  17.943  0.00  0.00    +0.000 OA
ATOM      8  N   UNL     1      -0.671  15.964  19.508  0.00  0.00    +0.000 N 
ATOM      9  C   UNL     1      -0.559  17.124  18.660  0.00  0.00    +0.000 C 
ATOM     10  C   UNL     1      -0.666  16.029  20.901  0.00  0.00    +0.000 A 
ATOM     11  C   UNL     1      -0.696  17.164  21.696  0.00  0.00    +0.000 A 
ATOM     12  C   UNL     1      -0.601  16.997  23.076  0.00  0.00    +0.000 A 
ATOM     13  C   UNL     1      -0.428  15.719  23.627  0.00  0.00    +0.000 A 
ATOM     14  C   UNL     1      -0.378  14.588  22.806  0.00  0.00    +0.000 A 
ATOM     15  C   UNL     1      -0.551  14.743  21.439  0.00  0.00    +0.000 A 
ATOM     16  H   UNL     1       1.192  13.012  19.748  0.00  0.00    +0.000 HD
ENDROOT
BRANCH   1  21
ATOM     17  C   UNL     1      -5.066  12.818  24.405  0.00  0.00    +0.000 C 
ATOM     18  C   UNL     1      -4.016  12.690  23.368  0.00  0.00    +0.000 A 
ATOM     19  N   UNL     1      -3.057  11.768  23.526  0.00  0.00    +0.000 NA
ATOM     20  O   UNL     1      -2.280  11.837  22.397  0.00  0.00    +0.000 OA
ATOM     21  C   UNL     1      -2.740  12.815  21.559  0.00  0.00    +0.000 A 
ATOM     22  C   UNL     1      -3.846  13.394  22.146  0.00  0.00    +0.000 A 
BRANCH  22  23
ATOM     23  N   UNL     1      -4.664  14.434  21.612  0.00  0.00    +0.000 N 
ATOM     24  O   UNL     1      -4.197  15.577  21.625  0.00  0.00    +0.000 OA
ATOM     25  O   UNL     1      -5.771  14.113  21.168  0.00  0.00    +0.000 OA
ENDBRANCH  22  23
ENDBRANCH   1  21
BRANCH   2  26
ATOM     26  C   UNL     1      -2.208  11.050  18.451  0.00  0.00    +0.000 A 
ATOM     27  C   UNL     1      -1.556  10.150  17.599  0.00  0.00    +0.000 A 
ATOM     28  C   UNL     1      -2.119   9.766  16.381  0.00  0.00    +0.000 A 
ATOM     29  C   UNL     1      -3.357  10.259  15.997  0.00  0.00    +0.000 A 
ATOM     30  C   UNL     1      -4.036  11.141  16.834  0.00  0.00    +0.000 A 
ATOM     31  C   UNL     1      -3.466  11.532  18.050  0.00  0.00    +0.000 A 
ENDBRANCH   2  26
BRANCH   3  32
ATOM     32  C   UNL     1       0.360  10.148  20.712  0.00  0.00    +0.000 C 
ATOM     33  F   UNL     1       0.827  10.469  21.939  0.00  0.00    +0.000 F 
ATOM     34  F   UNL     1      -0.683   9.303  20.899  0.00  0.00    +0.000 F 
ATOM     35  F   UNL     1       1.335   9.440  20.093  0.00  0.00    +0.000 F 
ENDBRANCH   3  32
TORSDOF 4
ENDMDL
MODEL 4
REMARK VINA RESULT:      -8.1      2.493      4.081
REMARK  Name = 
REMARK  6 active torsions:
REMARK  status: ('A' for Active; 'I' for Inactive)
REMARK    1  A    between atoms: C_1  and  C_2
REMARK    2  A    between atoms: C_5  and  C_6
REMARK    3  A    between atoms: C_7  and  C_8
REMARK    4  A    between atoms: C_14  and  C_15
REMARK    5  A    between atoms: N_23  and  C_24
REMARK    6  A    between atoms: C_31  and  N_32
REMARK                            x       y       z     vdW  Elec       q    Type
REMARK                         _______ _______ _______ _____ _____    ______ ____
ROOT
ATOM      1  C   UNL     1      -2.024  12.914  20.222  0.00  0.00    +0.000 C 
ATOM      2  C   UNL     1      -1.674  11.470  19.764  0.00  0.00    +0.000 C 
ATOM      3  C   UNL     1      -0.138  11.346  19.837  0.00  0.00    +0.000 C 
ATOM      4  N   UNL     1       0.406  12.653  20.330  0.00  0.00    +0.000 NA
ATOM      5  C   UNL     1      -0.668  13.666  20.304  0.00  0.00    +0.000 C 
ATOM      6  C   UNL     1      -0.497  14.609  19.044  0.00  0.00    +0.000 C 
ATOM      7  O   UNL     1      -0.214  14.260  17.909  0.00  0.00    +0.000 OA
ATOM      8  N   UNL     1      -0.658  15.927  19.474  0.00  0.00    +0.000 N 
ATOM      9  C   UNL     1      -0.532  17.085  18.625  0.00  0.00    +0.000 C 
ATOM     10  C   UNL     1      -0.646  15.993  20.867  0.00  0.00    +0.000 A 
ATOM     11  C   UNL     1      -0.655  17.129  21.662  0.00  0.00    +0.000 A 
ATOM     12  C   UNL     1      -0.556  16.962  23.041  0.00  0.00    +0.000 A 
ATOM     13  C   UNL     1      -0.400  15.682  23.593  0.00  0.00    +0.000 A 
ATOM     14  C   UNL     1      -0.370  14.550  22.772  0.00  0.00    +0.000 A 
ATOM     15  C   UNL     1      -0.547  14.706  21.406  0.00  0.00    +0.000 A 
ATOM     16  H   UNL     1       1.165  12.949  19.709  0.00  0.00    +0.000 HD
ENDROOT
BRANCH   1  21
ATOM     17  C   UNL     1      -5.081  12.830  24.389  0.00  0.00    +0.000 C 
ATOM     18  C   UNL     1      -4.032  12.698  23.351  0.00  0.00    +0.000 A 
ATOM     19  N   UNL     1      -3.064  11.788  23.520  0.00  0.00    +0.000 NA
ATOM     20  O   UNL     1      -2.290  11.848  22.388  0.00  0.00    +0.000 OA
ATOM     21  C   UNL     1      -2.762  12.810  21.537  0.00  0.00    +0.000 A 
ATOM     22  C   UNL     1      -3.873  13.386  22.118  0.00  0.00    +0.000 A 
BRANCH  22  23
ATOM     23  N   UNL     1      -4.702  14.409  21.571  0.00  0.00    +0.000 N 
ATOM     24  O   UNL     1      -4.204  15.533  21.455  0.00  0.00    +0.000 OA
ATOM     25  O   UNL     1      -5.852  14.094  21.246  0.00  0.00    +0.000 OA
ENDBRANCH  22  23
ENDBRANCH   1  21
BRANCH   2  26
ATOM     26  C   UNL     1      -2.269  11.035  18.428  0.00  0.00    +0.000 A 
ATOM     27  C   UNL     1      -3.496  11.513  17.952  0.00  0.00    +0.000 A 
ATOM     28  C   UNL     1      -4.012  11.093  16.724  0.00  0.00    +0.000 A 
ATOM     29  C   UNL     1      -3.300  10.200  15.936  0.00  0.00    +0.000 A 
ATOM     30  C   UNL     1      -2.069   9.724  16.378  0.00  0.00    +0.000 A 
ATOM     31  C   UNL     1      -1.558  10.138  17.612  0.00  0.00    +0.000 A 
ENDBRANCH   2  26
BRANCH   3  32
ATOM     32  C   UNL     1       0.296  10.097  20.678  0.00  0.00    +0.000 C 
ATOM     33  F   UNL     1      -0.704   9.209  20.876  0.00  0.00    +0.000 F 
ATOM     34  F   UNL     1       1.295   9.429  20.053  0.00  0.00    +0.000 F 
ATOM     35  F   UNL     1       0.759  10.447  21.902  0.00  0.00    +0.000 F 
ENDBRANCH   3  32
TORSDOF 4
ENDMDL
MODEL 5
REMARK VINA RESULT:      -8.1      3.073      5.295
REMARK  Name = 
REMARK  6 active torsions:
REMARK  status: ('A' for Active; 'I' for Inactive)
REMARK    1  A    between atoms: C_1  and  C_2
REMARK    2  A    between atoms: C_5  and  C_6
REMARK    3  A    between atoms: C_7  and  C_8
REMARK    4  A    between atoms: C_14  and  C_15
REMARK    5  A    between atoms: N_23  and  C_24
REMARK    6  A    between atoms: C_31  and  N_32
REMARK                            x       y       z     vdW  Elec       q    Type
REMARK                         _______ _______ _______ _____ _____    ______ ____
ROOT
ATOM      1  C   UNL     1      -1.789  12.653  21.462  0.00  0.00    +0.000 C 
ATOM      2  C   UNL     1      -0.316  12.438  21.016  0.00  0.00    +0.000 C 
ATOM      3  C   UNL     1      -0.159  13.154  19.658  0.00  0.00    +0.000 C 
ATOM      4  N   UNL     1      -1.476  13.781  19.314  0.00  0.00    +0.000 NA
ATOM      5  C   UNL     1      -2.512  13.269  20.233  0.00  0.00    +0.000 C 
ATOM      6  C   UNL     1      -3.384  12.163  19.510  0.00  0.00    +0.000 C 
ATOM      7  O   UNL     1      -2.970  11.265  18.793  0.00  0.00    +0.000 OA
ATOM      8  N   UNL     1      -4.726  12.437  19.778  0.00  0.00    +0.000 N 
ATOM      9  C   UNL     1      -5.835  11.677  19.258  0.00  0.00    +0.000 C 
ATOM     10  C   UNL     1      -4.864  13.703  20.347  0.00  0.00    +0.000 A 
ATOM     11  C   UNL     1      -6.039  14.377  20.639  0.00  0.00    +0.000 A 
ATOM     12  C   UNL     1      -5.942  15.676  21.133  0.00  0.00    +0.000 A 
ATOM     13  C   UNL     1      -4.689  16.289  21.278  0.00  0.00    +0.000 A 
ATOM     14  C   UNL     1      -3.515  15.600  20.957  0.00  0.00    +0.000 A 
ATOM     15  C   UNL     1      -3.605  14.280  20.539  0.00  0.00    +0.000 A 
ATOM     16  H   UNL     1      -1.721  13.525  18.353  0.00  0.00    +0.000 HD
ENDROOT
BRANCH   1  21
ATOM     17  C   UNL     1      -2.184  15.249  25.914  0.00  0.00    +0.000 C 
ATOM     18  C   UNL     1      -1.854  14.675  24.589  0.00  0.00    +0.000 A 
ATOM     19  N   UNL     1      -0.680  14.983  24.024  0.00  0.00    +0.000 NA
ATOM     20  O   UNL     1      -0.625  14.265  22.855  0.00  0.00    +0.000 OA
ATOM     21  C   UNL     1      -1.772  13.539  22.686  0.00  0.00    +0.000 A 
ATOM     22  C   UNL     1      -2.591  13.778  23.770  0.00  0.00    +0.000 A 
BRANCH  22  23
ATOM     23  N   UNL     1      -3.872  13.207  24.028  0.00  0.00    +0.000 N 
ATOM     24  O   UNL     1      -3.909  11.997  24.272  0.00  0.00    +0.000 OA
ATOM     25  O   UNL     1      -4.848  13.966  23.999  0.00  0.00    +0.000 OA
ENDBRANCH  22  23
ENDBRANCH   1  21
BRANCH   2  26
ATOM     26  C   UNL     1       0.174  10.993  21.016  0.00  0.00    +0.000 A 
ATOM     27  C   UNL     1       0.702  10.370  19.878  0.00  0.00    +0.000 A 
ATOM     28  C   UNL     1       1.140   9.045  19.914  0.00  0.00    +0.000 A 
ATOM     29  C   UNL     1       1.080   8.320  21.096  0.00  0.00    +0.000 A 
ATOM     30  C   UNL     1       0.577   8.922  22.246  0.00  0.00    +0.000 A 
ATOM     31  C   UNL     1       0.128  10.246  22.206  0.00  0.00    +0.000 A 
ENDBRANCH   2  26
BRANCH   3  32
ATOM     32  C   UNL     1       1.055  14.145  19.672  0.00  0.00    +0.000 C 
ATOM     33  F   UNL     1       1.835  14.055  18.571  0.00  0.00    +0.000 F 
ATOM     34  F   UNL     1       0.619  15.426  19.738  0.00  0.00    +0.000 F 
ATOM     35  F   UNL     1       1.860  13.945  20.742  0.00  0.00    +0.000 F 
ENDBRANCH   3  32
TORSDOF 4
ENDMDL
MODEL 6
REMARK VINA RESULT:      -8.1      3.083      5.380
REMARK  Name = 
REMARK  6 active torsions:
REMARK  status: ('A' for Active; 'I' for Inactive)
REMARK    1  A    between atoms: C_1  and  C_2
REMARK    2  A    between atoms: C_5  and  C_6
REMARK    3  A    between atoms: C_7  and  C_8
REMARK    4  A    between atoms: C_14  and  C_15
REMARK    5  A    between atoms: N_23  and  C_24
REMARK    6  A    between atoms: C_31  and  N_32
REMARK                            x       y       z     vdW  Elec       q    Type
REMARK                         _______ _______ _______ _____ _____    ______ ____
ROOT
ATOM      1  C   UNL     1      -1.765  12.675  21.470  0.00  0.00    +0.000 C 
ATOM      2  C   UNL     1      -0.294  12.469  21.014  0.00  0.00    +0.000 C 
ATOM      3  C   UNL     1      -0.150  13.187  19.656  0.00  0.00    +0.000 C 
ATOM      4  N   UNL     1      -1.473  13.807  19.321  0.00  0.00    +0.000 NA
ATOM      5  C   UNL     1      -2.500  13.288  20.247  0.00  0.00    +0.000 C 
ATOM      6  C   UNL     1      -3.370  12.177  19.529  0.00  0.00    +0.000 C 
ATOM      7  O   UNL     1      -2.956  11.283  18.808  0.00  0.00    +0.000 OA
ATOM      8  N   UNL     1      -4.712  12.443  19.806  0.00  0.00    +0.000 N 
ATOM      9  C   UNL     1      -5.820  11.677  19.293  0.00  0.00    +0.000 C 
ATOM     10  C   UNL     1      -4.854  13.707  20.377  0.00  0.00    +0.000 A 
ATOM     11  C   UNL     1      -6.031  14.374  20.677  0.00  0.00    +0.000 A 
ATOM     12  C   UNL     1      -5.938  15.673  21.173  0.00  0.00    +0.000 A 
ATOM     13  C   UNL     1      -4.687  16.294  21.309  0.00  0.00    +0.000 A 
ATOM     14  C   UNL     1      -3.512  15.612  20.979  0.00  0.00    +0.000 A 
ATOM     15  C   UNL     1      -3.596  14.292  20.561  0.00  0.00    +0.000 A 
ATOM     16  H   UNL     1      -1.723  13.550  18.362  0.00  0.00    +0.000 HD
ENDROOT
BRANCH   1  21
ATOM     17  C   UNL     1      -2.148  15.266  25.926  0.00  0.00    +0.000 C 
ATOM     18  C   UNL     1      -1.822  14.694  24.599  0.00  0.00    +0.000 A 
ATOM     19  N   UNL     1      -0.650  15.005  24.030  0.00  0.00    +0.000 NA
ATOM     20  O   UNL     1      -0.598  14.288  22.860  0.00  0.00    +0.000 OA
ATOM     21  C   UNL     1      -1.744  13.560  22.695  0.00  0.00    +0.000 A 
ATOM     22  C   UNL     1      -2.561  13.797  23.782  0.00  0.00    +0.000 A 
BRANCH  22  23
ATOM     23  N   UNL     1      -3.840  13.224  24.044  0.00  0.00    +0.000 N 
ATOM     24  O   UNL     1      -4.811  13.986  24.025  0.00  0.00    +0.000 OA
ATOM     25  O   UNL     1      -3.883  12.008  24.260  0.00  0.00    +0.000 OA
ENDBRANCH  22  23
ENDBRANCH   1  21
BRANCH   2  26
ATOM     26  C   UNL     1       0.205  11.027  21.010  0.00  0.00    +0.000 A 
ATOM     27  C   UNL     1       0.192  10.216  22.151  0.00  0.00    +0.000 A 
ATOM     28  C   UNL     1       0.656   8.900  22.112  0.00  0.00    +0.000 A 
ATOM     29  C   UNL     1       1.124   8.359  20.923  0.00  0.00    +0.000 A 
ATOM     30  C   UNL     1       1.131   9.138  19.769  0.00  0.00    +0.000 A 
ATOM     31  C   UNL     1       0.674  10.460  19.812  0.00  0.00    +0.000 A 
ENDBRANCH   2  26
BRANCH   3  32
ATOM     32  C   UNL     1       1.058  14.185  19.662  0.00  0.00    +0.000 C 
ATOM     33  F   UNL     1       1.943  13.952  20.657  0.00  0.00    +0.000 F 
ATOM     34  F   UNL     1       1.746  14.102  18.498  0.00  0.00    +0.000 F 
ATOM     35  F   UNL     1       0.652  15.471  19.790  0.00  0.00    +0.000 F 
ENDBRANCH   3  32
TORSDOF 4
ENDMDL
MODEL 7
REMARK VINA RESULT:      -7.9      3.231      5.636
REMARK  Name = 
REMARK  6 active torsions:
REMARK  status: ('A' for Active; 'I' for Inactive)
REMARK    1  A    between atoms: C_1  and  C_2
REMARK    2  A    between atoms: C_5  and  C_6
REMARK    3  A    between atoms: C_7  and  C_8
REMARK    4  A    between atoms: C_14  and  C_15
REMARK    5  A    between atoms: N_23  and  C_24
REMARK    6  A    between atoms: C_31  and  N_32
REMARK                            x       y       z     vdW  Elec       q    Type
REMARK                         _______ _______ _______ _____ _____    ______ ____
ROOT
ATOM      1  C   UNL     1      -1.808  13.231  21.889  0.00  0.00    +0.000 C 
ATOM      2  C   UNL     1      -0.421  12.755  21.375  0.00  0.00    +0.000 C 
ATOM      3  C   UNL     1      -0.241  13.365  19.969  0.00  0.00    +0.000 C 
ATOM      4  N   UNL     1      -1.460  14.180  19.662  0.00  0.00    +0.000 NA
ATOM      5  C   UNL     1      -2.502  13.893  20.668  0.00  0.00    +0.000 C 
ATOM      6  C   UNL     1      -3.586  12.909  20.065  0.00  0.00    +0.000 C 
ATOM      7  O   UNL     1      -3.369  11.919  19.383  0.00  0.00    +0.000 OA
ATOM      8  N   UNL     1      -4.846  13.411  20.391  0.00  0.00    +0.000 N 
ATOM      9  C   UNL     1      -6.094  12.817  19.983  0.00  0.00    +0.000 C 
ATOM     10  C   UNL     1      -4.742  14.710  20.888  0.00  0.00    +0.000 A 
ATOM     11  C   UNL     1      -5.772  15.582  21.203  0.00  0.00    +0.000 A 
ATOM     12  C   UNL     1      -5.436  16.871  21.611  0.00  0.00    +0.000 A 
ATOM     13  C   UNL     1      -4.094  17.278  21.646  0.00  0.00    +0.000 A 
ATOM     14  C   UNL     1      -3.070  16.390  21.302  0.00  0.00    +0.000 A 
ATOM     15  C   UNL     1      -3.397  15.083  20.972  0.00  0.00    +0.000 A 
ATOM     16  H   UNL     1      -1.806  13.919  18.734  0.00  0.00    +0.000 HD
ENDROOT
BRANCH   1  21
ATOM     17  C   UNL     1      -1.491  16.085  26.187  0.00  0.00    +0.000 C 
ATOM     18  C   UNL     1      -1.343  15.396  24.884  0.00  0.00    +0.000 A 
ATOM     19  N   UNL     1      -0.173  15.475  24.238  0.00  0.00    +0.000 NA
ATOM     20  O   UNL     1      -0.310  14.697  23.115  0.00  0.00    +0.000 OA
ATOM     21  C   UNL     1      -1.569  14.164  23.054  0.00  0.00    +0.000 A 
ATOM     22  C   UNL     1      -2.268  14.593  24.164  0.00  0.00    +0.000 A 
BRANCH  22  23
ATOM     23  N   UNL     1      -3.606  14.258  24.525  0.00  0.00    +0.000 N 
ATOM     24  O   UNL     1      -4.441  15.166  24.493  0.00  0.00    +0.000 OA
ATOM     25  O   UNL     1      -3.832  13.082  24.833  0.00  0.00    +0.000 OA
ENDBRANCH  22  23
ENDBRANCH   1  21
BRANCH   2  26
ATOM     26  C   UNL     1      -0.170  11.251  21.437  0.00  0.00    +0.000 A 
ATOM     27  C   UNL     1       0.459  10.544  20.404  0.00  0.00    +0.000 A 
ATOM     28  C   UNL     1       0.673   9.167  20.494  0.00  0.00    +0.000 A 
ATOM     29  C   UNL     1       0.281   8.472  21.629  0.00  0.00    +0.000 A 
ATOM     30  C   UNL     1      -0.329   9.154  22.677  0.00  0.00    +0.000 A 
ATOM     31  C   UNL     1      -0.552  10.532  22.582  0.00  0.00    +0.000 A 
ENDBRANCH   2  26
BRANCH   3  32
ATOM     32  C   UNL     1       1.114  14.144  19.852  0.00  0.00    +0.000 C 
ATOM     33  F   UNL     1       1.971  13.886  20.866  0.00  0.00    +0.000 F 
ATOM     34  F   UNL     1       1.753  13.812  18.705  0.00  0.00    +0.000 F 
ATOM     35  F   UNL     1       0.927  15.485  19.827  0.00  0.00    +0.000 F 
ENDBRANCH   3  32
TORSDOF 4
ENDMDL
MODEL 8
REMARK VINA RESULT:      -7.9      2.888      5.320
REMARK  Name = 
REMARK  6 active torsions:
REMARK  status: ('A' for Active; 'I' for Inactive)
REMARK    1  A    between atoms: C_1  and  C_2
REMARK    2  A    between atoms: C_5  and  C_6
REMARK    3  A    between atoms: C_7  and  C_8
REMARK    4  A    between atoms: C_14  and  C_15
REMARK    5  A    between atoms: N_23  and  C_24
REMARK    6  A    between atoms: C_31  and  N_32
REMARK                            x       y       z     vdW  Elec       q    Type
REMARK                         _______ _______ _______ _____ _____    ______ ____
ROOT
ATOM      1  C   UNL     1       0.299  13.553  20.481  0.00  0.00    +0.000 C 
ATOM      2  C   UNL     1      -0.159  12.105  20.150  0.00  0.00    +0.000 C 
ATOM      3  C   UNL     1      -1.564  12.220  19.523  0.00  0.00    +0.000 C 
ATOM      4  N   UNL     1      -1.925  13.674  19.470  0.00  0.00    +0.000 NA
ATOM      5  C   UNL     1      -0.955  14.445  20.273  0.00  0.00    +0.000 C 
ATOM      6  C   UNL     1      -1.586  14.824  21.674  0.00  0.00    +0.000 C 
ATOM      7  O   UNL     1      -2.248  14.093  22.394  0.00  0.00    +0.000 OA
ATOM      8  N   UNL     1      -1.313  16.171  21.914  0.00  0.00    +0.000 N 
ATOM      9  C   UNL     1      -1.760  16.902  23.073  0.00  0.00    +0.000 C 
ATOM     10  C   UNL     1      -0.828  16.786  20.760  0.00  0.00    +0.000 A 
ATOM     11  C   UNL     1      -0.561  18.132  20.566  0.00  0.00    +0.000 A 
ATOM     12  C   UNL     1      -0.156  18.541  19.297  0.00  0.00    +0.000 A 
ATOM     13  C   UNL     1      -0.076  17.617  18.244  0.00  0.00    +0.000 A 
ATOM     14  C   UNL     1      -0.371  16.267  18.456  0.00  0.00    +0.000 A 
ATOM     15  C   UNL     1      -0.698  15.843  19.735  0.00  0.00    +0.000 A 
ATOM     16  H   UNL     1      -2.862  13.795  19.866  0.00  0.00    +0.000 HD
ENDROOT
BRANCH   1  21
ATOM     17  C   UNL     1       4.590  14.907  17.937  0.00  0.00    +0.000 C 
ATOM     18  C   UNL     1       3.288  14.397  18.425  0.00  0.00    +0.000 A 
ATOM     19  N   UNL     1       2.636  13.482  17.696  0.00  0.00    +0.000 NA
ATOM     20  O   UNL     1       1.514  13.155  18.417  0.00  0.00    +0.000 OA
ATOM     21  C   UNL     1       1.460  13.885  19.573  0.00  0.00    +0.000 A 
ATOM     22  C   UNL     1       2.573  14.701  19.615  0.00  0.00    +0.000 A 
BRANCH  22  23
ATOM     23  N   UNL     1       2.941  15.607  20.652  0.00  0.00    +0.000 N 
ATOM     24  O   UNL     1       2.779  16.811  20.429  0.00  0.00    +0.000 OA
ATOM     25  O   UNL     1       3.384  15.122  21.698  0.00  0.00    +0.000 OA
ENDBRANCH  22  23
ENDBRANCH   1  21
BRANCH   2  26
ATOM     26  C   UNL     1      -0.070  11.102  21.296  0.00  0.00    +0.000 A 
ATOM     27  C   UNL     1      -0.960  11.104  22.377  0.00  0.00    +0.000 A 
ATOM     28  C   UNL     1      -0.849  10.171  23.410  0.00  0.00    +0.000 A 
ATOM     29  C   UNL     1       0.142   9.201  23.372  0.00  0.00    +0.000 A 
ATOM     30  C   UNL     1       1.027   9.164  22.299  0.00  0.00    +0.000 A 
ATOM     31  C   UNL     1       0.922  10.106  21.269  0.00  0.00    +0.000 A 
ENDBRANCH   2  26
BRANCH   3  32
ATOM     32  C   UNL     1      -1.639  11.476  18.147  0.00  0.00    +0.000 C 
ATOM     33  F   UNL     1      -2.772  10.756  17.986  0.00  0.00    +0.000 F 
ATOM     34  F   UNL     1      -1.593  12.365  17.125  0.00  0.00    +0.000 F 
ATOM     35  F   UNL     1      -0.602  10.622  17.975  0.00  0.00    +0.000 F 
ENDBRANCH   3  32
TORSDOF 4
ENDMDL
MODEL 9
REMARK VINA RESULT:      -7.8      2.706      4.358
REMARK  Name = 
REMARK  6 active torsions:
REMARK  status: ('A' for Active; 'I' for Inactive)
REMARK    1  A    between atoms: C_1  and  C_2
REMARK    2  A    between atoms: C_5  and  C_6
REMARK    3  A    between atoms: C_7  and  C_8
REMARK    4  A    between atoms: C_14  and  C_15
REMARK    5  A    between atoms: N_23  and  C_24
REMARK    6  A    between atoms: C_31  and  N_32
REMARK                            x       y       z     vdW  Elec       q    Type
REMARK                         _______ _______ _______ _____ _____    ______ ____
ROOT
ATOM      1  C   UNL     1      -0.533  13.968  19.919  0.00  0.00    +0.000 C 
ATOM      2  C   UNL     1      -1.365  12.730  20.355  0.00  0.00    +0.000 C 
ATOM      3  C   UNL     1      -0.542  12.007  21.442  0.00  0.00    +0.000 C 
ATOM      4  N   UNL     1       0.720  12.787  21.656  0.00  0.00    +0.000 NA
ATOM      5  C   UNL     1       0.861  13.789  20.580  0.00  0.00    +0.000 C 
ATOM      6  C   UNL     1       1.909  13.289  19.504  0.00  0.00    +0.000 C 
ATOM      7  O   UNL     1       2.000  12.160  19.047  0.00  0.00    +0.000 OA
ATOM      8  N   UNL     1       2.763  14.355  19.216  0.00  0.00    +0.000 N 
ATOM      9  C   UNL     1       3.882  14.283  18.309  0.00  0.00    +0.000 C 
ATOM     10  C   UNL     1       2.588  15.387  20.137  0.00  0.00    +0.000 A 
ATOM     11  C   UNL     1       3.331  16.550  20.257  0.00  0.00    +0.000 A 
ATOM     12  C   UNL     1       3.030  17.412  21.310  0.00  0.00    +0.000 A 
ATOM     13  C   UNL     1       2.037  17.075  22.242  0.00  0.00    +0.000 A 
ATOM     14  C   UNL     1       1.314  15.885  22.116  0.00  0.00    +0.000 A 
ATOM     15  C   UNL     1       1.557  15.063  21.026  0.00  0.00    +0.000 A 
ATOM     16  H   UNL     1       1.515  12.141  21.621  0.00  0.00    +0.000 HD
ENDROOT
BRANCH   1  21
ATOM     17  C   UNL     1      -2.945  18.448  20.826  0.00  0.00    +0.000 C 
ATOM     18  C   UNL     1      -2.377  17.080  20.803  0.00  0.00    +0.000 A 
ATOM     19  N   UNL     1      -2.891  16.152  21.620  0.00  0.00    +0.000 NA
ATOM     20  O   UNL     1      -2.223  14.987  21.333  0.00  0.00    +0.000 OA
ATOM     21  C   UNL     1      -1.282  15.203  20.363  0.00  0.00    +0.000 A 
ATOM     22  C   UNL     1      -1.341  16.533  20.000  0.00  0.00    +0.000 A 
BRANCH  22  23
ATOM     23  N   UNL     1      -0.563  17.191  19.003  0.00  0.00    +0.000 N 
ATOM     24  O   UNL     1      -0.727  16.830  17.834  0.00  0.00    +0.000 OA
ATOM     25  O   UNL     1       0.207  18.081  19.380  0.00  0.00    +0.000 OA
ENDBRANCH  22  23
ENDBRANCH   1  21
BRANCH   2  26
ATOM     26  C   UNL     1      -1.841  11.818  19.227  0.00  0.00    +0.000 A 
ATOM     27  C   UNL     1      -1.010  10.872  18.615  0.00  0.00    +0.000 A 
ATOM     28  C   UNL     1      -1.478  10.053  17.585  0.00  0.00    +0.000 A 
ATOM     29  C   UNL     1      -2.795  10.150  17.160  0.00  0.00    +0.000 A 
ATOM     30  C   UNL     1      -3.647  11.070  17.764  0.00  0.00    +0.000 A 
ATOM     31  C   UNL     1      -3.174  11.896  18.790  0.00  0.00    +0.000 A 
ENDBRANCH   2  26
BRANCH   3  32
ATOM     32  C   UNL     1      -1.391  11.768  22.737  0.00  0.00    +0.000 C 
ATOM     33  F   UNL     1      -1.114  10.596  23.352  0.00  0.00    +0.000 F 
ATOM     34  F   UNL     1      -1.159  12.748  23.642  0.00  0.00    +0.000 F 
ATOM     35  F   UNL     1      -2.721  11.773  22.480  0.00  0.00    +0.000 F 
ENDBRANCH   3  32
TORSDOF 4
ENDMDL
