MODEL 1
REMARK VINA RESULT:      -8.0      0.000      0.000
REMARK  Name = 
REMARK  7 active torsions:
REMARK  status: ('A' for Active; 'I' for Inactive)
REMARK    1  A    between atoms: C_1  and  O_2
REMARK    2  A    between atoms: O_2  and  C_3
REMARK    3  A    between atoms: C_7  and  C_8
REMARK    4  A    between atoms: N_9  and  C_10
REMARK    5  A    between atoms: C_15  and  C_16
REMARK    6  A    between atoms: C_16  and  C_18
REMARK    7  A    between atoms: C_25  and  O_26
REMARK                            x       y       z     vdW  Elec       q    Type
REMARK                         _______ _______ _______ _____ _____    ______ ____
ROOT
ATOM      1  C   UNL     1       2.649   4.225  18.310  0.00  0.00    +0.000 A 
ATOM      2  C   UNL     1       1.844   3.417  19.133  0.00  0.00    +0.000 A 
ATOM      3  C   UNL     1       2.099   2.058  19.311  0.00  0.00    +0.000 A 
ATOM      4  C   UNL     1       3.163   1.466  18.642  0.00  0.00    +0.000 A 
ATOM      5  C   UNL     1       3.963   2.238  17.802  0.00  0.00    +0.000 A 
ATOM      6  C   UNL     1       3.713   3.613  17.614  0.00  0.00    +0.000 A 
ENDROOT
BRANCH   1   8
ATOM      7  C   UNL     1       2.595   6.423  19.072  0.00  0.00    +0.000 C 
ATOM      8  N   UNL     1       2.275   5.576  18.140  0.00  0.00    +0.000 NA
BRANCH   7  13
ATOM      9  C   UNL     1       1.120   9.762  20.107  0.00  0.00    +0.000 A 
ATOM     10  C   UNL     1       1.277  10.468  18.908  0.00  0.00    +0.000 A 
ATOM     11  C   UNL     1       1.833   9.859  17.781  0.00  0.00    +0.000 A 
ATOM     12  C   UNL     1       2.243   8.528  17.842  0.00  0.00    +0.000 A 
ATOM     13  C   UNL     1       2.097   7.815  19.036  0.00  0.00    +0.000 A 
ATOM     14  C   UNL     1       1.555   8.435  20.177  0.00  0.00    +0.000 A 
BRANCH   9  16
ATOM     15  C   UNL     1       0.572  11.918  20.928  0.00  0.00    +0.000 C 
ATOM     16  O   UNL     1       0.583  10.507  21.124  0.00  0.00    +0.000 OA
ENDBRANCH   9  16
BRANCH  14  17
ATOM     17  O   UNL     1       1.517   7.771  21.377  0.00  0.00    +0.000 OA
ATOM     18  H   UNL     1       2.013   6.932  21.260  0.00  0.00    +0.000 HD
ENDBRANCH  14  17
ENDBRANCH   7  13
ENDBRANCH   1   8
BRANCH   6  19
ATOM     19  C   UNL     1       4.660   4.317  16.708  0.00  0.00    +0.000 C 
ATOM     20  O   UNL     1       4.595   4.073  15.506  0.00  0.00    +0.000 OA
BRANCH  19  21
ATOM     21  C   UNL     1       5.641   5.337  17.163  0.00  0.00    +0.000 A 
ATOM     22  C   UNL     1       5.593   6.667  16.738  0.00  0.00    +0.000 A 
ATOM     23  C   UNL     1       6.527   7.592  17.216  0.00  0.00    +0.000 A 
ATOM     24  C   UNL     1       7.538   7.181  18.081  0.00  0.00    +0.000 A 
ATOM     25 CL   UNL     1       8.677   8.328  18.670  0.00  0.00    +0.000 Cl
ATOM     26  C   UNL     1       7.637   5.845  18.462  0.00  0.00    +0.000 A 
ATOM     27  C   UNL     1       6.689   4.924  18.004  0.00  0.00    +0.000 A 
ENDBRANCH  19  21
ENDBRANCH   6  19
TORSDOF 6
ENDMDL
MODEL 2
REMARK VINA RESULT:      -8.0      2.463      4.414
REMARK  Name = 
REMARK  7 active torsions:
REMARK  status: ('A' for Active; 'I' for Inactive)
REMARK    1  A    between atoms: C_1  and  O_2
REMARK    2  A    between atoms: O_2  and  C_3
REMARK    3  A    between atoms: C_7  and  C_8
REMARK    4  A    between atoms: N_9  and  C_10
REMARK    5  A    between atoms: C_15  and  C_16
REMARK    6  A    between atoms: C_16  and  C_18
REMARK    7  A    between atoms: C_25  and  O_26
REMARK                            x       y       z     vdW  Elec       q    Type
REMARK                         _______ _______ _______ _____ _____    ______ ____
ROOT
ATOM      1  C   UNL     1       4.824   5.791  17.369  0.00  0.00    +0.000 A 
ATOM      2  C   UNL     1       6.076   6.342  17.043  0.00  0.00    +0.000 A 
ATOM      3  C   UNL     1       6.995   5.667  16.241  0.00  0.00    +0.000 A 
ATOM      4  C   UNL     1       6.687   4.400  15.762  0.00  0.00    +0.000 A 
ATOM      5  C   UNL     1       5.462   3.820  16.088  0.00  0.00    +0.000 A 
ATOM      6  C   UNL     1       4.527   4.495  16.900  0.00  0.00    +0.000 A 
ENDROOT
BRANCH   1   8
ATOM      7  C   UNL     1       3.000   7.191  17.723  0.00  0.00    +0.000 C 
ATOM      8  N   UNL     1       3.986   6.521  18.240  0.00  0.00    +0.000 NA
BRANCH   7  13
ATOM      9  C   UNL     1       1.138   8.711  20.660  0.00  0.00    +0.000 A 
ATOM     10  C   UNL     1       0.732   9.918  20.080  0.00  0.00    +0.000 A 
ATOM     11  C   UNL     1       1.040  10.218  18.751  0.00  0.00    +0.000 A 
ATOM     12  C   UNL     1       1.767   9.308  17.984  0.00  0.00    +0.000 A 
ATOM     13  C   UNL     1       2.184   8.102  18.556  0.00  0.00    +0.000 A 
ATOM     14  C   UNL     1       1.890   7.809  19.900  0.00  0.00    +0.000 A 
BRANCH   9  16
ATOM     15  C   UNL     1      -0.315   9.381  22.409  0.00  0.00    +0.000 C 
ATOM     16  O   UNL     1       0.778   8.577  21.976  0.00  0.00    +0.000 OA
ENDBRANCH   9  16
BRANCH  14  17
ATOM     17  O   UNL     1       2.396   6.679  20.492  0.00  0.00    +0.000 OA
ATOM     18  H   UNL     1       3.168   6.393  19.958  0.00  0.00    +0.000 HD
ENDBRANCH  14  17
ENDBRANCH   7  13
ENDBRANCH   1   8
BRANCH   6  19
ATOM     19  C   UNL     1       3.254   3.765  17.147  0.00  0.00    +0.000 C 
ATOM     20  O   UNL     1       2.611   3.382  16.173  0.00  0.00    +0.000 OA
BRANCH  19  21
ATOM     21  C   UNL     1       2.743   3.424  18.501  0.00  0.00    +0.000 A 
ATOM     22  C   UNL     1       3.562   2.894  19.501  0.00  0.00    +0.000 A 
ATOM     23  C   UNL     1       3.035   2.614  20.766  0.00  0.00    +0.000 A 
ATOM     24  C   UNL     1       1.681   2.817  21.020  0.00  0.00    +0.000 A 
ATOM     25 CL   UNL     1       1.044   2.477  22.581  0.00  0.00    +0.000 Cl
ATOM     26  C   UNL     1       0.839   3.285  20.013  0.00  0.00    +0.000 A 
ATOM     27  C   UNL     1       1.369   3.588  18.755  0.00  0.00    +0.000 A 
ENDBRANCH  19  21
ENDBRANCH   6  19
TORSDOF 6
ENDMDL
MODEL 3
REMARK VINA RESULT:      -7.9      1.318      1.678
REMARK  Name = 
REMARK  7 active torsions:
REMARK  status: ('A' for Active; 'I' for Inactive)
REMARK    1  A    between atoms: C_1  and  O_2
REMARK    2  A    between atoms: O_2  and  C_3
REMARK    3  A    between atoms: C_7  and  C_8
REMARK    4  A    between atoms: N_9  and  C_10
REMARK    5  A    between atoms: C_15  and  C_16
REMARK    6  A    between atoms: C_16  and  C_18
REMARK    7  A    between atoms: C_25  and  O_26
REMARK                            x       y       z     vdW  Elec       q    Type
REMARK                         _______ _______ _______ _____ _____    ______ ____
ROOT
ATOM      1  C   UNL     1       2.663   4.489  19.964  0.00  0.00    +0.000 A 
ATOM      2  C   UNL     1       1.989   4.072  21.126  0.00  0.00    +0.000 A 
ATOM      3  C   UNL     1       2.269   2.857  21.748  0.00  0.00    +0.000 A 
ATOM      4  C   UNL     1       3.224   2.010  21.200  0.00  0.00    +0.000 A 
ATOM      5  C   UNL     1       3.892   2.387  20.037  0.00  0.00    +0.000 A 
ATOM      6  C   UNL     1       3.615   3.614  19.400  0.00  0.00    +0.000 A 
ENDROOT
BRANCH   1   8
ATOM      7  C   UNL     1       2.395   6.798  20.063  0.00  0.00    +0.000 C 
ATOM      8  N   UNL     1       2.267   5.706  19.369  0.00  0.00    +0.000 NA
BRANCH   7  13
ATOM      9  C   UNL     1       0.634  10.155  19.890  0.00  0.00    +0.000 A 
ATOM     10  C   UNL     1       0.956  10.520  18.578  0.00  0.00    +0.000 A 
ATOM     11  C   UNL     1       1.713   9.678  17.761  0.00  0.00    +0.000 A 
ATOM     12  C   UNL     1       2.162   8.453  18.253  0.00  0.00    +0.000 A 
ATOM     13  C   UNL     1       1.852   8.081  19.564  0.00  0.00    +0.000 A 
ATOM     14  C   UNL     1       1.107   8.938  20.394  0.00  0.00    +0.000 A 
BRANCH   9  16
ATOM     15  C   UNL     1      -1.307  11.514  19.951  0.00  0.00    +0.000 C 
ATOM     16  O   UNL     1      -0.092  11.099  20.568  0.00  0.00    +0.000 OA
ENDBRANCH   9  16
BRANCH  14  17
ATOM     17  O   UNL     1       0.900   8.624  21.713  0.00  0.00    +0.000 OA
ATOM     18  H   UNL     1       0.175   7.963  21.743  0.00  0.00    +0.000 HD
ENDBRANCH  14  17
ENDBRANCH   7  13
ENDBRANCH   1   8
BRANCH   6  19
ATOM     19  C   UNL     1       4.419   3.895  18.179  0.00  0.00    +0.000 C 
ATOM     20  O   UNL     1       4.238   3.184  17.195  0.00  0.00    +0.000 OA
BRANCH  19  21
ATOM     21  C   UNL     1       5.386   5.019  18.063  0.00  0.00    +0.000 A 
ATOM     22  C   UNL     1       6.564   5.076  18.812  0.00  0.00    +0.000 A 
ATOM     23  C   UNL     1       7.451   6.144  18.646  0.00  0.00    +0.000 A 
ATOM     24  C   UNL     1       7.141   7.181  17.769  0.00  0.00    +0.000 A 
ATOM     25 CL   UNL     1       8.242   8.485  17.566  0.00  0.00    +0.000 Cl
ATOM     26  C   UNL     1       5.940   7.169  17.063  0.00  0.00    +0.000 A 
ATOM     27  C   UNL     1       5.063   6.089  17.210  0.00  0.00    +0.000 A 
ENDBRANCH  19  21
ENDBRANCH   6  19
TORSDOF 6
ENDMDL
MODEL 4
REMARK VINA RESULT:      -7.8      1.897      2.194
REMARK  Name = 
REMARK  7 active torsions:
REMARK  status: ('A' for Active; 'I' for Inactive)
REMARK    1  A    between atoms: C_1  and  O_2
REMARK    2  A    between atoms: O_2  and  C_3
REMARK    3  A    between atoms: C_7  and  C_8
REMARK    4  A    between atoms: N_9  and  C_10
REMARK    5  A    between atoms: C_15  and  C_16
REMARK    6  A    between atoms: C_16  and  C_18
REMARK    7  A    between atoms: C_25  and  O_26
REMARK                            x       y       z     vdW  Elec       q    Type
REMARK                         _______ _______ _______ _____ _____    ______ ____
ROOT
ATOM      1  C   UNL     1       2.558   4.288  18.647  0.00  0.00    +0.000 A 
ATOM      2  C   UNL     1       1.392   3.540  18.890  0.00  0.00    +0.000 A 
ATOM      3  C   UNL     1       1.425   2.157  19.062  0.00  0.00    +0.000 A 
ATOM      4  C   UNL     1       2.635   1.482  18.970  0.00  0.00    +0.000 A 
ATOM      5  C   UNL     1       3.803   2.195  18.707  0.00  0.00    +0.000 A 
ATOM      6  C   UNL     1       3.781   3.594  18.530  0.00  0.00    +0.000 A 
ENDROOT
BRANCH   1   8
ATOM      7  C   UNL     1       2.210   6.445  19.446  0.00  0.00    +0.000 C 
ATOM      8  N   UNL     1       2.419   5.675  18.421  0.00  0.00    +0.000 NA
BRANCH   7  13
ATOM      9  C   UNL     1       1.201  10.039  20.131  0.00  0.00    +0.000 A 
ATOM     10  C   UNL     1       1.426  10.590  18.864  0.00  0.00    +0.000 A 
ATOM     11  C   UNL     1       1.875   9.799  17.804  0.00  0.00    +0.000 A 
ATOM     12  C   UNL     1       2.111   8.439  18.003  0.00  0.00    +0.000 A 
ATOM     13  C   UNL     1       1.896   7.879  19.266  0.00  0.00    +0.000 A 
ATOM     14  C   UNL     1       1.462   8.680  20.339  0.00  0.00    +0.000 A 
BRANCH   9  16
ATOM     15  C   UNL     1      -0.138  11.934  20.613  0.00  0.00    +0.000 C 
ATOM     16  O   UNL     1       0.785  10.949  21.067  0.00  0.00    +0.000 OA
ENDBRANCH   9  16
BRANCH  14  17
ATOM     17  O   UNL     1       1.361   8.155  21.602  0.00  0.00    +0.000 OA
ATOM     18  H   UNL     1       0.521   7.649  21.639  0.00  0.00    +0.000 HD
ENDBRANCH  14  17
ENDBRANCH   7  13
ENDBRANCH   1   8
BRANCH   6  19
ATOM     19  C   UNL     1       5.104   4.226  18.278  0.00  0.00    +0.000 C 
ATOM     20  O   UNL     1       5.775   4.563  19.250  0.00  0.00    +0.000 OA
BRANCH  19  21
ATOM     21  C   UNL     1       5.685   4.424  16.924  0.00  0.00    +0.000 A 
ATOM     22  C   UNL     1       4.966   4.168  15.754  0.00  0.00    +0.000 A 
ATOM     23  C   UNL     1       5.551   4.394  14.504  0.00  0.00    +0.000 A 
ATOM     24  C   UNL     1       6.872   4.830  14.420  0.00  0.00    +0.000 A 
ATOM     25 CL   UNL     1       7.581   5.113  12.880  0.00  0.00    +0.000 Cl
ATOM     26  C   UNL     1       7.622   5.029  15.578  0.00  0.00    +0.000 A 
ATOM     27  C   UNL     1       7.029   4.826  16.828  0.00  0.00    +0.000 A 
ENDBRANCH  19  21
ENDBRANCH   6  19
TORSDOF 6
ENDMDL
MODEL 5
REMARK VINA RESULT:      -7.8      2.566      4.470
REMARK  Name = 
REMARK  7 active torsions:
REMARK  status: ('A' for Active; 'I' for Inactive)
REMARK    1  A    between atoms: C_1  and  O_2
REMARK    2  A    between atoms: O_2  and  C_3
REMARK    3  A    between atoms: C_7  and  C_8
REMARK    4  A    between atoms: N_9  and  C_10
REMARK    5  A    between atoms: C_15  and  C_16
REMARK    6  A    between atoms: C_16  and  C_18
REMARK    7  A    between atoms: C_25  and  O_26
REMARK                            x       y       z     vdW  Elec       q    Type
REMARK                         _______ _______ _______ _____ _____    ______ ____
ROOT
ATOM      1  C   UNL     1       4.743   5.775  17.528  0.00  0.00    +0.000 A 
ATOM      2  C   UNL     1       5.974   6.385  17.227  0.00  0.00    +0.000 A 
ATOM      3  C   UNL     1       6.892   5.806  16.353  0.00  0.00    +0.000 A 
ATOM      4  C   UNL     1       6.606   4.577  15.772  0.00  0.00    +0.000 A 
ATOM      5  C   UNL     1       5.403   3.939  16.070  0.00  0.00    +0.000 A 
ATOM      6  C   UNL     1       4.468   4.516  16.954  0.00  0.00    +0.000 A 
ENDROOT
BRANCH   1   8
ATOM      7  C   UNL     1       2.973   7.197  18.036  0.00  0.00    +0.000 C 
ATOM      8  N   UNL     1       3.906   6.405  18.474  0.00  0.00    +0.000 NA
BRANCH   7  13
ATOM      9  C   UNL     1       0.845   9.977  19.501  0.00  0.00    +0.000 A 
ATOM     10  C   UNL     1       0.581   9.429  20.761  0.00  0.00    +0.000 A 
ATOM     11  C   UNL     1       1.104   8.188  21.131  0.00  0.00    +0.000 A 
ATOM     12  C   UNL     1       1.902   7.475  20.237  0.00  0.00    +0.000 A 
ATOM     13  C   UNL     1       2.168   8.010  18.973  0.00  0.00    +0.000 A 
ATOM     14  C   UNL     1       1.624   9.251  18.593  0.00  0.00    +0.000 A 
BRANCH   9  16
ATOM     15  C   UNL     1       0.313  12.124  20.353  0.00  0.00    +0.000 C 
ATOM     16  O   UNL     1       0.240  11.187  19.282  0.00  0.00    +0.000 OA
ENDBRANCH   9  16
BRANCH  14  17
ATOM     17  O   UNL     1       1.791   9.722  17.315  0.00  0.00    +0.000 OA
ATOM     18  H   UNL     1       0.904   9.977  16.982  0.00  0.00    +0.000 HD
ENDBRANCH  14  17
ENDBRANCH   7  13
ENDBRANCH   1   8
BRANCH   6  19
ATOM     19  C   UNL     1       3.219   3.734  17.161  0.00  0.00    +0.000 C 
ATOM     20  O   UNL     1       2.661   3.269  16.171  0.00  0.00    +0.000 OA
BRANCH  19  21
ATOM     21  C   UNL     1       2.639   3.436  18.497  0.00  0.00    +0.000 A 
ATOM     22  C   UNL     1       1.329   3.781  18.841  0.00  0.00    +0.000 A 
ATOM     23  C   UNL     1       0.825   3.455  20.103  0.00  0.00    +0.000 A 
ATOM     24  C   UNL     1       1.641   2.828  21.042  0.00  0.00    +0.000 A 
ATOM     25 CL   UNL     1       1.010   2.425  22.590  0.00  0.00    +0.000 Cl
ATOM     26  C   UNL     1       2.969   2.537  20.736  0.00  0.00    +0.000 A 
ATOM     27  C   UNL     1       3.467   2.840  19.465  0.00  0.00    +0.000 A 
ENDBRANCH  19  21
ENDBRANCH   6  19
TORSDOF 6
ENDMDL
MODEL 6
REMARK VINA RESULT:      -7.8      2.618      4.599
REMARK  Name = 
REMARK  7 active torsions:
REMARK  status: ('A' for Active; 'I' for Inactive)
REMARK    1  A    between atoms: C_1  and  O_2
REMARK    2  A    between atoms: O_2  and  C_3
REMARK    3  A    between atoms: C_7  and  C_8
REMARK    4  A    between atoms: N_9  and  C_10
REMARK    5  A    between atoms: C_15  and  C_16
REMARK    6  A    between atoms: C_16  and  C_18
REMARK    7  A    between atoms: C_25  and  O_26
REMARK                            x       y       z     vdW  Elec       q    Type
REMARK                         _______ _______ _______ _____ _____    ______ ____
ROOT
ATOM      1  C   UNL     1       4.703   5.815  17.514  0.00  0.00    +0.000 A 
ATOM      2  C   UNL     1       5.915   6.449  17.185  0.00  0.00    +0.000 A 
ATOM      3  C   UNL     1       6.838   5.872  16.315  0.00  0.00    +0.000 A 
ATOM      4  C   UNL     1       6.578   4.622  15.768  0.00  0.00    +0.000 A 
ATOM      5  C   UNL     1       5.395   3.961  16.094  0.00  0.00    +0.000 A 
ATOM      6  C   UNL     1       4.455   4.536  16.974  0.00  0.00    +0.000 A 
ENDROOT
BRANCH   1   8
ATOM      7  C   UNL     1       2.955   7.268  18.012  0.00  0.00    +0.000 C 
ATOM      8  N   UNL     1       3.860   6.447  18.454  0.00  0.00    +0.000 NA
BRANCH   7  13
ATOM      9  C   UNL     1       0.833  10.054  19.474  0.00  0.00    +0.000 A 
ATOM     10  C   UNL     1       0.558   9.503  20.731  0.00  0.00    +0.000 A 
ATOM     11  C   UNL     1       1.073   8.259  21.099  0.00  0.00    +0.000 A 
ATOM     12  C   UNL     1       1.872   7.545  20.207  0.00  0.00    +0.000 A 
ATOM     13  C   UNL     1       2.149   8.083  18.947  0.00  0.00    +0.000 A 
ATOM     14  C   UNL     1       1.613   9.328  18.568  0.00  0.00    +0.000 A 
BRANCH   9  16
ATOM     15  C   UNL     1      -1.116  11.227  18.810  0.00  0.00    +0.000 C 
ATOM     16  O   UNL     1       0.236  11.268  19.256  0.00  0.00    +0.000 OA
ENDBRANCH   9  16
BRANCH  14  17
ATOM     17  O   UNL     1       1.791   9.802  17.293  0.00  0.00    +0.000 OA
ATOM     18  H   UNL     1       1.950  10.768  17.362  0.00  0.00    +0.000 HD
ENDBRANCH  14  17
ENDBRANCH   7  13
ENDBRANCH   1   8
BRANCH   6  19
ATOM     19  C   UNL     1       3.229   3.728  17.215  0.00  0.00    +0.000 C 
ATOM     20  O   UNL     1       2.638   3.274  16.238  0.00  0.00    +0.000 OA
BRANCH  19  21
ATOM     21  C   UNL     1       2.709   3.391  18.566  0.00  0.00    +0.000 A 
ATOM     22  C   UNL     1       3.500   2.785  19.546  0.00  0.00    +0.000 A 
ATOM     23  C   UNL     1       2.968   2.512  20.810  0.00  0.00    +0.000 A 
ATOM     24  C   UNL     1       1.632   2.798  21.083  0.00  0.00    +0.000 A 
ATOM     25 CL   UNL     1       0.990   2.465  22.642  0.00  0.00    +0.000 Cl
ATOM     26  C   UNL     1       0.814   3.342  20.095  0.00  0.00    +0.000 A 
ATOM     27  C   UNL     1       1.352   3.639  18.839  0.00  0.00    +0.000 A 
ENDBRANCH  19  21
ENDBRANCH   6  19
TORSDOF 6
ENDMDL
MODEL 7
REMARK VINA RESULT:      -7.7      2.210      2.592
REMARK  Name = 
REMARK  7 active torsions:
REMARK  status: ('A' for Active; 'I' for Inactive)
REMARK    1  A    between atoms: C_1  and  O_2
REMARK    2  A    between atoms: O_2  and  C_3
REMARK    3  A    between atoms: C_7  and  C_8
REMARK    4  A    between atoms: N_9  and  C_10
REMARK    5  A    between atoms: C_15  and  C_16
REMARK    6  A    between atoms: C_16  and  C_18
REMARK    7  A    between atoms: C_25  and  O_26
REMARK                            x       y       z     vdW  Elec       q    Type
REMARK                         _______ _______ _______ _____ _____    ______ ____
ROOT
ATOM      1  C   UNL     1       2.853   4.768  19.721  0.00  0.00    +0.000 A 
ATOM      2  C   UNL     1       1.751   4.094  20.277  0.00  0.00    +0.000 A 
ATOM      3  C   UNL     1       1.828   2.765  20.689  0.00  0.00    +0.000 A 
ATOM      4  C   UNL     1       3.017   2.065  20.530  0.00  0.00    +0.000 A 
ATOM      5  C   UNL     1       4.119   2.700  19.961  0.00  0.00    +0.000 A 
ATOM      6  C   UNL     1       4.051   4.045  19.540  0.00  0.00    +0.000 A 
ENDROOT
BRANCH   1   8
ATOM      7  C   UNL     1       2.086   6.935  20.078  0.00  0.00    +0.000 C 
ATOM      8  N   UNL     1       2.662   6.093  19.274  0.00  0.00    +0.000 NA
BRANCH   7  13
ATOM      9  C   UNL     1       0.728  10.478  19.992  0.00  0.00    +0.000 A 
ATOM     10  C   UNL     1       1.134  10.852  18.705  0.00  0.00    +0.000 A 
ATOM     11  C   UNL     1       1.816   9.958  17.877  0.00  0.00    +0.000 A 
ATOM     12  C   UNL     1       2.105   8.672  18.331  0.00  0.00    +0.000 A 
ATOM     13  C   UNL     1       1.711   8.290  19.617  0.00  0.00    +0.000 A 
ATOM     14  C   UNL     1       1.041   9.197  20.459  0.00  0.00    +0.000 A 
BRANCH   9  16
ATOM     15  C   UNL     1       0.840  12.669  20.889  0.00  0.00    +0.000 C 
ATOM     16  O   UNL     1       0.092  11.474  20.686  0.00  0.00    +0.000 OA
ENDBRANCH   9  16
BRANCH  14  17
ATOM     17  O   UNL     1       0.756   8.859  21.757  0.00  0.00    +0.000 OA
ATOM     18  H   UNL     1       0.267   8.009  21.735  0.00  0.00    +0.000 HD
ENDBRANCH  14  17
ENDBRANCH   7  13
ENDBRANCH   1   8
BRANCH   6  19
ATOM     19  C   UNL     1       5.309   4.600  18.972  0.00  0.00    +0.000 C 
ATOM     20  O   UNL     1       6.103   5.132  19.743  0.00  0.00    +0.000 OA
BRANCH  19  21
ATOM     21  C   UNL     1       5.687   4.499  17.537  0.00  0.00    +0.000 A 
ATOM     22  C   UNL     1       6.992   4.717  17.087  0.00  0.00    +0.000 A 
ATOM     23  C   UNL     1       7.299   4.586  15.729  0.00  0.00    +0.000 A 
ATOM     24  C   UNL     1       6.294   4.284  14.812  0.00  0.00    +0.000 A 
ATOM     25 CL   UNL     1       6.683   4.116  13.145  0.00  0.00    +0.000 Cl
ATOM     26  C   UNL     1       4.977   4.127  15.238  0.00  0.00    +0.000 A 
ATOM     27  C   UNL     1       4.674   4.234  16.599  0.00  0.00    +0.000 A 
ENDBRANCH  19  21
ENDBRANCH   6  19
TORSDOF 6
ENDMDL
MODEL 8
REMARK VINA RESULT:      -7.7      2.270      2.629
REMARK  Name = 
REMARK  7 active torsions:
REMARK  status: ('A' for Active; 'I' for Inactive)
REMARK    1  A    between atoms: C_1  and  O_2
REMARK    2  A    between atoms: O_2  and  C_3
REMARK    3  A    between atoms: C_7  and  C_8
REMARK    4  A    between atoms: N_9  and  C_10
REMARK    5  A    between atoms: C_15  and  C_16
REMARK    6  A    between atoms: C_16  and  C_18
REMARK    7  A    between atoms: C_25  and  O_26
REMARK                            x       y       z     vdW  Elec       q    Type
REMARK                         _______ _______ _______ _____ _____    ______ ____
ROOT
ATOM      1  C   UNL     1       2.588   5.141  20.027  0.00  0.00    +0.000 A 
ATOM      2  C   UNL     1       1.464   4.487  20.562  0.00  0.00    +0.000 A 
ATOM      3  C   UNL     1       1.438   3.108  20.766  0.00  0.00    +0.000 A 
ATOM      4  C   UNL     1       2.541   2.342  20.411  0.00  0.00    +0.000 A 
ATOM      5  C   UNL     1       3.660   2.961  19.857  0.00  0.00    +0.000 A 
ATOM      6  C   UNL     1       3.695   4.355  19.646  0.00  0.00    +0.000 A 
ENDROOT
BRANCH   1   8
ATOM      7  C   UNL     1       1.632   7.212  20.488  0.00  0.00    +0.000 C 
ATOM      8  N   UNL     1       2.497   6.531  19.797  0.00  0.00    +0.000 NA
BRANCH   7  13
ATOM      9  C   UNL     1       0.859  10.907  20.876  0.00  0.00    +0.000 A 
ATOM     10  C   UNL     1       1.000  11.316  19.545  0.00  0.00    +0.000 A 
ATOM     11  C   UNL     1       1.319  10.400  18.541  0.00  0.00    +0.000 A 
ATOM     12  C   UNL     1       1.505   9.056  18.859  0.00  0.00    +0.000 A 
ATOM     13  C   UNL     1       1.373   8.637  20.186  0.00  0.00    +0.000 A 
ATOM     14  C   UNL     1       1.071   9.563  21.202  0.00  0.00    +0.000 A 
BRANCH   9  16
ATOM     15  C   UNL     1      -0.757  12.446  21.676  0.00  0.00    +0.000 C 
ATOM     16  O   UNL     1       0.568  11.927  21.744  0.00  0.00    +0.000 OA
ENDBRANCH   9  16
BRANCH  14  17
ATOM     17  O   UNL     1       1.053   9.172  22.517  0.00  0.00    +0.000 OA
ATOM     18  H   UNL     1       1.741   8.480  22.623  0.00  0.00    +0.000 HD
ENDBRANCH  14  17
ENDBRANCH   7  13
ENDBRANCH   1   8
BRANCH   6  19
ATOM     19  C   UNL     1       4.961   4.881  19.069  0.00  0.00    +0.000 C 
ATOM     20  O   UNL     1       5.737   5.465  19.820  0.00  0.00    +0.000 OA
BRANCH  19  21
ATOM     21  C   UNL     1       5.367   4.695  17.651  0.00  0.00    +0.000 A 
ATOM     22  C   UNL     1       4.442   4.465  16.629  0.00  0.00    +0.000 A 
ATOM     23  C   UNL     1       4.876   4.321  15.307  0.00  0.00    +0.000 A 
ATOM     24  C   UNL     1       6.237   4.356  15.010  0.00  0.00    +0.000 A 
ATOM     25 CL   UNL     1       6.760   4.185  13.381  0.00  0.00    +0.000 Cl
ATOM     26  C   UNL     1       7.174   4.520  16.028  0.00  0.00    +0.000 A 
ATOM     27  C   UNL     1       6.740   4.689  17.346  0.00  0.00    +0.000 A 
ENDBRANCH  19  21
ENDBRANCH   6  19
TORSDOF 6
ENDMDL
MODEL 9
REMARK VINA RESULT:      -7.6      2.252      2.777
REMARK  Name = 
REMARK  7 active torsions:
REMARK  status: ('A' for Active; 'I' for Inactive)
REMARK    1  A    between atoms: C_1  and  O_2
REMARK    2  A    between atoms: O_2  and  C_3
REMARK    3  A    between atoms: C_7  and  C_8
REMARK    4  A    between atoms: N_9  and  C_10
REMARK    5  A    between atoms: C_15  and  C_16
REMARK    6  A    between atoms: C_16  and  C_18
REMARK    7  A    between atoms: C_25  and  O_26
REMARK                            x       y       z     vdW  Elec       q    Type
REMARK                         _______ _______ _______ _____ _____    ______ ____
ROOT
ATOM      1  C   UNL     1       2.483   4.947  19.716  0.00  0.00    +0.000 A 
ATOM      2  C   UNL     1       1.322   4.207  20.001  0.00  0.00    +0.000 A 
ATOM      3  C   UNL     1       1.276   2.821  19.864  0.00  0.00    +0.000 A 
ATOM      4  C   UNL     1       2.397   2.139  19.410  0.00  0.00    +0.000 A 
ATOM      5  C   UNL     1       3.555   2.849  19.098  0.00  0.00    +0.000 A 
ATOM      6  C   UNL     1       3.611   4.251  19.233  0.00  0.00    +0.000 A 
ENDROOT
BRANCH   1   8
ATOM      7  C   UNL     1       1.507   6.866  20.598  0.00  0.00    +0.000 C 
ATOM      8  N   UNL     1       2.415   6.353  19.823  0.00  0.00    +0.000 NA
BRANCH   7  13
ATOM      9  C   UNL     1       1.089  10.485  19.536  0.00  0.00    +0.000 A 
ATOM     10  C   UNL     1       0.728  11.049  20.765  0.00  0.00    +0.000 A 
ATOM     11  C   UNL     1       0.644  10.267  21.918  0.00  0.00    +0.000 A 
ATOM     12  C   UNL     1       0.920   8.902  21.855  0.00  0.00    +0.000 A 
ATOM     13  C   UNL     1       1.276   8.327  20.631  0.00  0.00    +0.000 A 
ATOM     14  C   UNL     1       1.341   9.111  19.464  0.00  0.00    +0.000 A 
BRANCH   9  16
ATOM     15  C   UNL     1       2.347  12.022  18.242  0.00  0.00    +0.000 C 
ATOM     16  O   UNL     1       1.102  11.378  18.496  0.00  0.00    +0.000 OA
ENDBRANCH   9  16
BRANCH  14  17
ATOM     17  O   UNL     1       1.578   8.527  18.246  0.00  0.00    +0.000 OA
ATOM     18  H   UNL     1       2.036   7.675  18.417  0.00  0.00    +0.000 HD
ENDBRANCH  14  17
ENDBRANCH   7  13
ENDBRANCH   1   8
BRANCH   6  19
ATOM     19  C   UNL     1       4.918   4.874  18.885  0.00  0.00    +0.000 C 
ATOM     20  O   UNL     1       5.582   5.361  19.796  0.00  0.00    +0.000 OA
BRANCH  19  21
ATOM     21  C   UNL     1       5.490   4.891  17.513  0.00  0.00    +0.000 A 
ATOM     22  C   UNL     1       4.699   5.046  16.372  0.00  0.00    +0.000 A 
ATOM     23  C   UNL     1       5.291   5.080  15.105  0.00  0.00    +0.000 A 
ATOM     24  C   UNL     1       6.668   4.912  14.973  0.00  0.00    +0.000 A 
ATOM     25 CL   UNL     1       7.388   4.963  13.412  0.00  0.00    +0.000 Cl
ATOM     26  C   UNL     1       7.461   4.693  16.098  0.00  0.00    +0.000 A 
ATOM     27  C   UNL     1       6.873   4.683  17.366  0.00  0.00    +0.000 A 
ENDBRANCH  19  21
ENDBRANCH   6  19
TORSDOF 6
ENDMDL
