MODEL 1
REMARK VINA RESULT:      -7.5      0.000      0.000
REMARK  Name = 
REMARK  6 active torsions:
REMARK  status: ('A' for Active; 'I' for Inactive)
REMARK    1  A    between atoms: C_6  and  C_7
REMARK    2  A    between atoms: C_7  and  O_8
REMARK    3  A    between atoms: C_7  and  C_9
REMARK    4  A    between atoms: C_9  and  O_10
REMARK    5  A    between atoms: O_10  and  C_11
REMARK    6  A    between atoms: C_11  and  C_13
REMARK                            x       y       z     vdW  Elec       q    Type
REMARK                         _______ _______ _______ _____ _____    ______ ____
ROOT
ATOM      1  C   UNL     1       5.886   4.373  17.643  0.00  0.00    +0.000 C 
ENDROOT
BRANCH   1   7
ATOM      2  O   UNL     1       8.568   5.870  13.395  0.00  0.00    +0.000 OA
ATOM      3  C   UNL     1       7.648   5.193  13.822  0.00  0.00    +0.000 C 
ATOM      4  C   UNL     1       6.758   4.392  12.983  0.00  0.00    +0.000 C 
ATOM      5  C   UNL     1       5.891   3.826  13.816  0.00  0.00    +0.000 C 
ATOM      6  C   UNL     1       6.192   4.238  15.142  0.00  0.00    +0.000 C 
ATOM      7  C   UNL     1       5.534   3.900  16.258  0.00  0.00    +0.000 C 
ATOM      8  O   UNL     1       7.299   5.077  15.142  0.00  0.00    +0.000 OA
ENDBRANCH   1   7
BRANCH   1   9
ATOM      9  O   UNL     1       7.303   4.268  17.806  0.00  0.00    +0.000 OA
ATOM     10  H   UNL     1       7.588   5.023  18.348  0.00  0.00    +0.000 HD
ENDBRANCH   1   9
BRANCH   1  11
ATOM     11  C   UNL     1       5.406   5.808  17.936  0.00  0.00    +0.000 C 
BRANCH  11  12
ATOM     12  O   UNL     1       4.185   6.111  17.239  0.00  0.00    +0.000 OA
BRANCH  12  13
ATOM     13  C   UNL     1       3.187   6.602  18.011  0.00  0.00    +0.000 C 
ATOM     14  O   UNL     1       2.931   7.785  18.171  0.00  0.00    +0.000 OA
BRANCH  13  15
ATOM     15  C   UNL     1       2.435   5.497  18.663  0.00  0.00    +0.000 A 
ATOM     16  C   UNL     1       1.974   4.451  17.853  0.00  0.00    +0.000 A 
ATOM     17  C   UNL     1       1.248   3.397  18.411  0.00  0.00    +0.000 A 
ATOM     18  C   UNL     1       0.979   3.384  19.779  0.00  0.00    +0.000 A 
ATOM     19  C   UNL     1       1.440   4.418  20.592  0.00  0.00    +0.000 A 
ATOM     20  C   UNL     1       2.168   5.473  20.039  0.00  0.00    +0.000 A 
ENDBRANCH  13  15
ENDBRANCH  12  13
ENDBRANCH  11  12
ENDBRANCH   1  11
TORSDOF 6
ENDMDL
MODEL 2
REMARK VINA RESULT:      -7.5      0.629      1.276
REMARK  Name = 
REMARK  6 active torsions:
REMARK  status: ('A' for Active; 'I' for Inactive)
REMARK    1  A    between atoms: C_6  and  C_7
REMARK    2  A    between atoms: C_7  and  O_8
REMARK    3  A    between atoms: C_7  and  C_9
REMARK    4  A    between atoms: C_9  and  O_10
REMARK    5  A    between atoms: O_10  and  C_11
REMARK    6  A    between atoms: C_11  and  C_13
REMARK                            x       y       z     vdW  Elec       q    Type
REMARK                         _______ _______ _______ _____ _____    ______ ____
ROOT
ATOM      1  C   UNL     1       5.623   4.374  16.854  0.00  0.00    +0.000 C 
ENDROOT
BRANCH   1   7
ATOM      2  O   UNL     1       8.833   6.011  13.047  0.00  0.00    +0.000 OA
ATOM      3  C   UNL     1       7.903   5.277  13.338  0.00  0.00    +0.000 C 
ATOM      4  C   UNL     1       7.210   4.409  12.388  0.00  0.00    +0.000 C 
ATOM      5  C   UNL     1       6.263   3.793  13.086  0.00  0.00    +0.000 C 
ATOM      6  C   UNL     1       6.325   4.237  14.435  0.00  0.00    +0.000 C 
ATOM      7  C   UNL     1       5.524   3.865  15.441  0.00  0.00    +0.000 C 
ATOM      8  O   UNL     1       7.361   5.149  14.590  0.00  0.00    +0.000 OA
ENDBRANCH   1   7
BRANCH   1   9
ATOM      9  O   UNL     1       6.984   4.256  17.279  0.00  0.00    +0.000 OA
ATOM     10  H   UNL     1       7.537   4.662  16.590  0.00  0.00    +0.000 HD
ENDBRANCH   1   9
BRANCH   1  11
ATOM     11  C   UNL     1       5.122   5.823  17.017  0.00  0.00    +0.000 C 
BRANCH  11  12
ATOM     12  O   UNL     1       4.500   6.027  18.297  0.00  0.00    +0.000 OA
BRANCH  12  13
ATOM     13  C   UNL     1       3.179   6.325  18.254  0.00  0.00    +0.000 C 
ATOM     14  O   UNL     1       2.704   7.384  17.876  0.00  0.00    +0.000 OA
BRANCH  13  15
ATOM     15  C   UNL     1       2.366   5.182  18.748  0.00  0.00    +0.000 A 
ATOM     16  C   UNL     1       2.010   5.168  20.103  0.00  0.00    +0.000 A 
ATOM     17  C   UNL     1       1.262   4.110  20.622  0.00  0.00    +0.000 A 
ATOM     18  C   UNL     1       0.868   3.062  19.792  0.00  0.00    +0.000 A 
ATOM     19  C   UNL     1       1.212   3.073  18.441  0.00  0.00    +0.000 A 
ATOM     20  C   UNL     1       1.959   4.129  17.917  0.00  0.00    +0.000 A 
ENDBRANCH  13  15
ENDBRANCH  12  13
ENDBRANCH  11  12
ENDBRANCH   1  11
TORSDOF 6
ENDMDL
MODEL 3
REMARK VINA RESULT:      -7.1      1.814      3.308
REMARK  Name = 
REMARK  6 active torsions:
REMARK  status: ('A' for Active; 'I' for Inactive)
REMARK    1  A    between atoms: C_6  and  C_7
REMARK    2  A    between atoms: C_7  and  O_8
REMARK    3  A    between atoms: C_7  and  C_9
REMARK    4  A    between atoms: C_9  and  O_10
REMARK    5  A    between atoms: O_10  and  C_11
REMARK    6  A    between atoms: C_11  and  C_13
REMARK                            x       y       z     vdW  Elec       q    Type
REMARK                         _______ _______ _______ _____ _____    ______ ____
ROOT
ATOM      1  C   UNL     1       5.331   4.235  15.769  0.00  0.00    +0.000 C 
ENDROOT
BRANCH   1   7
ATOM      2  O   UNL     1       8.238   5.250  20.011  0.00  0.00    +0.000 OA
ATOM      3  C   UNL     1       7.801   5.684  18.959  0.00  0.00    +0.000 C 
ATOM      4  C   UNL     1       8.029   7.044  18.471  0.00  0.00    +0.000 C 
ATOM      5  C   UNL     1       7.381   7.126  17.314  0.00  0.00    +0.000 C 
ATOM      6  C   UNL     1       6.751   5.879  17.053  0.00  0.00    +0.000 C 
ATOM      7  C   UNL     1       5.988   5.570  15.997  0.00  0.00    +0.000 C 
ATOM      8  O   UNL     1       7.030   4.979  18.072  0.00  0.00    +0.000 OA
ENDBRANCH   1   7
BRANCH   1   9
ATOM      9  O   UNL     1       6.357   3.259  15.571  0.00  0.00    +0.000 OA
ATOM     10  H   UNL     1       6.716   3.036  16.447  0.00  0.00    +0.000 HD
ENDBRANCH   1   9
BRANCH   1  11
ATOM     11  C   UNL     1       4.389   3.816  16.916  0.00  0.00    +0.000 C 
BRANCH  11  12
ATOM     12  O   UNL     1       3.247   4.685  17.006  0.00  0.00    +0.000 OA
BRANCH  12  13
ATOM     13  C   UNL     1       3.109   5.334  18.187  0.00  0.00    +0.000 C 
ATOM     14  O   UNL     1       3.518   6.457  18.431  0.00  0.00    +0.000 OA
BRANCH  13  15
ATOM     15  C   UNL     1       2.392   4.482  19.173  0.00  0.00    +0.000 A 
ATOM     16  C   UNL     1       2.769   4.578  20.519  0.00  0.00    +0.000 A 
ATOM     17  C   UNL     1       2.141   3.788  21.484  0.00  0.00    +0.000 A 
ATOM     18  C   UNL     1       1.135   2.900  21.109  0.00  0.00    +0.000 A 
ATOM     19  C   UNL     1       0.749   2.803  19.772  0.00  0.00    +0.000 A 
ATOM     20  C   UNL     1       1.374   3.592  18.804  0.00  0.00    +0.000 A 
ENDBRANCH  13  15
ENDBRANCH  12  13
ENDBRANCH  11  12
ENDBRANCH   1  11
TORSDOF 6
ENDMDL
MODEL 4
REMARK VINA RESULT:      -7.1      1.883      6.801
REMARK  Name = 
REMARK  6 active torsions:
REMARK  status: ('A' for Active; 'I' for Inactive)
REMARK    1  A    between atoms: C_6  and  C_7
REMARK    2  A    between atoms: C_7  and  O_8
REMARK    3  A    between atoms: C_7  and  C_9
REMARK    4  A    between atoms: C_9  and  O_10
REMARK    5  A    between atoms: O_10  and  C_11
REMARK    6  A    between atoms: C_11  and  C_13
REMARK                            x       y       z     vdW  Elec       q    Type
REMARK                         _______ _______ _______ _____ _____    ______ ____
ROOT
ATOM      1  C   UNL     1       5.302   5.068  18.701  0.00  0.00    +0.000 C 
ENDROOT
BRANCH   1   7
ATOM      2  O   UNL     1       1.023   2.049  18.939  0.00  0.00    +0.000 OA
ATOM      3  C   UNL     1       1.573   3.056  19.352  0.00  0.00    +0.000 C 
ATOM      4  C   UNL     1       0.973   3.991  20.303  0.00  0.00    +0.000 C 
ATOM      5  C   UNL     1       1.873   4.951  20.482  0.00  0.00    +0.000 C 
ATOM      6  C   UNL     1       3.013   4.666  19.682  0.00  0.00    +0.000 C 
ATOM      7  C   UNL     1       4.123   5.407  19.572  0.00  0.00    +0.000 C 
ATOM      8  O   UNL     1       2.828   3.475  18.994  0.00  0.00    +0.000 OA
ENDBRANCH   1   7
BRANCH   1   9
ATOM      9  O   UNL     1       5.710   3.729  18.999  0.00  0.00    +0.000 OA
ATOM     10  H   UNL     1       5.332   3.499  19.865  0.00  0.00    +0.000 HD
ENDBRANCH   1   9
BRANCH   1  11
ATOM     11  C   UNL     1       5.013   5.229  17.195  0.00  0.00    +0.000 C 
BRANCH  11  12
ATOM     12  O   UNL     1       6.138   5.793  16.498  0.00  0.00    +0.000 OA
BRANCH  12  13
ATOM     13  C   UNL     1       7.078   4.901  16.105  0.00  0.00    +0.000 C 
ATOM     14  O   UNL     1       7.882   4.349  16.839  0.00  0.00    +0.000 OA
BRANCH  13  15
ATOM     15  C   UNL     1       7.015   4.685  14.635  0.00  0.00    +0.000 A 
ATOM     16  C   UNL     1       6.123   3.718  14.152  0.00  0.00    +0.000 A 
ATOM     17  C   UNL     1       6.037   3.463  12.783  0.00  0.00    +0.000 A 
ATOM     18  C   UNL     1       6.840   4.171  11.890  0.00  0.00    +0.000 A 
ATOM     19  C   UNL     1       7.724   5.140  12.362  0.00  0.00    +0.000 A 
ATOM     20  C   UNL     1       7.813   5.400  13.731  0.00  0.00    +0.000 A 
ENDBRANCH  13  15
ENDBRANCH  12  13
ENDBRANCH  11  12
ENDBRANCH   1  11
TORSDOF 6
ENDMDL
MODEL 5
REMARK VINA RESULT:      -7.0      1.721      2.423
REMARK  Name = 
REMARK  6 active torsions:
REMARK  status: ('A' for Active; 'I' for Inactive)
REMARK    1  A    between atoms: C_6  and  C_7
REMARK    2  A    between atoms: C_7  and  O_8
REMARK    3  A    between atoms: C_7  and  C_9
REMARK    4  A    between atoms: C_9  and  O_10
REMARK    5  A    between atoms: O_10  and  C_11
REMARK    6  A    between atoms: C_11  and  C_13
REMARK                            x       y       z     vdW  Elec       q    Type
REMARK                         _______ _______ _______ _____ _____    ______ ____
ROOT
ATOM      1  C   UNL     1       6.017   4.532  17.260  0.00  0.00    +0.000 C 
ENDROOT
BRANCH   1   7
ATOM      2  O   UNL     1       8.724   5.956  13.003  0.00  0.00    +0.000 OA
ATOM      3  C   UNL     1       7.837   5.245  13.445  0.00  0.00    +0.000 C 
ATOM      4  C   UNL     1       7.027   4.338  12.632  0.00  0.00    +0.000 C 
ATOM      5  C   UNL     1       6.174   3.765  13.474  0.00  0.00    +0.000 C 
ATOM      6  C   UNL     1       6.408   4.273  14.781  0.00  0.00    +0.000 C 
ATOM      7  C   UNL     1       5.739   3.957  15.897  0.00  0.00    +0.000 C 
ATOM      8  O   UNL     1       7.457   5.182  14.759  0.00  0.00    +0.000 OA
ENDBRANCH   1   7
BRANCH   1   9
ATOM      9  O   UNL     1       6.311   5.923  17.108  0.00  0.00    +0.000 OA
ATOM     10  H   UNL     1       5.657   6.415  17.634  0.00  0.00    +0.000 HD
ENDBRANCH   1   9
BRANCH   1  11
ATOM     11  C   UNL     1       4.860   4.322  18.257  0.00  0.00    +0.000 C 
BRANCH  11  12
ATOM     12  O   UNL     1       5.316   3.705  19.474  0.00  0.00    +0.000 OA
BRANCH  12  13
ATOM     13  C   UNL     1       4.649   2.585  19.837  0.00  0.00    +0.000 C 
ATOM     14  O   UNL     1       5.162   1.517  20.131  0.00  0.00    +0.000 OA
BRANCH  13  15
ATOM     15  C   UNL     1       3.180   2.819  19.820  0.00  0.00    +0.000 A 
ATOM     16  C   UNL     1       2.418   2.133  18.865  0.00  0.00    +0.000 A 
ATOM     17  C   UNL     1       1.038   2.329  18.793  0.00  0.00    +0.000 A 
ATOM     18  C   UNL     1       0.414   3.211  19.673  0.00  0.00    +0.000 A 
ATOM     19  C   UNL     1       1.164   3.893  20.631  0.00  0.00    +0.000 A 
ATOM     20  C   UNL     1       2.544   3.698  20.707  0.00  0.00    +0.000 A 
ENDBRANCH  13  15
ENDBRANCH  12  13
ENDBRANCH  11  12
ENDBRANCH   1  11
TORSDOF 6
ENDMDL
MODEL 6
REMARK VINA RESULT:      -7.0      1.466      1.961
REMARK  Name = 
REMARK  6 active torsions:
REMARK  status: ('A' for Active; 'I' for Inactive)
REMARK    1  A    between atoms: C_6  and  C_7
REMARK    2  A    between atoms: C_7  and  O_8
REMARK    3  A    between atoms: C_7  and  C_9
REMARK    4  A    between atoms: C_9  and  O_10
REMARK    5  A    between atoms: O_10  and  C_11
REMARK    6  A    between atoms: C_11  and  C_13
REMARK                            x       y       z     vdW  Elec       q    Type
REMARK                         _______ _______ _______ _____ _____    ______ ____
ROOT
ATOM      1  C   UNL     1       5.525   5.873  16.988  0.00  0.00    +0.000 C 
ENDROOT
BRANCH   1   7
ATOM      2  O   UNL     1       8.429   5.679  12.628  0.00  0.00    +0.000 OA
ATOM      3  C   UNL     1       7.508   5.178  13.252  0.00  0.00    +0.000 C 
ATOM      4  C   UNL     1       6.707   4.052  12.774  0.00  0.00    +0.000 C 
ATOM      5  C   UNL     1       5.808   3.820  13.724  0.00  0.00    +0.000 C 
ATOM      6  C   UNL     1       6.004   4.754  14.778  0.00  0.00    +0.000 C 
ATOM      7  C   UNL     1       5.285   4.858  15.903  0.00  0.00    +0.000 C 
ATOM      8  O   UNL     1       7.075   5.586  14.486  0.00  0.00    +0.000 OA
ENDBRANCH   1   7
BRANCH   1   9
ATOM      9  O   UNL     1       5.888   7.111  16.371  0.00  0.00    +0.000 OA
ATOM     10  H   UNL     1       5.796   6.993  15.410  0.00  0.00    +0.000 HD
ENDBRANCH   1   9
BRANCH   1  11
ATOM     11  C   UNL     1       4.314   6.062  17.924  0.00  0.00    +0.000 C 
BRANCH  11  12
ATOM     12  O   UNL     1       4.600   5.606  19.257  0.00  0.00    +0.000 OA
BRANCH  12  13
ATOM     13  C   UNL     1       4.588   4.262  19.422  0.00  0.00    +0.000 C 
ATOM     14  O   UNL     1       5.575   3.549  19.507  0.00  0.00    +0.000 OA
BRANCH  13  15
ATOM     15  C   UNL     1       3.192   3.752  19.472  0.00  0.00    +0.000 A 
ATOM     16  C   UNL     1       2.812   2.787  18.529  0.00  0.00    +0.000 A 
ATOM     17  C   UNL     1       1.508   2.287  18.521  0.00  0.00    +0.000 A 
ATOM     18  C   UNL     1       0.580   2.749  19.452  0.00  0.00    +0.000 A 
ATOM     19  C   UNL     1       0.952   3.703  20.397  0.00  0.00    +0.000 A 
ATOM     20  C   UNL     1       2.254   4.205  20.411  0.00  0.00    +0.000 A 
ENDBRANCH  13  15
ENDBRANCH  12  13
ENDBRANCH  11  12
ENDBRANCH   1  11
TORSDOF 6
ENDMDL
MODEL 7
REMARK VINA RESULT:      -7.0      1.646      1.988
REMARK  Name = 
REMARK  6 active torsions:
REMARK  status: ('A' for Active; 'I' for Inactive)
REMARK    1  A    between atoms: C_6  and  C_7
REMARK    2  A    between atoms: C_7  and  O_8
REMARK    3  A    between atoms: C_7  and  C_9
REMARK    4  A    between atoms: C_9  and  O_10
REMARK    5  A    between atoms: O_10  and  C_11
REMARK    6  A    between atoms: C_11  and  C_13
REMARK                            x       y       z     vdW  Elec       q    Type
REMARK                         _______ _______ _______ _____ _____    ______ ____
ROOT
ATOM      1  C   UNL     1       7.429   5.454  17.706  0.00  0.00    +0.000 C 
ENDROOT
BRANCH   1   7
ATOM      2  O   UNL     1       8.122   5.689  12.515  0.00  0.00    +0.000 OA
ATOM      3  C   UNL     1       7.535   5.139  13.432  0.00  0.00    +0.000 C 
ATOM      4  C   UNL     1       6.537   4.085  13.256  0.00  0.00    +0.000 C 
ATOM      5  C   UNL     1       6.129   3.766  14.480  0.00  0.00    +0.000 C 
ATOM      6  C   UNL     1       6.824   4.575  15.420  0.00  0.00    +0.000 C 
ATOM      7  C   UNL     1       6.676   4.568  16.750  0.00  0.00    +0.000 C 
ATOM      8  O   UNL     1       7.712   5.416  14.762  0.00  0.00    +0.000 OA
ENDBRANCH   1   7
BRANCH   1   9
ATOM      9  O   UNL     1       7.494   6.767  17.143  0.00  0.00    +0.000 OA
ATOM     10  H   UNL     1       7.023   6.740  16.293  0.00  0.00    +0.000 HD
ENDBRANCH   1   9
BRANCH   1  11
ATOM     11  C   UNL     1       6.809   5.492  19.117  0.00  0.00    +0.000 C 
BRANCH  11  12
ATOM     12  O   UNL     1       5.753   4.526  19.257  0.00  0.00    +0.000 OA
BRANCH  12  13
ATOM     13  C   UNL     1       4.502   5.043  19.297  0.00  0.00    +0.000 C 
ATOM     14  O   UNL     1       4.224   6.213  19.508  0.00  0.00    +0.000 OA
BRANCH  13  15
ATOM     15  C   UNL     1       3.488   3.982  19.060  0.00  0.00    +0.000 A 
ATOM     16  C   UNL     1       2.142   4.299  19.285  0.00  0.00    +0.000 A 
ATOM     17  C   UNL     1       1.150   3.335  19.094  0.00  0.00    +0.000 A 
ATOM     18  C   UNL     1       1.499   2.051  18.679  0.00  0.00    +0.000 A 
ATOM     19  C   UNL     1       2.835   1.729  18.446  0.00  0.00    +0.000 A 
ATOM     20  C   UNL     1       3.830   2.691  18.634  0.00  0.00    +0.000 A 
ENDBRANCH  13  15
ENDBRANCH  12  13
ENDBRANCH  11  12
ENDBRANCH   1  11
TORSDOF 6
ENDMDL
MODEL 8
REMARK VINA RESULT:      -7.0      2.321      6.856
REMARK  Name = 
REMARK  6 active torsions:
REMARK  status: ('A' for Active; 'I' for Inactive)
REMARK    1  A    between atoms: C_6  and  C_7
REMARK    2  A    between atoms: C_7  and  O_8
REMARK    3  A    between atoms: C_7  and  C_9
REMARK    4  A    between atoms: C_9  and  O_10
REMARK    5  A    between atoms: O_10  and  C_11
REMARK    6  A    between atoms: C_11  and  C_13
REMARK                            x       y       z     vdW  Elec       q    Type
REMARK                         _______ _______ _______ _____ _____    ______ ____
ROOT
ATOM      1  C   UNL     1       5.163   4.228  18.902  0.00  0.00    +0.000 C 
ENDROOT
BRANCH   1   7
ATOM      2  O   UNL     1       1.416   2.487  22.128  0.00  0.00    +0.000 OA
ATOM      3  C   UNL     1       1.662   3.004  21.051  0.00  0.00    +0.000 C 
ATOM      4  C   UNL     1       0.649   3.359  20.059  0.00  0.00    +0.000 C 
ATOM      5  C   UNL     1       1.315   3.877  19.033  0.00  0.00    +0.000 C 
ATOM      6  C   UNL     1       2.705   3.860  19.333  0.00  0.00    +0.000 C 
ATOM      7  C   UNL     1       3.702   4.276  18.543  0.00  0.00    +0.000 C 
ATOM      8  O   UNL     1       2.913   3.331  20.599  0.00  0.00    +0.000 OA
ENDBRANCH   1   7
BRANCH   1   9
ATOM      9  O   UNL     1       5.460   2.919  19.398  0.00  0.00    +0.000 OA
ATOM     10  H   UNL     1       6.408   2.900  19.613  0.00  0.00    +0.000 HD
ENDBRANCH   1   9
BRANCH   1  11
ATOM     11  C   UNL     1       6.092   4.591  17.726  0.00  0.00    +0.000 C 
BRANCH  11  12
ATOM     12  O   UNL     1       5.471   4.317  16.458  0.00  0.00    +0.000 OA
BRANCH  12  13
ATOM     13  C   UNL     1       5.577   5.305  15.539  0.00  0.00    +0.000 C 
ATOM     14  O   UNL     1       5.302   6.480  15.726  0.00  0.00    +0.000 OA
BRANCH  13  15
ATOM     15  C   UNL     1       6.068   4.767  14.243  0.00  0.00    +0.000 A 
ATOM     16  C   UNL     1       5.264   3.834  13.574  0.00  0.00    +0.000 A 
ATOM     17  C   UNL     1       5.685   3.283  12.362  0.00  0.00    +0.000 A 
ATOM     18  C   UNL     1       6.909   3.661  11.814  0.00  0.00    +0.000 A 
ATOM     19  C   UNL     1       7.712   4.594  12.469  0.00  0.00    +0.000 A 
ATOM     20  C   UNL     1       7.294   5.148  13.681  0.00  0.00    +0.000 A 
ENDBRANCH  13  15
ENDBRANCH  12  13
ENDBRANCH  11  12
ENDBRANCH   1  11
TORSDOF 6
ENDMDL
MODEL 9
REMARK VINA RESULT:      -7.0      1.637      1.814
REMARK  Name = 
REMARK  6 active torsions:
REMARK  status: ('A' for Active; 'I' for Inactive)
REMARK    1  A    between atoms: C_6  and  C_7
REMARK    2  A    between atoms: C_7  and  O_8
REMARK    3  A    between atoms: C_7  and  C_9
REMARK    4  A    between atoms: C_9  and  O_10
REMARK    5  A    between atoms: O_10  and  C_11
REMARK    6  A    between atoms: C_11  and  C_13
REMARK                            x       y       z     vdW  Elec       q    Type
REMARK                         _______ _______ _______ _____ _____    ______ ____
ROOT
ATOM      1  C   UNL     1       7.401   5.452  17.706  0.00  0.00    +0.000 C 
ENDROOT
BRANCH   1   7
ATOM      2  O   UNL     1       8.124   5.699  12.520  0.00  0.00    +0.000 OA
ATOM      3  C   UNL     1       7.536   5.144  13.432  0.00  0.00    +0.000 C 
ATOM      4  C   UNL     1       6.546   4.083  13.249  0.00  0.00    +0.000 C 
ATOM      5  C   UNL     1       6.133   3.760  14.469  0.00  0.00    +0.000 C 
ATOM      6  C   UNL     1       6.816   4.572  15.415  0.00  0.00    +0.000 C 
ATOM      7  C   UNL     1       6.660   4.562  16.744  0.00  0.00    +0.000 C 
ATOM      8  O   UNL     1       7.702   5.421  14.764  0.00  0.00    +0.000 OA
ENDBRANCH   1   7
BRANCH   1   9
ATOM      9  O   UNL     1       7.474   6.763  17.138  0.00  0.00    +0.000 OA
ATOM     10  H   UNL     1       8.200   6.757  16.491  0.00  0.00    +0.000 HD
ENDBRANCH   1   9
BRANCH   1  11
ATOM     11  C   UNL     1       6.762   5.498  19.108  0.00  0.00    +0.000 C 
BRANCH  11  12
ATOM     12  O   UNL     1       5.695   4.541  19.235  0.00  0.00    +0.000 OA
BRANCH  12  13
ATOM     13  C   UNL     1       4.452   5.072  19.308  0.00  0.00    +0.000 C 
ATOM     14  O   UNL     1       4.194   6.252  19.484  0.00  0.00    +0.000 OA
BRANCH  13  15
ATOM     15  C   UNL     1       3.419   4.013  19.157  0.00  0.00    +0.000 A 
ATOM     16  C   UNL     1       3.825   2.768  18.658  0.00  0.00    +0.000 A 
ATOM     17  C   UNL     1       2.892   1.744  18.480  0.00  0.00    +0.000 A 
ATOM     18  C   UNL     1       1.553   1.959  18.799  0.00  0.00    +0.000 A 
ATOM     19  C   UNL     1       1.143   3.192  19.303  0.00  0.00    +0.000 A 
ATOM     20  C   UNL     1       2.071   4.219  19.484  0.00  0.00    +0.000 A 
ENDBRANCH  13  15
ENDBRANCH  12  13
ENDBRANCH  11  12
ENDBRANCH   1  11
TORSDOF 6
ENDMDL
