MODEL 1
REMARK VINA RESULT:      -8.8      0.000      0.000
REMARK  Name = 
REMARK  7 active torsions:
REMARK  status: ('A' for Active; 'I' for Inactive)
REMARK    1  A    between atoms: C_2  and  C_4
REMARK    2  A    between atoms: C_7  and  O_8
REMARK    3  A    between atoms: O_8  and  C_9
REMARK    4  A    between atoms: N_18  and  C_19
REMARK    5  A    between atoms: C_19  and  C_20
REMARK    6  A    between atoms: C_20  and  C_21
REMARK    7  A    between atoms: C_21  and  N_22
REMARK                            x       y       z     vdW  Elec       q    Type
REMARK                         _______ _______ _______ _____ _____    ______ ____
ROOT
ATOM      1  C   UNL     1       2.084   7.207  19.267  0.00  0.00    +0.000 A 
ATOM      2  C   UNL     1       1.848   6.785  20.568  0.00  0.00    +0.000 A 
ATOM      3  C   UNL     1       1.627   5.436  20.816  0.00  0.00    +0.000 A 
ATOM      4  C   UNL     1       1.691   4.493  19.772  0.00  0.00    +0.000 A 
ATOM      5  C   UNL     1       1.864   4.926  18.448  0.00  0.00    +0.000 A 
ATOM      6  C   UNL     1       2.122   6.280  18.217  0.00  0.00    +0.000 A 
ATOM      7  C   UNL     1       1.842   3.956  17.294  0.00  0.00    +0.000 C 
ATOM      8  C   UNL     1       3.060   3.041  17.249  0.00  0.00    +0.000 C 
ATOM      9  C   UNL     1       3.071   1.957  18.336  0.00  0.00    +0.000 C 
ATOM     10  N   UNL     1       3.060   2.396  19.739  0.00  0.00    +0.000 NA
ATOM     11  C   UNL     1       1.776   3.022  20.117  0.00  0.00    +0.000 C 
ENDROOT
BRANCH   1  12
ATOM     12  O   UNL     1       2.293   8.555  19.095  0.00  0.00    +0.000 OA
BRANCH  12  16
ATOM     13  C   UNL     1      -1.067  10.921  18.959  0.00  0.00    +0.000 A 
ATOM     14  C   UNL     1      -0.427  10.777  20.185  0.00  0.00    +0.000 A 
ATOM     15  C   UNL     1       0.744  10.033  20.249  0.00  0.00    +0.000 A 
ATOM     16  C   UNL     1       1.194   9.384  19.100  0.00  0.00    +0.000 A 
ATOM     17  N   UNL     1       0.594   9.520  17.898  0.00  0.00    +0.000 NA
ATOM     18  C   UNL     1      -0.524  10.284  17.853  0.00  0.00    +0.000 A 
BRANCH  13  20
ATOM     19  N   UNL     1      -2.783  11.880  17.517  0.00  0.00    +0.000 N 
ATOM     20  C   UNL     1      -2.308  11.708  18.793  0.00  0.00    +0.000 C 
ATOM     21  O   UNL     1      -2.900  12.173  19.758  0.00  0.00    +0.000 OA
ATOM     22  H   UNL     1      -3.676  12.341  17.435  0.00  0.00    +0.000 HD
ATOM     23  H   UNL     1      -2.460  11.329  16.733  0.00  0.00    +0.000 HD
ENDBRANCH  13  20
ENDBRANCH  12  16
ENDBRANCH   1  12
BRANCH  10  24
ATOM     24  C   UNL     1       4.267   3.176  20.078  0.00  0.00    +0.000 C 
BRANCH  24  25
ATOM     25  C   UNL     1       5.190   3.563  18.917  0.00  0.00    +0.000 C 
BRANCH  25  26
ATOM     26  C   UNL     1       5.817   4.941  19.079  0.00  0.00    +0.000 C 
BRANCH  26  27
ATOM     27  N   UNL     1       7.239   4.957  18.689  0.00  0.00    +0.000 NA
ATOM     28  C   UNL     1       7.885   6.284  18.782  0.00  0.00    +0.000 C 
ATOM     29  C   UNL     1       7.441   7.276  17.696  0.00  0.00    +0.000 C 
ATOM     30  O   UNL     1       7.605   6.733  16.379  0.00  0.00    +0.000 OA
ATOM     31  C   UNL     1       6.913   5.485  16.249  0.00  0.00    +0.000 C 
ATOM     32  C   UNL     1       7.395   4.471  17.299  0.00  0.00    +0.000 C 
ENDBRANCH  26  27
ENDBRANCH  25  26
ENDBRANCH  24  25
ENDBRANCH  10  24
TORSDOF 7
ENDMDL
MODEL 2
REMARK VINA RESULT:      -8.5      0.893      1.081
REMARK  Name = 
REMARK  7 active torsions:
REMARK  status: ('A' for Active; 'I' for Inactive)
REMARK    1  A    between atoms: C_2  and  C_4
REMARK    2  A    between atoms: C_7  and  O_8
REMARK    3  A    between atoms: O_8  and  C_9
REMARK    4  A    between atoms: N_18  and  C_19
REMARK    5  A    between atoms: C_19  and  C_20
REMARK    6  A    between atoms: C_20  and  C_21
REMARK    7  A    between atoms: C_21  and  N_22
REMARK                            x       y       z     vdW  Elec       q    Type
REMARK                         _______ _______ _______ _____ _____    ______ ____
ROOT
ATOM      1  C   UNL     1       2.247   7.221  18.808  0.00  0.00    +0.000 A 
ATOM      2  C   UNL     1       2.024   7.023  20.164  0.00  0.00    +0.000 A 
ATOM      3  C   UNL     1       1.762   5.741  20.630  0.00  0.00    +0.000 A 
ATOM      4  C   UNL     1       1.770   4.640  19.751  0.00  0.00    +0.000 A 
ATOM      5  C   UNL     1       1.930   4.848  18.371  0.00  0.00    +0.000 A 
ATOM      6  C   UNL     1       2.229   6.136  17.921  0.00  0.00    +0.000 A 
ATOM      7  C   UNL     1       1.849   3.706  17.390  0.00  0.00    +0.000 C 
ATOM      8  C   UNL     1       3.033   2.750  17.475  0.00  0.00    +0.000 C 
ATOM      9  C   UNL     1       3.029   1.856  18.722  0.00  0.00    +0.000 C 
ATOM     10  N   UNL     1       3.064   2.515  20.036  0.00  0.00    +0.000 NA
ATOM     11  C   UNL     1       1.811   3.242  20.327  0.00  0.00    +0.000 C 
ENDROOT
BRANCH   1  12
ATOM     12  O   UNL     1       2.499   8.515  18.416  0.00  0.00    +0.000 OA
BRANCH  12  16
ATOM     13  C   UNL     1      -0.428  11.389  18.695  0.00  0.00    +0.000 A 
ATOM     14  C   UNL     1      -0.727  10.229  17.989  0.00  0.00    +0.000 A 
ATOM     15  C   UNL     1       0.221   9.216  17.929  0.00  0.00    +0.000 A 
ATOM     16  C   UNL     1       1.472   9.428  18.507  0.00  0.00    +0.000 A 
ATOM     17  N   UNL     1       1.779  10.541  19.206  0.00  0.00    +0.000 NA
ATOM     18  C   UNL     1       0.823  11.498  19.284  0.00  0.00    +0.000 A 
BRANCH  13  20
ATOM     19  N   UNL     1      -0.877  13.785  18.732  0.00  0.00    +0.000 N 
ATOM     20  C   UNL     1      -1.381  12.512  18.827  0.00  0.00    +0.000 C 
ATOM     21  O   UNL     1      -2.577  12.315  18.994  0.00  0.00    +0.000 OA
ATOM     22  H   UNL     1      -1.554  14.531  18.733  0.00  0.00    +0.000 HD
ATOM     23  H   UNL     1       0.046  13.983  18.369  0.00  0.00    +0.000 HD
ENDBRANCH  13  20
ENDBRANCH  12  16
ENDBRANCH   1  12
BRANCH  10  24
ATOM     24  C   UNL     1       4.304   3.293  20.226  0.00  0.00    +0.000 C 
BRANCH  24  25
ATOM     25  C   UNL     1       5.121   3.612  18.968  0.00  0.00    +0.000 C 
BRANCH  25  26
ATOM     26  C   UNL     1       5.733   5.007  18.984  0.00  0.00    +0.000 C 
BRANCH  26  27
ATOM     27  N   UNL     1       7.173   4.988  18.669  0.00  0.00    +0.000 NA
ATOM     28  C   UNL     1       7.838   6.305  18.766  0.00  0.00    +0.000 C 
ATOM     29  C   UNL     1       7.469   7.280  17.636  0.00  0.00    +0.000 C 
ATOM     30  O   UNL     1       7.692   6.703  16.342  0.00  0.00    +0.000 OA
ATOM     31  C   UNL     1       6.984   5.465  16.204  0.00  0.00    +0.000 C 
ATOM     32  C   UNL     1       7.392   4.467  17.301  0.00  0.00    +0.000 C 
ENDBRANCH  26  27
ENDBRANCH  25  26
ENDBRANCH  24  25
ENDBRANCH  10  24
TORSDOF 7
ENDMDL
MODEL 3
REMARK VINA RESULT:      -8.4      0.688      1.184
REMARK  Name = 
REMARK  7 active torsions:
REMARK  status: ('A' for Active; 'I' for Inactive)
REMARK    1  A    between atoms: C_2  and  C_4
REMARK    2  A    between atoms: C_7  and  O_8
REMARK    3  A    between atoms: O_8  and  C_9
REMARK    4  A    between atoms: N_18  and  C_19
REMARK    5  A    between atoms: C_19  and  C_20
REMARK    6  A    between atoms: C_20  and  C_21
REMARK    7  A    between atoms: C_21  and  N_22
REMARK                            x       y       z     vdW  Elec       q    Type
REMARK                         _______ _______ _______ _____ _____    ______ ____
ROOT
ATOM      1  C   UNL     1       2.048   7.161  19.208  0.00  0.00    +0.000 A 
ATOM      2  C   UNL     1       1.915   6.809  20.545  0.00  0.00    +0.000 A 
ATOM      3  C   UNL     1       1.673   5.483  20.878  0.00  0.00    +0.000 A 
ATOM      4  C   UNL     1       1.613   4.490  19.881  0.00  0.00    +0.000 A 
ATOM      5  C   UNL     1       1.682   4.854  18.526  0.00  0.00    +0.000 A 
ATOM      6  C   UNL     1       1.962   6.185  18.206  0.00  0.00    +0.000 A 
ATOM      7  C   UNL     1       1.525   3.832  17.428  0.00  0.00    +0.000 C 
ATOM      8  C   UNL     1       2.703   2.871  17.323  0.00  0.00    +0.000 C 
ATOM      9  C   UNL     1       2.775   1.840  18.458  0.00  0.00    +0.000 C 
ATOM     10  N   UNL     1       2.904   2.344  19.833  0.00  0.00    +0.000 NA
ATOM     11  C   UNL     1       1.680   3.035  20.290  0.00  0.00    +0.000 C 
ENDROOT
BRANCH   1  12
ATOM     12  O   UNL     1       2.285   8.491  18.951  0.00  0.00    +0.000 OA
BRANCH  12  16
ATOM     13  C   UNL     1      -1.007  10.954  18.937  0.00  0.00    +0.000 A 
ATOM     14  C   UNL     1      -0.242  10.904  20.098  0.00  0.00    +0.000 A 
ATOM     15  C   UNL     1       0.908  10.127  20.112  0.00  0.00    +0.000 A 
ATOM     16  C   UNL     1       1.215   9.356  18.990  0.00  0.00    +0.000 A 
ATOM     17  N   UNL     1       0.493   9.400  17.850  0.00  0.00    +0.000 NA
ATOM     18  C   UNL     1      -0.603  10.196  17.848  0.00  0.00    +0.000 A 
BRANCH  13  20
ATOM     19  N   UNL     1      -2.737  11.991  17.568  0.00  0.00    +0.000 N 
ATOM     20  C   UNL     1      -2.237  11.767  18.826  0.00  0.00    +0.000 C 
ATOM     21  O   UNL     1      -2.801  12.208  19.819  0.00  0.00    +0.000 OA
ATOM     22  H   UNL     1      -3.623  12.469  17.521  0.00  0.00    +0.000 HD
ATOM     23  H   UNL     1      -2.441  11.462  16.758  0.00  0.00    +0.000 HD
ENDBRANCH  13  20
ENDBRANCH  12  16
ENDBRANCH   1  12
BRANCH  10  24
ATOM     24  C   UNL     1       4.161   3.094  20.026  0.00  0.00    +0.000 C 
BRANCH  24  25
ATOM     25  C   UNL     1       5.019   3.340  18.779  0.00  0.00    +0.000 C 
BRANCH  25  26
ATOM     26  C   UNL     1       5.597   4.748  18.713  0.00  0.00    +0.000 C 
BRANCH  26  27
ATOM     27  N   UNL     1       5.203   5.455  17.481  0.00  0.00    +0.000 NA
ATOM     28  C   UNL     1       5.564   4.755  16.230  0.00  0.00    +0.000 C 
ATOM     29  C   UNL     1       7.069   4.769  15.914  0.00  0.00    +0.000 C 
ATOM     30  O   UNL     1       7.599   6.102  15.911  0.00  0.00    +0.000 OA
ATOM     31  C   UNL     1       7.327   6.765  17.152  0.00  0.00    +0.000 C 
ATOM     32  C   UNL     1       5.818   6.801  17.443  0.00  0.00    +0.000 C 
ENDBRANCH  26  27
ENDBRANCH  25  26
ENDBRANCH  24  25
ENDBRANCH  10  24
TORSDOF 7
ENDMDL
MODEL 4
REMARK VINA RESULT:      -8.2      3.658      8.570
REMARK  Name = 
REMARK  7 active torsions:
REMARK  status: ('A' for Active; 'I' for Inactive)
REMARK    1  A    between atoms: C_2  and  C_4
REMARK    2  A    between atoms: C_7  and  O_8
REMARK    3  A    between atoms: O_8  and  C_9
REMARK    4  A    between atoms: N_18  and  C_19
REMARK    5  A    between atoms: C_19  and  C_20
REMARK    6  A    between atoms: C_20  and  C_21
REMARK    7  A    between atoms: C_21  and  N_22
REMARK                            x       y       z     vdW  Elec       q    Type
REMARK                         _______ _______ _______ _____ _____    ______ ____
ROOT
ATOM      1  C   UNL     1       2.207   8.329  18.570  0.00  0.00    +0.000 A 
ATOM      2  C   UNL     1       1.561   9.222  17.725  0.00  0.00    +0.000 A 
ATOM      3  C   UNL     1       0.448   9.913  18.189  0.00  0.00    +0.000 A 
ATOM      4  C   UNL     1       0.005   9.754  19.516  0.00  0.00    +0.000 A 
ATOM      5  C   UNL     1       0.616   8.804  20.349  0.00  0.00    +0.000 A 
ATOM      6  C   UNL     1       1.755   8.142  19.883  0.00  0.00    +0.000 A 
ATOM      7  C   UNL     1       0.107   8.537  21.743  0.00  0.00    +0.000 C 
ATOM      8  C   UNL     1       0.367   9.685  22.712  0.00  0.00    +0.000 C 
ATOM      9  C   UNL     1      -0.521  10.916  22.478  0.00  0.00    +0.000 C 
ATOM     10  N   UNL     1      -0.434  11.582  21.171  0.00  0.00    +0.000 NA
ATOM     11  C   UNL     1      -0.985  10.749  20.083  0.00  0.00    +0.000 C 
ENDROOT
BRANCH   1  12
ATOM     12  O   UNL     1       3.298   7.678  18.045  0.00  0.00    +0.000 OA
BRANCH  12  16
ATOM     13  C   UNL     1       3.693   3.643  18.729  0.00  0.00    +0.000 A 
ATOM     14  C   UNL     1       2.474   4.100  18.238  0.00  0.00    +0.000 A 
ATOM     15  C   UNL     1       2.331   5.449  17.941  0.00  0.00    +0.000 A 
ATOM     16  C   UNL     1       3.386   6.316  18.223  0.00  0.00    +0.000 A 
ATOM     17  N   UNL     1       4.580   5.893  18.688  0.00  0.00    +0.000 NA
ATOM     18  C   UNL     1       4.708   4.566  18.933  0.00  0.00    +0.000 A 
BRANCH  13  20
ATOM     19  N   UNL     1       4.899   1.948  19.998  0.00  0.00    +0.000 N 
ATOM     20  C   UNL     1       3.940   2.223  19.056  0.00  0.00    +0.000 C 
ATOM     21  O   UNL     1       3.301   1.326  18.522  0.00  0.00    +0.000 OA
ATOM     22  H   UNL     1       4.988   0.982  20.272  0.00  0.00    +0.000 HD
ATOM     23  H   UNL     1       5.276   2.652  20.618  0.00  0.00    +0.000 HD
ENDBRANCH  13  20
ENDBRANCH  12  16
ENDBRANCH   1  12
BRANCH  10  24
ATOM     24  C   UNL     1       0.915  12.131  20.925  0.00  0.00    +0.000 C 
BRANCH  24  25
ATOM     25  C   UNL     1       1.015  13.312  19.951  0.00  0.00    +0.000 C 
BRANCH  25  26
ATOM     26  C   UNL     1       2.375  13.420  19.273  0.00  0.00    +0.000 C 
BRANCH  26  27
ATOM     27  N   UNL     1       3.152  14.574  19.761  0.00  0.00    +0.000 NA
ATOM     28  C   UNL     1       2.396  15.844  19.813  0.00  0.00    +0.000 C 
ATOM     29  C   UNL     1       2.104  16.457  18.434  0.00  0.00    +0.000 C 
ATOM     30  O   UNL     1       3.300  16.619  17.659  0.00  0.00    +0.000 OA
ATOM     31  C   UNL     1       4.001  15.375  17.531  0.00  0.00    +0.000 C 
ATOM     32  C   UNL     1       4.344  14.787  18.909  0.00  0.00    +0.000 C 
ENDBRANCH  26  27
ENDBRANCH  25  26
ENDBRANCH  24  25
ENDBRANCH  10  24
TORSDOF 7
ENDMDL
MODEL 5
REMARK VINA RESULT:      -8.1      1.331      1.719
REMARK  Name = 
REMARK  7 active torsions:
REMARK  status: ('A' for Active; 'I' for Inactive)
REMARK    1  A    between atoms: C_2  and  C_4
REMARK    2  A    between atoms: C_7  and  O_8
REMARK    3  A    between atoms: O_8  and  C_9
REMARK    4  A    between atoms: N_18  and  C_19
REMARK    5  A    between atoms: C_19  and  C_20
REMARK    6  A    between atoms: C_20  and  C_21
REMARK    7  A    between atoms: C_21  and  N_22
REMARK                            x       y       z     vdW  Elec       q    Type
REMARK                         _______ _______ _______ _____ _____    ______ ____
ROOT
ATOM      1  C   UNL     1       2.242   7.261  18.661  0.00  0.00    +0.000 A 
ATOM      2  C   UNL     1       2.129   7.174  20.043  0.00  0.00    +0.000 A 
ATOM      3  C   UNL     1       1.800   5.956  20.623  0.00  0.00    +0.000 A 
ATOM      4  C   UNL     1       1.631   4.804  19.830  0.00  0.00    +0.000 A 
ATOM      5  C   UNL     1       1.681   4.905  18.431  0.00  0.00    +0.000 A 
ATOM      6  C   UNL     1       2.048   6.127  17.862  0.00  0.00    +0.000 A 
ATOM      7  C   UNL     1       1.410   3.714  17.547  0.00  0.00    +0.000 C 
ATOM      8  C   UNL     1       2.509   2.659  17.599  0.00  0.00    +0.000 C 
ATOM      9  C   UNL     1       2.543   1.853  18.905  0.00  0.00    +0.000 C 
ATOM     10  N   UNL     1       2.756   2.590  20.159  0.00  0.00    +0.000 NA
ATOM     11  C   UNL     1       1.604   3.449  20.503  0.00  0.00    +0.000 C 
ENDROOT
BRANCH   1  12
ATOM     12  O   UNL     1       2.567   8.498  18.156  0.00  0.00    +0.000 OA
BRANCH  12  16
ATOM     13  C   UNL     1      -0.030  11.665  18.510  0.00  0.00    +0.000 A 
ATOM     14  C   UNL     1      -0.562  10.428  18.158  0.00  0.00    +0.000 A 
ATOM     15  C   UNL     1       0.282   9.329  18.088  0.00  0.00    +0.000 A 
ATOM     16  C   UNL     1       1.649   9.514  18.293  0.00  0.00    +0.000 A 
ATOM     17  N   UNL     1       2.184  10.701  18.648  0.00  0.00    +0.000 NA
ATOM     18  C   UNL     1       1.333  11.752  18.747  0.00  0.00    +0.000 A 
BRANCH  13  20
ATOM     19  N   UNL     1      -2.192  12.724  18.897  0.00  0.00    +0.000 N 
ATOM     20  C   UNL     1      -0.856  12.886  18.625  0.00  0.00    +0.000 C 
ATOM     21  O   UNL     1      -0.366  14.000  18.502  0.00  0.00    +0.000 OA
ATOM     22  H   UNL     1      -2.717  13.568  19.061  0.00  0.00    +0.000 HD
ATOM     23  H   UNL     1      -2.581  11.851  19.230  0.00  0.00    +0.000 HD
ENDBRANCH  13  20
ENDBRANCH  12  16
ENDBRANCH   1  12
BRANCH  10  24
ATOM     24  C   UNL     1       4.072   3.260  20.183  0.00  0.00    +0.000 C 
BRANCH  24  25
ATOM     25  C   UNL     1       4.900   3.207  18.893  0.00  0.00    +0.000 C 
BRANCH  25  26
ATOM     26  C   UNL     1       5.684   4.486  18.627  0.00  0.00    +0.000 C 
BRANCH  26  27
ATOM     27  N   UNL     1       5.207   5.193  17.425  0.00  0.00    +0.000 NA
ATOM     28  C   UNL     1       5.547   4.529  16.148  0.00  0.00    +0.000 C 
ATOM     29  C   UNL     1       7.035   4.617  15.771  0.00  0.00    +0.000 C 
ATOM     30  O   UNL     1       7.504   5.972  15.769  0.00  0.00    +0.000 OA
ATOM     31  C   UNL     1       7.255   6.604  17.031  0.00  0.00    +0.000 C 
ATOM     32  C   UNL     1       5.759   6.566  17.385  0.00  0.00    +0.000 C 
ENDBRANCH  26  27
ENDBRANCH  25  26
ENDBRANCH  24  25
ENDBRANCH  10  24
TORSDOF 7
ENDMDL
MODEL 6
REMARK VINA RESULT:      -8.1      3.767      8.647
REMARK  Name = 
REMARK  7 active torsions:
REMARK  status: ('A' for Active; 'I' for Inactive)
REMARK    1  A    between atoms: C_2  and  C_4
REMARK    2  A    between atoms: C_7  and  O_8
REMARK    3  A    between atoms: O_8  and  C_9
REMARK    4  A    between atoms: N_18  and  C_19
REMARK    5  A    between atoms: C_19  and  C_20
REMARK    6  A    between atoms: C_20  and  C_21
REMARK    7  A    between atoms: C_21  and  N_22
REMARK                            x       y       z     vdW  Elec       q    Type
REMARK                         _______ _______ _______ _____ _____    ______ ____
ROOT
ATOM      1  C   UNL     1       2.128   8.277  18.914  0.00  0.00    +0.000 A 
ATOM      2  C   UNL     1       1.644   9.160  17.957  0.00  0.00    +0.000 A 
ATOM      3  C   UNL     1       0.555   9.966  18.264  0.00  0.00    +0.000 A 
ATOM      4  C   UNL     1      -0.025   9.932  19.547  0.00  0.00    +0.000 A 
ATOM      5  C   UNL     1       0.421   8.995  20.492  0.00  0.00    +0.000 A 
ATOM      6  C   UNL     1       1.539   8.216  20.184  0.00  0.00    +0.000 A 
ATOM      7  C   UNL     1      -0.240   8.863  21.841  0.00  0.00    +0.000 C 
ATOM      8  C   UNL     1       0.022  10.050  22.761  0.00  0.00    +0.000 C 
ATOM      9  C   UNL     1      -0.731  11.328  22.366  0.00  0.00    +0.000 C 
ATOM     10  N   UNL     1      -0.464  11.897  21.037  0.00  0.00    +0.000 NA
ATOM     11  C   UNL     1      -0.977  11.037  19.950  0.00  0.00    +0.000 C 
ENDROOT
BRANCH   1  12
ATOM     12  O   UNL     1       3.206   7.509  18.541  0.00  0.00    +0.000 OA
BRANCH  12  16
ATOM     13  C   UNL     1       2.783   3.420  18.525  0.00  0.00    +0.000 A 
ATOM     14  C   UNL     1       1.834   4.171  17.839  0.00  0.00    +0.000 A 
ATOM     15  C   UNL     1       1.984   5.550  17.777  0.00  0.00    +0.000 A 
ATOM     16  C   UNL     1       3.035   6.145  18.475  0.00  0.00    +0.000 A 
ATOM     17  N   UNL     1       3.973   5.435  19.136  0.00  0.00    +0.000 NA
ATOM     18  C   UNL     1       3.826   4.088  19.149  0.00  0.00    +0.000 A 
BRANCH  13  20
ATOM     19  N   UNL     1       1.492   1.390  18.921  0.00  0.00    +0.000 N 
ATOM     20  C   UNL     1       2.712   1.947  18.628  0.00  0.00    +0.000 C 
ATOM     21  O   UNL     1       3.699   1.247  18.441  0.00  0.00    +0.000 OA
ATOM     22  H   UNL     1       1.447   0.383  18.897  0.00  0.00    +0.000 HD
ATOM     23  H   UNL     1       0.624   1.905  18.853  0.00  0.00    +0.000 HD
ENDBRANCH  13  20
ENDBRANCH  12  16
ENDBRANCH   1  12
BRANCH  10  24
ATOM     24  C   UNL     1       0.944  12.320  20.896  0.00  0.00    +0.000 C 
BRANCH  24  25
ATOM     25  C   UNL     1       1.214  13.829  20.868  0.00  0.00    +0.000 C 
BRANCH  25  26
ATOM     26  C   UNL     1       1.590  14.349  19.487  0.00  0.00    +0.000 C 
BRANCH  26  27
ATOM     27  N   UNL     1       3.051  14.391  19.285  0.00  0.00    +0.000 NA
ATOM     28  C   UNL     1       3.779  15.237  20.255  0.00  0.00    +0.000 C 
ATOM     29  C   UNL     1       3.575  16.747  20.047  0.00  0.00    +0.000 C 
ATOM     30  O   UNL     1       3.883  17.146  18.705  0.00  0.00    +0.000 OA
ATOM     31  C   UNL     1       3.121  16.389  17.756  0.00  0.00    +0.000 C 
ATOM     32  C   UNL     1       3.366  14.881  17.925  0.00  0.00    +0.000 C 
ENDBRANCH  26  27
ENDBRANCH  25  26
ENDBRANCH  24  25
ENDBRANCH  10  24
TORSDOF 7
ENDMDL
MODEL 7
REMARK VINA RESULT:      -8.0      1.578      1.839
REMARK  Name = 
REMARK  7 active torsions:
REMARK  status: ('A' for Active; 'I' for Inactive)
REMARK    1  A    between atoms: C_2  and  C_4
REMARK    2  A    between atoms: C_7  and  O_8
REMARK    3  A    between atoms: O_8  and  C_9
REMARK    4  A    between atoms: N_18  and  C_19
REMARK    5  A    between atoms: C_19  and  C_20
REMARK    6  A    between atoms: C_20  and  C_21
REMARK    7  A    between atoms: C_21  and  N_22
REMARK                            x       y       z     vdW  Elec       q    Type
REMARK                         _______ _______ _______ _____ _____    ______ ____
ROOT
ATOM      1  C   UNL     1       1.979   6.938  19.544  0.00  0.00    +0.000 A 
ATOM      2  C   UNL     1       1.846   6.384  20.810  0.00  0.00    +0.000 A 
ATOM      3  C   UNL     1       1.708   5.008  20.939  0.00  0.00    +0.000 A 
ATOM      4  C   UNL     1       1.751   4.172  19.807  0.00  0.00    +0.000 A 
ATOM      5  C   UNL     1       1.819   4.736  18.523  0.00  0.00    +0.000 A 
ATOM      6  C   UNL     1       1.994   6.116  18.409  0.00  0.00    +0.000 A 
ATOM      7  C   UNL     1       1.770   3.877  17.284  0.00  0.00    +0.000 C 
ATOM      8  C   UNL     1       3.026   3.038  17.080  0.00  0.00    +0.000 C 
ATOM      9  C   UNL     1       3.158   1.860  18.055  0.00  0.00    +0.000 C 
ATOM     10  N   UNL     1       3.215   2.164  19.492  0.00  0.00    +0.000 NA
ATOM     11  C   UNL     1       1.929   2.682  20.002  0.00  0.00    +0.000 C 
ENDROOT
BRANCH   1  12
ATOM     12  O   UNL     1       2.110   8.306  19.490  0.00  0.00    +0.000 OA
BRANCH  12  16
ATOM     13  C   UNL     1      -0.228  10.595  21.980  0.00  0.00    +0.000 A 
ATOM     14  C   UNL     1       0.507   9.562  22.552  0.00  0.00    +0.000 A 
ATOM     15  C   UNL     1       1.351   8.810  21.746  0.00  0.00    +0.000 A 
ATOM     16  C   UNL     1       1.372   9.061  20.374  0.00  0.00    +0.000 A 
ATOM     17  N   UNL     1       0.677  10.065  19.801  0.00  0.00    +0.000 NA
ATOM     18  C   UNL     1      -0.110  10.810  20.615  0.00  0.00    +0.000 A 
BRANCH  13  20
ATOM     19  N   UNL     1      -0.926  12.812  22.715  0.00  0.00    +0.000 N 
ATOM     20  C   UNL     1      -1.138  11.457  22.764  0.00  0.00    +0.000 C 
ATOM     21  O   UNL     1      -2.058  10.984  23.418  0.00  0.00    +0.000 OA
ATOM     22  H   UNL     1      -1.610  13.386  23.182  0.00  0.00    +0.000 HD
ATOM     23  H   UNL     1      -0.337  13.250  22.018  0.00  0.00    +0.000 HD
ENDBRANCH  13  20
ENDBRANCH  12  16
ENDBRANCH   1  12
BRANCH  10  24
ATOM     24  C   UNL     1       4.402   2.974  19.833  0.00  0.00    +0.000 C 
BRANCH  24  25
ATOM     25  C   UNL     1       5.128   3.662  18.671  0.00  0.00    +0.000 C 
BRANCH  25  26
ATOM     26  C   UNL     1       5.808   4.965  19.073  0.00  0.00    +0.000 C 
BRANCH  26  27
ATOM     27  N   UNL     1       7.238   4.982  18.713  0.00  0.00    +0.000 NA
ATOM     28  C   UNL     1       7.878   6.312  18.809  0.00  0.00    +0.000 C 
ATOM     29  C   UNL     1       7.453   7.294  17.706  0.00  0.00    +0.000 C 
ATOM     30  O   UNL     1       7.646   6.741  16.397  0.00  0.00    +0.000 OA
ATOM     31  C   UNL     1       6.961   5.490  16.263  0.00  0.00    +0.000 C 
ATOM     32  C   UNL     1       7.424   4.486  17.331  0.00  0.00    +0.000 C 
ENDBRANCH  26  27
ENDBRANCH  25  26
ENDBRANCH  24  25
ENDBRANCH  10  24
TORSDOF 7
ENDMDL
MODEL 8
REMARK VINA RESULT:      -7.9      1.216      1.700
REMARK  Name = 
REMARK  7 active torsions:
REMARK  status: ('A' for Active; 'I' for Inactive)
REMARK    1  A    between atoms: C_2  and  C_4
REMARK    2  A    between atoms: C_7  and  O_8
REMARK    3  A    between atoms: O_8  and  C_9
REMARK    4  A    between atoms: N_18  and  C_19
REMARK    5  A    between atoms: C_19  and  C_20
REMARK    6  A    between atoms: C_20  and  C_21
REMARK    7  A    between atoms: C_21  and  N_22
REMARK                            x       y       z     vdW  Elec       q    Type
REMARK                         _______ _______ _______ _____ _____    ______ ____
ROOT
ATOM      1  C   UNL     1       2.047   7.065  19.273  0.00  0.00    +0.000 A 
ATOM      2  C   UNL     1       1.927   6.672  20.599  0.00  0.00    +0.000 A 
ATOM      3  C   UNL     1       1.703   5.334  20.895  0.00  0.00    +0.000 A 
ATOM      4  C   UNL     1       1.647   4.370  19.869  0.00  0.00    +0.000 A 
ATOM      5  C   UNL     1       1.702   4.775  18.526  0.00  0.00    +0.000 A 
ATOM      6  C   UNL     1       1.964   6.117  18.243  0.00  0.00    +0.000 A 
ATOM      7  C   UNL     1       1.550   3.784  17.399  0.00  0.00    +0.000 C 
ATOM      8  C   UNL     1       2.739   2.840  17.258  0.00  0.00    +0.000 C 
ATOM      9  C   UNL     1       2.831   1.777  18.362  0.00  0.00    +0.000 C 
ATOM     10  N   UNL     1       2.963   2.242  19.750  0.00  0.00    +0.000 NA
ATOM     11  C   UNL     1       1.734   2.904  20.235  0.00  0.00    +0.000 C 
ENDROOT
BRANCH   1  12
ATOM     12  O   UNL     1       2.265   8.404  19.053  0.00  0.00    +0.000 OA
BRANCH  12  16
ATOM     13  C   UNL     1      -0.762  11.081  19.811  0.00  0.00    +0.000 A 
ATOM     14  C   UNL     1      -0.614  10.624  18.505  0.00  0.00    +0.000 A 
ATOM     15  C   UNL     1       0.361   9.675  18.231  0.00  0.00    +0.000 A 
ATOM     16  C   UNL     1       1.216   9.272  19.257  0.00  0.00    +0.000 A 
ATOM     17  N   UNL     1       1.082   9.693  20.532  0.00  0.00    +0.000 NA
ATOM     18  C   UNL     1       0.098  10.589  20.782  0.00  0.00    +0.000 A 
BRANCH  13  20
ATOM     19  N   UNL     1      -2.035  12.240  21.538  0.00  0.00    +0.000 N 
ATOM     20  C   UNL     1      -1.784  12.077  20.198  0.00  0.00    +0.000 C 
ATOM     21  O   UNL     1      -2.371  12.746  19.358  0.00  0.00    +0.000 OA
ATOM     22  H   UNL     1      -2.667  12.985  21.784  0.00  0.00    +0.000 HD
ATOM     23  H   UNL     1      -1.420  11.883  22.258  0.00  0.00    +0.000 HD
ENDBRANCH  13  20
ENDBRANCH  12  16
ENDBRANCH   1  12
BRANCH  10  24
ATOM     24  C   UNL     1       4.212   3.001  19.957  0.00  0.00    +0.000 C 
BRANCH  24  25
ATOM     25  C   UNL     1       5.025   3.352  18.704  0.00  0.00    +0.000 C 
BRANCH  25  26
ATOM     26  C   UNL     1       5.511   4.795  18.686  0.00  0.00    +0.000 C 
BRANCH  26  27
ATOM     27  N   UNL     1       5.168   5.484  17.429  0.00  0.00    +0.000 NA
ATOM     28  C   UNL     1       5.581   4.765  16.204  0.00  0.00    +0.000 C 
ATOM     29  C   UNL     1       7.097   4.776  15.951  0.00  0.00    +0.000 C 
ATOM     30  O   UNL     1       7.627   6.109  15.949  0.00  0.00    +0.000 OA
ATOM     31  C   UNL     1       7.305   6.790  17.168  0.00  0.00    +0.000 C 
ATOM     32  C   UNL     1       5.785   6.830  17.397  0.00  0.00    +0.000 C 
ENDBRANCH  26  27
ENDBRANCH  25  26
ENDBRANCH  24  25
ENDBRANCH  10  24
TORSDOF 7
ENDMDL
MODEL 9
REMARK VINA RESULT:      -7.9      3.715      8.593
REMARK  Name = 
REMARK  7 active torsions:
REMARK  status: ('A' for Active; 'I' for Inactive)
REMARK    1  A    between atoms: C_2  and  C_4
REMARK    2  A    between atoms: C_7  and  O_8
REMARK    3  A    between atoms: O_8  and  C_9
REMARK    4  A    between atoms: N_18  and  C_19
REMARK    5  A    between atoms: C_19  and  C_20
REMARK    6  A    between atoms: C_20  and  C_21
REMARK    7  A    between atoms: C_21  and  N_22
REMARK                            x       y       z     vdW  Elec       q    Type
REMARK                         _______ _______ _______ _____ _____    ______ ____
ROOT
ATOM      1  C   UNL     1       2.046   8.375  18.865  0.00  0.00    +0.000 A 
ATOM      2  C   UNL     1       1.502   9.246  17.931  0.00  0.00    +0.000 A 
ATOM      3  C   UNL     1       0.401  10.017  18.281  0.00  0.00    +0.000 A 
ATOM      4  C   UNL     1      -0.132   9.960  19.583  0.00  0.00    +0.000 A 
ATOM      5  C   UNL     1       0.375   9.033  20.507  0.00  0.00    +0.000 A 
ATOM      6  C   UNL     1       1.504   8.290  20.155  0.00  0.00    +0.000 A 
ATOM      7  C   UNL     1      -0.233   8.876  21.878  0.00  0.00    +0.000 C 
ATOM      8  C   UNL     1       0.026  10.066  22.794  0.00  0.00    +0.000 C 
ATOM      9  C   UNL     1      -0.779  11.323  22.433  0.00  0.00    +0.000 C 
ATOM     10  N   UNL     1      -0.576  11.905  21.098  0.00  0.00    +0.000 NA
ATOM     11  C   UNL     1      -1.101  11.035  20.026  0.00  0.00    +0.000 C 
ENDROOT
BRANCH   1  12
ATOM     12  O   UNL     1       3.133   7.641  18.451  0.00  0.00    +0.000 OA
BRANCH  12  16
ATOM     13  C   UNL     1       2.880   3.541  18.621  0.00  0.00    +0.000 A 
ATOM     14  C   UNL     1       3.860   4.161  19.390  0.00  0.00    +0.000 A 
ATOM     15  C   UNL     1       3.930   5.548  19.399  0.00  0.00    +0.000 A 
ATOM     16  C   UNL     1       3.071   6.271  18.572  0.00  0.00    +0.000 A 
ATOM     17  N   UNL     1       2.107   5.690  17.828  0.00  0.00    +0.000 NA
ATOM     18  C   UNL     1       2.033   4.338  17.866  0.00  0.00    +0.000 A 
BRANCH  13  20
ATOM     19  N   UNL     1       1.454   1.566  18.720  0.00  0.00    +0.000 N 
ATOM     20  C   UNL     1       2.721   2.072  18.565  0.00  0.00    +0.000 C 
ATOM     21  O   UNL     1       3.677   1.335  18.368  0.00  0.00    +0.000 OA
ATOM     22  H   UNL     1       1.354   0.572  18.588  0.00  0.00    +0.000 HD
ATOM     23  H   UNL     1       0.623   2.139  18.652  0.00  0.00    +0.000 HD
ENDBRANCH  13  20
ENDBRANCH  12  16
ENDBRANCH   1  12
BRANCH  10  24
ATOM     24  C   UNL     1       0.812  12.371  20.910  0.00  0.00    +0.000 C 
BRANCH  24  25
ATOM     25  C   UNL     1       1.109  13.830  21.276  0.00  0.00    +0.000 C 
BRANCH  25  26
ATOM     26  C   UNL     1       1.354  14.718  20.063  0.00  0.00    +0.000 C 
BRANCH  26  27
ATOM     27  N   UNL     1       2.615  15.474  20.171  0.00  0.00    +0.000 NA
ATOM     28  C   UNL     1       2.665  16.704  19.351  0.00  0.00    +0.000 C 
ATOM     29  C   UNL     1       2.795  16.446  17.841  0.00  0.00    +0.000 C 
ATOM     30  O   UNL     1       3.913  15.600  17.540  0.00  0.00    +0.000 OA
ATOM     31  C   UNL     1       3.834  14.367  18.267  0.00  0.00    +0.000 C 
ATOM     32  C   UNL     1       3.760  14.620  19.781  0.00  0.00    +0.000 C 
ENDBRANCH  26  27
ENDBRANCH  25  26
ENDBRANCH  24  25
ENDBRANCH  10  24
TORSDOF 7
ENDMDL
