MODEL 1
REMARK VINA RESULT:      -6.3      0.000      0.000
REMARK  Name = 
REMARK  11 active torsions:
REMARK  status: ('A' for Active; 'I' for Inactive)
REMARK    1  A    between atoms: C_1  and  C_2
REMARK    2  A    between atoms: C_2  and  C_3
REMARK    3  A    between atoms: C_2  and  O_8
REMARK    4  A    between atoms: C_3  and  S_4
REMARK    5  A    between atoms: S_4  and  C_5
REMARK    6  A    between atoms: O_8  and  C_9
REMARK    7  A    between atoms: C_9  and  C_11
REMARK    8  A    between atoms: N_14  and  C_15
REMARK    9  A    between atoms: C_15  and  C_16
REMARK   10  A    between atoms: C_15  and  C_17
REMARK   11  A    between atoms: C_15  and  C_18
REMARK                            x       y       z     vdW  Elec       q    Type
REMARK                         _______ _______ _______ _____ _____    ______ ____
ROOT
ATOM      1  C   UNL     1       6.037   5.190  19.168  0.00  0.00    +0.000 C 
ATOM      2  O   UNL     1       7.181   4.910  19.516  0.00  0.00    +0.000 OA
ENDROOT
BRANCH   1   3
ATOM      3  C   UNL     1       4.919   4.294  19.336  0.00  0.00    +0.000 A 
ATOM      4  C   UNL     1       4.819   2.930  18.995  0.00  0.00    +0.000 A 
ATOM      5  N   UNL     1       3.611   2.421  19.258  0.00  0.00    +0.000 NA
ATOM      6  N   UNL     1       2.916   3.464  19.762  0.00  0.00    +0.000 N 
ATOM      7  C   UNL     1       3.669   4.603  19.831  0.00  0.00    +0.000 A 
BRANCH   6   8
ATOM      8  C   UNL     1       1.527   3.288  20.225  0.00  0.00    +0.000 C 
ATOM      9  C   UNL     1       0.752   2.470  19.178  0.00  0.00    +0.000 C 
ATOM     10  C   UNL     1       1.489   2.545  21.577  0.00  0.00    +0.000 C 
ATOM     11  C   UNL     1       0.820   4.645  20.422  0.00  0.00    +0.000 C 
ENDBRANCH   6   8
ENDBRANCH   1   3
BRANCH   1  12
ATOM     12  O   UNL     1       5.696   6.313  18.473  0.00  0.00    +0.000 OA
BRANCH  12  14
ATOM     13  C   UNL     1       3.941   7.141  17.161  0.00  0.00    +0.000 C 
ATOM     14  C   UNL     1       5.077   6.117  17.192  0.00  0.00    +0.000 C 
BRANCH  14  15
ATOM     15  C   UNL     1       6.044   6.378  16.047  0.00  0.00    +0.000 C 
BRANCH  15  16
ATOM     16  S   UNL     1       6.885   4.933  15.434  0.00  0.00    +0.000 S 
ATOM     17  C   UNL     1       5.657   3.647  15.365  0.00  0.00    +0.000 C 
ATOM     18  O   UNL     1       7.246   5.223  14.058  0.00  0.00    +0.000 OA
ATOM     19  O   UNL     1       7.907   4.547  16.382  0.00  0.00    +0.000 OA
ENDBRANCH  15  16
ENDBRANCH  14  15
ENDBRANCH  12  14
ENDBRANCH   1  12
TORSDOF 6
ENDMDL
MODEL 2
REMARK VINA RESULT:      -6.2      1.441      2.184
REMARK  Name = 
REMARK  11 active torsions:
REMARK  status: ('A' for Active; 'I' for Inactive)
REMARK    1  A    between atoms: C_1  and  C_2
REMARK    2  A    between atoms: C_2  and  C_3
REMARK    3  A    between atoms: C_2  and  O_8
REMARK    4  A    between atoms: C_3  and  S_4
REMARK    5  A    between atoms: S_4  and  C_5
REMARK    6  A    between atoms: O_8  and  C_9
REMARK    7  A    between atoms: C_9  and  C_11
REMARK    8  A    between atoms: N_14  and  C_15
REMARK    9  A    between atoms: C_15  and  C_16
REMARK   10  A    between atoms: C_15  and  C_17
REMARK   11  A    between atoms: C_15  and  C_18
REMARK                            x       y       z     vdW  Elec       q    Type
REMARK                         _______ _______ _______ _____ _____    ______ ____
ROOT
ATOM      1  C   UNL     1       6.658   4.965  19.374  0.00  0.00    +0.000 C 
ATOM      2  O   UNL     1       7.357   5.421  20.275  0.00  0.00    +0.000 OA
ENDROOT
BRANCH   1   3
ATOM      3  C   UNL     1       5.228   4.814  19.481  0.00  0.00    +0.000 A 
ATOM      4  C   UNL     1       4.219   5.777  19.277  0.00  0.00    +0.000 A 
ATOM      5  N   UNL     1       2.993   5.294  19.504  0.00  0.00    +0.000 NA
ATOM      6  N   UNL     1       3.207   4.012  19.872  0.00  0.00    +0.000 N 
ATOM      7  C   UNL     1       4.535   3.684  19.863  0.00  0.00    +0.000 A 
BRANCH   6   8
ATOM      8  C   UNL     1       2.074   3.115  20.166  0.00  0.00    +0.000 C 
ATOM      9  C   UNL     1       2.271   2.504  21.564  0.00  0.00    +0.000 C 
ATOM     10  C   UNL     1       0.738   3.887  20.134  0.00  0.00    +0.000 C 
ATOM     11  C   UNL     1       1.973   1.973  19.132  0.00  0.00    +0.000 C 
ENDBRANCH   6   8
ENDBRANCH   1   3
BRANCH   1  12
ATOM     12  O   UNL     1       7.146   4.433  18.217  0.00  0.00    +0.000 OA
BRANCH  12  14
ATOM     13  C   UNL     1       7.432   6.414  16.999  0.00  0.00    +0.000 C 
ATOM     14  C   UNL     1       6.728   5.056  16.992  0.00  0.00    +0.000 C 
BRANCH  14  15
ATOM     15  C   UNL     1       7.155   4.255  15.771  0.00  0.00    +0.000 C 
BRANCH  15  16
ATOM     16  S   UNL     1       6.736   4.996  14.207  0.00  0.00    +0.000 S 
ATOM     17  C   UNL     1       6.172   3.663  13.171  0.00  0.00    +0.000 C 
ATOM     18  O   UNL     1       5.579   5.838  14.451  0.00  0.00    +0.000 OA
ATOM     19  O   UNL     1       7.931   5.564  13.620  0.00  0.00    +0.000 OA
ENDBRANCH  15  16
ENDBRANCH  14  15
ENDBRANCH  12  14
ENDBRANCH   1  12
TORSDOF 6
ENDMDL
MODEL 3
REMARK VINA RESULT:      -6.0      1.012      1.521
REMARK  Name = 
REMARK  11 active torsions:
REMARK  status: ('A' for Active; 'I' for Inactive)
REMARK    1  A    between atoms: C_1  and  C_2
REMARK    2  A    between atoms: C_2  and  C_3
REMARK    3  A    between atoms: C_2  and  O_8
REMARK    4  A    between atoms: C_3  and  S_4
REMARK    5  A    between atoms: S_4  and  C_5
REMARK    6  A    between atoms: O_8  and  C_9
REMARK    7  A    between atoms: C_9  and  C_11
REMARK    8  A    between atoms: N_14  and  C_15
REMARK    9  A    between atoms: C_15  and  C_16
REMARK   10  A    between atoms: C_15  and  C_17
REMARK   11  A    between atoms: C_15  and  C_18
REMARK                            x       y       z     vdW  Elec       q    Type
REMARK                         _______ _______ _______ _____ _____    ______ ____
ROOT
ATOM      1  C   UNL     1       6.201   4.984  19.106  0.00  0.00    +0.000 C 
ATOM      2  O   UNL     1       6.932   5.352  20.022  0.00  0.00    +0.000 OA
ENDROOT
BRANCH   1   3
ATOM      3  C   UNL     1       5.014   4.192  19.312  0.00  0.00    +0.000 A 
ATOM      4  C   UNL     1       4.797   2.830  19.019  0.00  0.00    +0.000 A 
ATOM      5  N   UNL     1       3.553   2.433  19.307  0.00  0.00    +0.000 NA
ATOM      6  N   UNL     1       2.952   3.547  19.779  0.00  0.00    +0.000 N 
ATOM      7  C   UNL     1       3.799   4.621  19.805  0.00  0.00    +0.000 A 
BRANCH   6   8
ATOM      8  C   UNL     1       1.558   3.505  20.258  0.00  0.00    +0.000 C 
ATOM      9  C   UNL     1       1.066   4.944  20.486  0.00  0.00    +0.000 C 
ATOM     10  C   UNL     1       0.643   2.814  19.226  0.00  0.00    +0.000 C 
ATOM     11  C   UNL     1       1.438   2.720  21.582  0.00  0.00    +0.000 C 
ENDBRANCH   6   8
ENDBRANCH   1   3
BRANCH   1  12
ATOM     12  O   UNL     1       6.476   5.164  17.782  0.00  0.00    +0.000 OA
BRANCH  12  14
ATOM     13  C   UNL     1       6.720   7.398  17.119  0.00  0.00    +0.000 C 
ATOM     14  C   UNL     1       5.756   6.209  17.109  0.00  0.00    +0.000 C 
BRANCH  14  15
ATOM     15  C   UNL     1       5.412   5.832  15.676  0.00  0.00    +0.000 C 
BRANCH  15  16
ATOM     16  S   UNL     1       6.301   4.427  15.038  0.00  0.00    +0.000 S 
ATOM     17  C   UNL     1       5.734   4.210  13.365  0.00  0.00    +0.000 C 
ATOM     18  O   UNL     1       7.692   4.832  14.946  0.00  0.00    +0.000 OA
ATOM     19  O   UNL     1       5.940   3.255  15.805  0.00  0.00    +0.000 OA
ENDBRANCH  15  16
ENDBRANCH  14  15
ENDBRANCH  12  14
ENDBRANCH   1  12
TORSDOF 6
ENDMDL
MODEL 4
REMARK VINA RESULT:      -6.0      0.951      1.043
REMARK  Name = 
REMARK  11 active torsions:
REMARK  status: ('A' for Active; 'I' for Inactive)
REMARK    1  A    between atoms: C_1  and  C_2
REMARK    2  A    between atoms: C_2  and  C_3
REMARK    3  A    between atoms: C_2  and  O_8
REMARK    4  A    between atoms: C_3  and  S_4
REMARK    5  A    between atoms: S_4  and  C_5
REMARK    6  A    between atoms: O_8  and  C_9
REMARK    7  A    between atoms: C_9  and  C_11
REMARK    8  A    between atoms: N_14  and  C_15
REMARK    9  A    between atoms: C_15  and  C_16
REMARK   10  A    between atoms: C_15  and  C_17
REMARK   11  A    between atoms: C_15  and  C_18
REMARK                            x       y       z     vdW  Elec       q    Type
REMARK                         _______ _______ _______ _____ _____    ______ ____
ROOT
ATOM      1  C   UNL     1       6.205   5.020  19.055  0.00  0.00    +0.000 C 
ATOM      2  O   UNL     1       6.922   5.332  20.002  0.00  0.00    +0.000 OA
ENDROOT
BRANCH   1   3
ATOM      3  C   UNL     1       5.004   4.235  19.199  0.00  0.00    +0.000 A 
ATOM      4  C   UNL     1       4.720   2.951  18.691  0.00  0.00    +0.000 A 
ATOM      5  N   UNL     1       3.482   2.542  18.987  0.00  0.00    +0.000 NA
ATOM      6  N   UNL     1       2.952   3.572  19.682  0.00  0.00    +0.000 N 
ATOM      7  C   UNL     1       3.837   4.603  19.836  0.00  0.00    +0.000 A 
BRANCH   6   8
ATOM      8  C   UNL     1       1.589   3.482  20.236  0.00  0.00    +0.000 C 
ATOM      9  C   UNL     1       0.693   2.732  19.235  0.00  0.00    +0.000 C 
ATOM     10  C   UNL     1       1.590   2.725  21.581  0.00  0.00    +0.000 C 
ATOM     11  C   UNL     1       0.988   4.881  20.492  0.00  0.00    +0.000 C 
ENDBRANCH   6   8
ENDBRANCH   1   3
BRANCH   1  12
ATOM     12  O   UNL     1       6.509   5.260  17.747  0.00  0.00    +0.000 OA
BRANCH  12  14
ATOM     13  C   UNL     1       6.647   7.506  17.095  0.00  0.00    +0.000 C 
ATOM     14  C   UNL     1       5.740   6.275  17.081  0.00  0.00    +0.000 C 
BRANCH  14  15
ATOM     15  C   UNL     1       5.409   5.889  15.648  0.00  0.00    +0.000 C 
BRANCH  15  16
ATOM     16  S   UNL     1       6.474   4.649  14.942  0.00  0.00    +0.000 S 
ATOM     17  C   UNL     1       5.717   4.175  13.402  0.00  0.00    +0.000 C 
ATOM     18  O   UNL     1       7.712   5.323  14.595  0.00  0.00    +0.000 OA
ATOM     19  O   UNL     1       6.499   3.498  15.818  0.00  0.00    +0.000 OA
ENDBRANCH  15  16
ENDBRANCH  14  15
ENDBRANCH  12  14
ENDBRANCH   1  12
TORSDOF 6
ENDMDL
MODEL 5
REMARK VINA RESULT:      -6.0      1.424      1.957
REMARK  Name = 
REMARK  11 active torsions:
REMARK  status: ('A' for Active; 'I' for Inactive)
REMARK    1  A    between atoms: C_1  and  C_2
REMARK    2  A    between atoms: C_2  and  C_3
REMARK    3  A    between atoms: C_2  and  O_8
REMARK    4  A    between atoms: C_3  and  S_4
REMARK    5  A    between atoms: S_4  and  C_5
REMARK    6  A    between atoms: O_8  and  C_9
REMARK    7  A    between atoms: C_9  and  C_11
REMARK    8  A    between atoms: N_14  and  C_15
REMARK    9  A    between atoms: C_15  and  C_16
REMARK   10  A    between atoms: C_15  and  C_17
REMARK   11  A    between atoms: C_15  and  C_18
REMARK                            x       y       z     vdW  Elec       q    Type
REMARK                         _______ _______ _______ _____ _____    ______ ____
ROOT
ATOM      1  C   UNL     1       6.640   5.404  19.347  0.00  0.00    +0.000 C 
ATOM      2  O   UNL     1       7.345   5.416  20.353  0.00  0.00    +0.000 OA
ENDROOT
BRANCH   1   3
ATOM      3  C   UNL     1       5.249   5.024  19.361  0.00  0.00    +0.000 A 
ATOM      4  C   UNL     1       4.113   5.832  19.575  0.00  0.00    +0.000 A 
ATOM      5  N   UNL     1       2.974   5.132  19.558  0.00  0.00    +0.000 NA
ATOM      6  N   UNL     1       3.371   3.859  19.345  0.00  0.00    +0.000 N 
ATOM      7  C   UNL     1       4.729   3.755  19.213  0.00  0.00    +0.000 A 
BRANCH   6   8
ATOM      8  C   UNL     1       2.381   2.775  19.211  0.00  0.00    +0.000 C 
ATOM      9  C   UNL     1       3.082   1.527  18.647  0.00  0.00    +0.000 C 
ATOM     10  C   UNL     1       1.755   2.429  20.579  0.00  0.00    +0.000 C 
ATOM     11  C   UNL     1       1.231   3.172  18.262  0.00  0.00    +0.000 C 
ENDBRANCH   6   8
ENDBRANCH   1   3
BRANCH   1  12
ATOM     12  O   UNL     1       7.100   5.623  18.082  0.00  0.00    +0.000 OA
BRANCH  12  14
ATOM     13  C   UNL     1       7.554   7.753  17.218  0.00  0.00    +0.000 C 
ATOM     14  C   UNL     1       6.471   6.679  17.338  0.00  0.00    +0.000 C 
BRANCH  14  15
ATOM     15  C   UNL     1       6.037   6.221  15.954  0.00  0.00    +0.000 C 
BRANCH  15  16
ATOM     16  S   UNL     1       6.529   4.564  15.527  0.00  0.00    +0.000 S 
ATOM     17  C   UNL     1       6.563   4.510  13.748  0.00  0.00    +0.000 C 
ATOM     18  O   UNL     1       7.907   4.422  15.963  0.00  0.00    +0.000 OA
ATOM     19  O   UNL     1       5.524   3.638  15.999  0.00  0.00    +0.000 OA
ENDBRANCH  15  16
ENDBRANCH  14  15
ENDBRANCH  12  14
ENDBRANCH   1  12
TORSDOF 6
ENDMDL
MODEL 6
REMARK VINA RESULT:      -6.0      0.979      1.438
REMARK  Name = 
REMARK  11 active torsions:
REMARK  status: ('A' for Active; 'I' for Inactive)
REMARK    1  A    between atoms: C_1  and  C_2
REMARK    2  A    between atoms: C_2  and  C_3
REMARK    3  A    between atoms: C_2  and  O_8
REMARK    4  A    between atoms: C_3  and  S_4
REMARK    5  A    between atoms: S_4  and  C_5
REMARK    6  A    between atoms: O_8  and  C_9
REMARK    7  A    between atoms: C_9  and  C_11
REMARK    8  A    between atoms: N_14  and  C_15
REMARK    9  A    between atoms: C_15  and  C_16
REMARK   10  A    between atoms: C_15  and  C_17
REMARK   11  A    between atoms: C_15  and  C_18
REMARK                            x       y       z     vdW  Elec       q    Type
REMARK                         _______ _______ _______ _____ _____    ______ ____
ROOT
ATOM      1  C   UNL     1       6.145   4.992  19.026  0.00  0.00    +0.000 C 
ATOM      2  O   UNL     1       6.920   5.358  19.906  0.00  0.00    +0.000 OA
ENDROOT
BRANCH   1   3
ATOM      3  C   UNL     1       4.979   4.185  19.284  0.00  0.00    +0.000 A 
ATOM      4  C   UNL     1       4.809   2.796  19.113  0.00  0.00    +0.000 A 
ATOM      5  N   UNL     1       3.573   2.387  19.417  0.00  0.00    +0.000 NA
ATOM      6  N   UNL     1       2.930   3.519  19.776  0.00  0.00    +0.000 N 
ATOM      7  C   UNL     1       3.743   4.618  19.717  0.00  0.00    +0.000 A 
BRANCH   6   8
ATOM      8  C   UNL     1       1.529   3.476  20.235  0.00  0.00    +0.000 C 
ATOM      9  C   UNL     1       1.463   2.697  21.560  0.00  0.00    +0.000 C 
ATOM     10  C   UNL     1       0.978   4.900  20.456  0.00  0.00    +0.000 C 
ATOM     11  C   UNL     1       0.617   2.781  19.202  0.00  0.00    +0.000 C 
ENDBRANCH   6   8
ENDBRANCH   1   3
BRANCH   1  12
ATOM     12  O   UNL     1       6.348   5.190  17.692  0.00  0.00    +0.000 OA
BRANCH  12  14
ATOM     13  C   UNL     1       6.297   7.483  17.212  0.00  0.00    +0.000 C 
ATOM     14  C   UNL     1       5.521   6.175  17.051  0.00  0.00    +0.000 C 
BRANCH  14  15
ATOM     15  C   UNL     1       5.314   5.872  15.575  0.00  0.00    +0.000 C 
BRANCH  15  16
ATOM     16  S   UNL     1       6.343   4.571  14.928  0.00  0.00    +0.000 S 
ATOM     17  C   UNL     1       5.767   4.274  13.269  0.00  0.00    +0.000 C 
ATOM     18  O   UNL     1       7.676   5.131  14.799  0.00  0.00    +0.000 OA
ATOM     19  O   UNL     1       6.135   3.373  15.711  0.00  0.00    +0.000 OA
ENDBRANCH  15  16
ENDBRANCH  14  15
ENDBRANCH  12  14
ENDBRANCH   1  12
TORSDOF 6
ENDMDL
MODEL 7
REMARK VINA RESULT:      -5.9      1.104      1.683
REMARK  Name = 
REMARK  11 active torsions:
REMARK  status: ('A' for Active; 'I' for Inactive)
REMARK    1  A    between atoms: C_1  and  C_2
REMARK    2  A    between atoms: C_2  and  C_3
REMARK    3  A    between atoms: C_2  and  O_8
REMARK    4  A    between atoms: C_3  and  S_4
REMARK    5  A    between atoms: S_4  and  C_5
REMARK    6  A    between atoms: O_8  and  C_9
REMARK    7  A    between atoms: C_9  and  C_11
REMARK    8  A    between atoms: N_14  and  C_15
REMARK    9  A    between atoms: C_15  and  C_16
REMARK   10  A    between atoms: C_15  and  C_17
REMARK   11  A    between atoms: C_15  and  C_18
REMARK                            x       y       z     vdW  Elec       q    Type
REMARK                         _______ _______ _______ _____ _____    ______ ____
ROOT
ATOM      1  C   UNL     1       6.128   5.302  19.010  0.00  0.00    +0.000 C 
ATOM      2  O   UNL     1       7.221   4.889  19.387  0.00  0.00    +0.000 OA
ENDROOT
BRANCH   1   3
ATOM      3  C   UNL     1       4.941   4.484  18.980  0.00  0.00    +0.000 A 
ATOM      4  C   UNL     1       4.585   3.474  18.063  0.00  0.00    +0.000 A 
ATOM      5  N   UNL     1       3.383   2.947  18.319  0.00  0.00    +0.000 NA
ATOM      6  N   UNL     1       2.949   3.626  19.403  0.00  0.00    +0.000 N 
ATOM      7  C   UNL     1       3.859   4.552  19.834  0.00  0.00    +0.000 A 
BRANCH   6   8
ATOM      8  C   UNL     1       1.656   3.295  20.030  0.00  0.00    +0.000 C 
ATOM      9  C   UNL     1       1.919   2.531  21.339  0.00  0.00    +0.000 C 
ATOM     10  C   UNL     1       0.852   4.574  20.343  0.00  0.00    +0.000 C 
ATOM     11  C   UNL     1       0.787   2.416  19.106  0.00  0.00    +0.000 C 
ENDBRANCH   6   8
ENDBRANCH   1   3
BRANCH   1  12
ATOM     12  O   UNL     1       5.919   6.531  18.457  0.00  0.00    +0.000 OA
BRANCH  12  14
ATOM     13  C   UNL     1       7.767   7.719  17.641  0.00  0.00    +0.000 C 
ATOM     14  C   UNL     1       6.606   6.812  17.227  0.00  0.00    +0.000 C 
BRANCH  14  15
ATOM     15  C   UNL     1       7.142   5.548  16.572  0.00  0.00    +0.000 C 
BRANCH  15  16
ATOM     16  S   UNL     1       6.671   5.331  14.869  0.00  0.00    +0.000 S 
ATOM     17  C   UNL     1       6.097   3.651  14.732  0.00  0.00    +0.000 C 
ATOM     18  O   UNL     1       5.508   6.174  14.656  0.00  0.00    +0.000 OA
ATOM     19  O   UNL     1       7.840   5.490  14.033  0.00  0.00    +0.000 OA
ENDBRANCH  15  16
ENDBRANCH  14  15
ENDBRANCH  12  14
ENDBRANCH   1  12
TORSDOF 6
ENDMDL
MODEL 8
REMARK VINA RESULT:      -5.9      1.557      2.140
REMARK  Name = 
REMARK  11 active torsions:
REMARK  status: ('A' for Active; 'I' for Inactive)
REMARK    1  A    between atoms: C_1  and  C_2
REMARK    2  A    between atoms: C_2  and  C_3
REMARK    3  A    between atoms: C_2  and  O_8
REMARK    4  A    between atoms: C_3  and  S_4
REMARK    5  A    between atoms: S_4  and  C_5
REMARK    6  A    between atoms: O_8  and  C_9
REMARK    7  A    between atoms: C_9  and  C_11
REMARK    8  A    between atoms: N_14  and  C_15
REMARK    9  A    between atoms: C_15  and  C_16
REMARK   10  A    between atoms: C_15  and  C_17
REMARK   11  A    between atoms: C_15  and  C_18
REMARK                            x       y       z     vdW  Elec       q    Type
REMARK                         _______ _______ _______ _____ _____    ______ ____
ROOT
ATOM      1  C   UNL     1       7.049   5.290  19.501  0.00  0.00    +0.000 C 
ATOM      2  O   UNL     1       7.605   5.399  20.590  0.00  0.00    +0.000 OA
ENDROOT
BRANCH   1   3
ATOM      3  C   UNL     1       5.640   5.018  19.356  0.00  0.00    +0.000 A 
ATOM      4  C   UNL     1       4.565   5.928  19.294  0.00  0.00    +0.000 A 
ATOM      5  N   UNL     1       3.379   5.319  19.197  0.00  0.00    +0.000 NA
ATOM      6  N   UNL     1       3.683   4.002  19.209  0.00  0.00    +0.000 N 
ATOM      7  C   UNL     1       5.030   3.782  19.296  0.00  0.00    +0.000 A 
BRANCH   6   8
ATOM      8  C   UNL     1       2.625   2.985  19.070  0.00  0.00    +0.000 C 
ATOM      9  C   UNL     1       3.224   1.730  18.411  0.00  0.00    +0.000 C 
ATOM     10  C   UNL     1       2.042   2.604  20.447  0.00  0.00    +0.000 C 
ATOM     11  C   UNL     1       1.459   3.497  18.199  0.00  0.00    +0.000 C 
ENDBRANCH   6   8
ENDBRANCH   1   3
BRANCH   1  12
ATOM     12  O   UNL     1       7.699   5.286  18.302  0.00  0.00    +0.000 OA
BRANCH  12  14
ATOM     13  C   UNL     1       7.675   7.403  17.298  0.00  0.00    +0.000 C 
ATOM     14  C   UNL     1       7.072   5.999  17.224  0.00  0.00    +0.000 C 
BRANCH  14  15
ATOM     15  C   UNL     1       7.378   5.373  15.872  0.00  0.00    +0.000 C 
BRANCH  15  16
ATOM     16  S   UNL     1       5.951   5.047  14.857  0.00  0.00    +0.000 S 
ATOM     17  C   UNL     1       4.922   3.944  15.803  0.00  0.00    +0.000 C 
ATOM     18  O   UNL     1       5.223   6.300  14.763  0.00  0.00    +0.000 OA
ATOM     19  O   UNL     1       6.375   4.366  13.654  0.00  0.00    +0.000 OA
ENDBRANCH  15  16
ENDBRANCH  14  15
ENDBRANCH  12  14
ENDBRANCH   1  12
TORSDOF 6
ENDMDL
MODEL 9
REMARK VINA RESULT:      -5.8      3.449      5.070
REMARK  Name = 
REMARK  11 active torsions:
REMARK  status: ('A' for Active; 'I' for Inactive)
REMARK    1  A    between atoms: C_1  and  C_2
REMARK    2  A    between atoms: C_2  and  C_3
REMARK    3  A    between atoms: C_2  and  O_8
REMARK    4  A    between atoms: C_3  and  S_4
REMARK    5  A    between atoms: S_4  and  C_5
REMARK    6  A    between atoms: O_8  and  C_9
REMARK    7  A    between atoms: C_9  and  C_11
REMARK    8  A    between atoms: N_14  and  C_15
REMARK    9  A    between atoms: C_15  and  C_16
REMARK   10  A    between atoms: C_15  and  C_17
REMARK   11  A    between atoms: C_15  and  C_18
REMARK                            x       y       z     vdW  Elec       q    Type
REMARK                         _______ _______ _______ _____ _____    ______ ____
ROOT
ATOM      1  C   UNL     1       3.741   6.789  17.519  0.00  0.00    +0.000 C 
ATOM      2  O   UNL     1       4.545   7.279  16.731  0.00  0.00    +0.000 OA
ENDROOT
BRANCH   1   3
ATOM      3  C   UNL     1       2.845   7.578  18.328  0.00  0.00    +0.000 A 
ATOM      4  C   UNL     1       2.340   7.303  19.614  0.00  0.00    +0.000 A 
ATOM      5  N   UNL     1       1.495   8.244  20.048  0.00  0.00    +0.000 NA
ATOM      6  N   UNL     1       1.441   9.133  19.032  0.00  0.00    +0.000 N 
ATOM      7  C   UNL     1       2.244   8.772  17.985  0.00  0.00    +0.000 A 
BRANCH   6   8
ATOM      8  C   UNL     1       0.637  10.362  19.150  0.00  0.00    +0.000 C 
ATOM      9  C   UNL     1       1.479  11.557  18.670  0.00  0.00    +0.000 C 
ATOM     10  C   UNL     1      -0.642  10.268  18.292  0.00  0.00    +0.000 C 
ATOM     11  C   UNL     1       0.199  10.615  20.608  0.00  0.00    +0.000 C 
ENDBRANCH   6   8
ENDBRANCH   1   3
BRANCH   1  12
ATOM     12  O   UNL     1       3.675   5.461  17.825  0.00  0.00    +0.000 OA
BRANCH  12  14
ATOM     13  C   UNL     1       4.252   3.812  19.385  0.00  0.00    +0.000 C 
ATOM     14  C   UNL     1       4.828   4.886  18.461  0.00  0.00    +0.000 C 
BRANCH  14  15
ATOM     15  C   UNL     1       5.777   4.252  17.455  0.00  0.00    +0.000 C 
BRANCH  15  16
ATOM     16  S   UNL     1       7.365   5.046  17.324  0.00  0.00    +0.000 S 
ATOM     17  C   UNL     1       7.441   6.210  18.669  0.00  0.00    +0.000 C 
ATOM     18  O   UNL     1       8.357   4.026  17.614  0.00  0.00    +0.000 OA
ATOM     19  O   UNL     1       7.424   5.776  16.076  0.00  0.00    +0.000 OA
ENDBRANCH  15  16
ENDBRANCH  14  15
ENDBRANCH  12  14
ENDBRANCH   1  12
TORSDOF 6
ENDMDL
