MODEL 1
REMARK VINA RESULT:      -9.2      0.000      0.000
REMARK  Name = 
REMARK  9 active torsions:
REMARK  status: ('A' for Active; 'I' for Inactive)
REMARK    1  A    between atoms: C_1  and  O_2
REMARK    2  A    between atoms: O_2  and  C_3
REMARK    3  A    between atoms: C_8  and  C_9
REMARK    4  A    between atoms: C_9  and  N_10
REMARK    5  A    between atoms: N_10  and  C_11
REMARK    6  A    between atoms: C_14  and  O_15
REMARK    7  A    between atoms: C_20  and  C_21
REMARK    8  A    between atoms: C_24  and  C_25
REMARK    9  A    between atoms: C_28  and  O_29
REMARK                            x       y       z     vdW  Elec       q    Type
REMARK                         _______ _______ _______ _____ _____    ______ ____
ROOT
ATOM      1  C   UNL     1      -2.840  12.970  22.583  0.00  0.00    +0.000 A 
ATOM      2  C   UNL     1      -1.895  12.029  23.018  0.00  0.00    +0.000 A 
ATOM      3  C   UNL     1      -1.245  11.295  22.066  0.00  0.00    +0.000 A 
ATOM      4  C   UNL     1      -1.463  11.466  20.681  0.00  0.00    +0.000 A 
ATOM      5  C   UNL     1      -2.357  12.422  20.240  0.00  0.00    +0.000 A 
ATOM      6  C   UNL     1      -3.056  13.196  21.191  0.00  0.00    +0.000 A 
ATOM      7  C   UNL     1      -0.640  10.508  19.813  0.00  0.00    +0.000 C 
ATOM      8  C   UNL     1       0.057   9.809  20.927  0.00  0.00    +0.000 A 
ATOM      9  C   UNL     1       1.023   8.809  21.147  0.00  0.00    +0.000 A 
ATOM     10  N   UNL     1       1.260   8.679  22.478  0.00  0.00    +0.000 NA
ATOM     11  N   UNL     1       0.440   9.585  23.072  0.00  0.00    +0.000 N 
ATOM     12  C   UNL     1      -0.281  10.261  22.164  0.00  0.00    +0.000 A 
ATOM     13  H   UNL     1       0.457   9.671  24.082  0.00  0.00    +0.000 HD
ENDROOT
BRANCH   9  14
ATOM     14  C   UNL     1       1.724   8.029  20.147  0.00  0.00    +0.000 A 
ATOM     15  C   UNL     1       2.089   6.709  20.408  0.00  0.00    +0.000 A 
ATOM     16  C   UNL     1       2.836   5.988  19.474  0.00  0.00    +0.000 A 
ATOM     17  C   UNL     1       3.225   6.552  18.243  0.00  0.00    +0.000 A 
ATOM     18  C   UNL     1       2.823   7.869  17.985  0.00  0.00    +0.000 A 
ATOM     19  C   UNL     1       2.085   8.597  18.919  0.00  0.00    +0.000 A 
BRANCH  17  20
ATOM     20  C   UNL     1       4.032   5.785  17.270  0.00  0.00    +0.000 A 
ATOM     21  C   UNL     1       4.830   6.444  16.311  0.00  0.00    +0.000 A 
ATOM     22  C   UNL     1       5.560   5.735  15.355  0.00  0.00    +0.000 A 
ATOM     23  C   UNL     1       5.524   4.352  15.358  0.00  0.00    +0.000 A 
ATOM     24  C   UNL     1       4.770   3.664  16.299  0.00  0.00    +0.000 A 
ATOM     25  C   UNL     1       4.028   4.378  17.244  0.00  0.00    +0.000 A 
BRANCH  23  26
ATOM     26  O   UNL     1       6.220   3.620  14.441  0.00  0.00    +0.000 OA
ATOM     27  H   UNL     1       5.769   3.698  13.585  0.00  0.00    +0.000 HD
ENDBRANCH  23  26
ENDBRANCH  17  20
ENDBRANCH   9  14
BRANCH   1  29
ATOM     28  C   UNL     1      -2.812  14.330  24.518  0.00  0.00    +0.000 C 
ATOM     29  O   UNL     1      -3.579  13.710  23.480  0.00  0.00    +0.000 OA
ENDBRANCH   1  29
BRANCH   6  30
ATOM     30  C   UNL     1      -4.008  14.246  20.649  0.00  0.00    +0.000 C 
BRANCH  30  31
ATOM     31  N   UNL     1      -4.860  13.770  19.536  0.00  0.00    +0.000 NA
ATOM     32  H   UNL     1      -5.626  14.433  19.413  0.00  0.00    +0.000 HD
BRANCH  31  33
ATOM     33  C   UNL     1      -5.402  12.423  19.757  0.00  0.00    +0.000 C 
ATOM     34  C   UNL     1      -6.803  12.461  20.383  0.00  0.00    +0.000 C 
ATOM     35  C   UNL     1      -7.315  11.053  20.648  0.00  0.00    +0.000 C 
ATOM     36  C   UNL     1      -7.361  10.236  19.364  0.00  0.00    +0.000 C 
ATOM     37  C   UNL     1      -5.999  10.210  18.671  0.00  0.00    +0.000 C 
ATOM     38  C   UNL     1      -5.450  11.622  18.434  0.00  0.00    +0.000 C 
BRANCH  36  39
ATOM     39  O   UNL     1      -7.779   8.911  19.666  0.00  0.00    +0.000 OA
ATOM     40  H   UNL     1      -8.363   8.948  20.443  0.00  0.00    +0.000 HD
ENDBRANCH  36  39
ENDBRANCH  31  33
ENDBRANCH  30  31
ENDBRANCH   6  30
TORSDOF 8
ENDMDL
MODEL 2
REMARK VINA RESULT:      -8.9      1.892      3.357
REMARK  Name = 
REMARK  9 active torsions:
REMARK  status: ('A' for Active; 'I' for Inactive)
REMARK    1  A    between atoms: C_1  and  O_2
REMARK    2  A    between atoms: O_2  and  C_3
REMARK    3  A    between atoms: C_8  and  C_9
REMARK    4  A    between atoms: C_9  and  N_10
REMARK    5  A    between atoms: N_10  and  C_11
REMARK    6  A    between atoms: C_14  and  O_15
REMARK    7  A    between atoms: C_20  and  C_21
REMARK    8  A    between atoms: C_24  and  C_25
REMARK    9  A    between atoms: C_28  and  O_29
REMARK                            x       y       z     vdW  Elec       q    Type
REMARK                         _______ _______ _______ _____ _____    ______ ____
ROOT
ATOM      1  C   UNL     1      -0.640  10.652  21.330  0.00  0.00    +0.000 A 
ATOM      2  C   UNL     1       0.077   9.459  21.509  0.00  0.00    +0.000 A 
ATOM      3  C   UNL     1       0.804   8.990  20.452  0.00  0.00    +0.000 A 
ATOM      4  C   UNL     1       0.884   9.666  19.214  0.00  0.00    +0.000 A 
ATOM      5  C   UNL     1       0.221  10.865  19.042  0.00  0.00    +0.000 A 
ATOM      6  C   UNL     1      -0.548  11.380  20.107  0.00  0.00    +0.000 A 
ATOM      7  C   UNL     1       1.735   8.929  18.173  0.00  0.00    +0.000 C 
ATOM      8  C   UNL     1       2.107   7.772  19.031  0.00  0.00    +0.000 A 
ATOM      9  C   UNL     1       2.878   6.595  18.993  0.00  0.00    +0.000 A 
ATOM     10  N   UNL     1       2.831   5.971  20.200  0.00  0.00    +0.000 NA
ATOM     11  N   UNL     1       2.030   6.754  20.970  0.00  0.00    +0.000 N 
ATOM     12  C   UNL     1       1.592   7.824  20.289  0.00  0.00    +0.000 A 
ATOM     13  H   UNL     1       1.859   6.481  21.931  0.00  0.00    +0.000 HD
ENDROOT
BRANCH   9  14
ATOM     14  C   UNL     1       3.658   6.091  17.882  0.00  0.00    +0.000 A 
ATOM     15  C   UNL     1       4.449   6.953  17.124  0.00  0.00    +0.000 A 
ATOM     16  C   UNL     1       5.134   6.478  16.003  0.00  0.00    +0.000 A 
ATOM     17  C   UNL     1       5.070   5.125  15.615  0.00  0.00    +0.000 A 
ATOM     18  C   UNL     1       4.296   4.267  16.407  0.00  0.00    +0.000 A 
ATOM     19  C   UNL     1       3.601   4.738  17.521  0.00  0.00    +0.000 A 
BRANCH  17  20
ATOM     20  C   UNL     1       5.785   4.638  14.417  0.00  0.00    +0.000 A 
ATOM     21  C   UNL     1       7.081   5.100  14.108  0.00  0.00    +0.000 A 
ATOM     22  C   UNL     1       7.751   4.687  12.955  0.00  0.00    +0.000 A 
ATOM     23  C   UNL     1       7.144   3.781  12.102  0.00  0.00    +0.000 A 
ATOM     24  C   UNL     1       5.878   3.284  12.381  0.00  0.00    +0.000 A 
ATOM     25  C   UNL     1       5.205   3.713  13.528  0.00  0.00    +0.000 A 
BRANCH  23  26
ATOM     26  O   UNL     1       7.761   3.353  10.964  0.00  0.00    +0.000 OA
ATOM     27  H   UNL     1       8.550   3.900  10.821  0.00  0.00    +0.000 HD
ENDBRANCH  23  26
ENDBRANCH  17  20
ENDBRANCH   9  14
BRANCH   1  29
ATOM     28  C   UNL     1      -0.968  12.381  22.910  0.00  0.00    +0.000 C 
ATOM     29  O   UNL     1      -1.441  11.163  22.328  0.00  0.00    +0.000 OA
ENDBRANCH   1  29
BRANCH   6  30
ATOM     30  C   UNL     1      -1.236  12.712  19.870  0.00  0.00    +0.000 C 
BRANCH  30  31
ATOM     31  N   UNL     1      -2.232  12.689  18.775  0.00  0.00    +0.000 NA
ATOM     32  H   UNL     1      -2.420  13.651  18.493  0.00  0.00    +0.000 HD
BRANCH  31  33
ATOM     33  C   UNL     1      -3.490  12.029  19.149  0.00  0.00    +0.000 C 
ATOM     34  C   UNL     1      -4.368  12.921  20.038  0.00  0.00    +0.000 C 
ATOM     35  C   UNL     1      -5.636  12.192  20.452  0.00  0.00    +0.000 C 
ATOM     36  C   UNL     1      -6.438  11.752  19.234  0.00  0.00    +0.000 C 
ATOM     37  C   UNL     1      -5.591  10.900  18.288  0.00  0.00    +0.000 C 
ATOM     38  C   UNL     1      -4.288  11.606  17.893  0.00  0.00    +0.000 C 
BRANCH  36  39
ATOM     39  O   UNL     1      -7.577  11.017  19.663  0.00  0.00    +0.000 OA
ATOM     40  H   UNL     1      -8.208  11.642  20.061  0.00  0.00    +0.000 HD
ENDBRANCH  36  39
ENDBRANCH  31  33
ENDBRANCH  30  31
ENDBRANCH   6  30
TORSDOF 8
ENDMDL
MODEL 3
REMARK VINA RESULT:      -8.8      2.455      4.097
REMARK  Name = 
REMARK  9 active torsions:
REMARK  status: ('A' for Active; 'I' for Inactive)
REMARK    1  A    between atoms: C_1  and  O_2
REMARK    2  A    between atoms: O_2  and  C_3
REMARK    3  A    between atoms: C_8  and  C_9
REMARK    4  A    between atoms: C_9  and  N_10
REMARK    5  A    between atoms: N_10  and  C_11
REMARK    6  A    between atoms: C_14  and  O_15
REMARK    7  A    between atoms: C_20  and  C_21
REMARK    8  A    between atoms: C_24  and  C_25
REMARK    9  A    between atoms: C_28  and  O_29
REMARK                            x       y       z     vdW  Elec       q    Type
REMARK                         _______ _______ _______ _____ _____    ______ ____
ROOT
ATOM      1  C   UNL     1      -0.223  10.686  21.118  0.00  0.00    +0.000 A 
ATOM      2  C   UNL     1       0.427   9.454  21.284  0.00  0.00    +0.000 A 
ATOM      3  C   UNL     1       1.122   8.954  20.219  0.00  0.00    +0.000 A 
ATOM      4  C   UNL     1       1.236   9.636  18.986  0.00  0.00    +0.000 A 
ATOM      5  C   UNL     1       0.639  10.871  18.828  0.00  0.00    +0.000 A 
ATOM      6  C   UNL     1      -0.096  11.419  19.901  0.00  0.00    +0.000 A 
ATOM      7  C   UNL     1       2.040   8.862  17.936  0.00  0.00    +0.000 C 
ATOM      8  C   UNL     1       2.350   7.678  18.782  0.00  0.00    +0.000 A 
ATOM      9  C   UNL     1       3.055   6.461  18.731  0.00  0.00    +0.000 A 
ATOM     10  N   UNL     1       2.979   5.830  19.932  0.00  0.00    +0.000 NA
ATOM     11  N   UNL     1       2.225   6.649  20.712  0.00  0.00    +0.000 N 
ATOM     12  C   UNL     1       1.844   7.748  20.042  0.00  0.00    +0.000 A 
ATOM     13  H   UNL     1       2.043   6.378  21.672  0.00  0.00    +0.000 HD
ENDROOT
BRANCH   9  14
ATOM     14  C   UNL     1       3.801   5.924  17.612  0.00  0.00    +0.000 A 
ATOM     15  C   UNL     1       4.548   6.767  16.790  0.00  0.00    +0.000 A 
ATOM     16  C   UNL     1       5.199   6.258  15.664  0.00  0.00    +0.000 A 
ATOM     17  C   UNL     1       5.144   4.889  15.333  0.00  0.00    +0.000 A 
ATOM     18  C   UNL     1       4.415   4.052  16.188  0.00  0.00    +0.000 A 
ATOM     19  C   UNL     1       3.754   4.557  17.308  0.00  0.00    +0.000 A 
BRANCH  17  20
ATOM     20  C   UNL     1       5.821   4.364  14.129  0.00  0.00    +0.000 A 
ATOM     21  C   UNL     1       5.185   3.425  13.290  0.00  0.00    +0.000 A 
ATOM     22  C   UNL     1       5.829   2.884  12.176  0.00  0.00    +0.000 A 
ATOM     23  C   UNL     1       7.114   3.293  11.867  0.00  0.00    +0.000 A 
ATOM     24  C   UNL     1       7.768   4.232  12.653  0.00  0.00    +0.000 A 
ATOM     25  C   UNL     1       7.125   4.759  13.777  0.00  0.00    +0.000 A 
BRANCH  23  26
ATOM     26  O   UNL     1       7.781   2.788  10.789  0.00  0.00    +0.000 OA
ATOM     27  H   UNL     1       7.235   2.930  10.000  0.00  0.00    +0.000 HD
ENDBRANCH  23  26
ENDBRANCH  17  20
ENDBRANCH   9  14
BRANCH   1  29
ATOM     28  C   UNL     1      -1.107  10.418  23.296  0.00  0.00    +0.000 C 
ATOM     29  O   UNL     1      -0.991  11.231  22.124  0.00  0.00    +0.000 OA
ENDBRANCH   1  29
BRANCH   6  30
ATOM     30  C   UNL     1      -0.710  12.789  19.678  0.00  0.00    +0.000 C 
BRANCH  30  31
ATOM     31  N   UNL     1      -2.182  12.770  19.517  0.00  0.00    +0.000 NA
ATOM     32  H   UNL     1      -2.601  12.562  20.424  0.00  0.00    +0.000 HD
BRANCH  31  33
ATOM     33  C   UNL     1      -2.644  11.793  18.523  0.00  0.00    +0.000 C 
ATOM     34  C   UNL     1      -4.168  11.832  18.341  0.00  0.00    +0.000 C 
ATOM     35  C   UNL     1      -4.621  10.774  17.346  0.00  0.00    +0.000 C 
ATOM     36  C   UNL     1      -3.948  10.970  15.994  0.00  0.00    +0.000 C 
ATOM     37  C   UNL     1      -2.426  10.990  16.127  0.00  0.00    +0.000 C 
ATOM     38  C   UNL     1      -1.955  12.024  17.157  0.00  0.00    +0.000 C 
BRANCH  36  39
ATOM     39  O   UNL     1      -4.347   9.923  15.117  0.00  0.00    +0.000 OA
ATOM     40  H   UNL     1      -3.732   9.179  15.236  0.00  0.00    +0.000 HD
ENDBRANCH  36  39
ENDBRANCH  31  33
ENDBRANCH  30  31
ENDBRANCH   6  30
TORSDOF 8
ENDMDL
MODEL 4
REMARK VINA RESULT:      -8.7      3.422      5.622
REMARK  Name = 
REMARK  9 active torsions:
REMARK  status: ('A' for Active; 'I' for Inactive)
REMARK    1  A    between atoms: C_1  and  O_2
REMARK    2  A    between atoms: O_2  and  C_3
REMARK    3  A    between atoms: C_8  and  C_9
REMARK    4  A    between atoms: C_9  and  N_10
REMARK    5  A    between atoms: N_10  and  C_11
REMARK    6  A    between atoms: C_14  and  O_15
REMARK    7  A    between atoms: C_20  and  C_21
REMARK    8  A    between atoms: C_24  and  C_25
REMARK    9  A    between atoms: C_28  and  O_29
REMARK                            x       y       z     vdW  Elec       q    Type
REMARK                         _______ _______ _______ _____ _____    ______ ____
ROOT
ATOM      1  C   UNL     1      -0.458  10.931  21.189  0.00  0.00    +0.000 A 
ATOM      2  C   UNL     1       0.207   9.710  21.381  0.00  0.00    +0.000 A 
ATOM      3  C   UNL     1       0.921   9.205  20.331  0.00  0.00    +0.000 A 
ATOM      4  C   UNL     1       1.038   9.869  19.090  0.00  0.00    +0.000 A 
ATOM      5  C   UNL     1       0.426  11.093  18.906  0.00  0.00    +0.000 A 
ATOM      6  C   UNL     1      -0.328  11.646  19.962  0.00  0.00    +0.000 A 
ATOM      7  C   UNL     1       1.864   9.091  18.060  0.00  0.00    +0.000 C 
ATOM      8  C   UNL     1       2.182   7.924  18.927  0.00  0.00    +0.000 A 
ATOM      9  C   UNL     1       2.904   6.716  18.902  0.00  0.00    +0.000 A 
ATOM     10  N   UNL     1       2.823   6.103  20.112  0.00  0.00    +0.000 NA
ATOM     11  N   UNL     1       2.050   6.923  20.872  0.00  0.00    +0.000 N 
ATOM     12  C   UNL     1       1.661   8.006  20.181  0.00  0.00    +0.000 A 
ATOM     13  H   UNL     1       1.862   6.664  21.834  0.00  0.00    +0.000 HD
ENDROOT
BRANCH   9  14
ATOM     14  C   UNL     1       3.670   6.173  17.799  0.00  0.00    +0.000 A 
ATOM     15  C   UNL     1       4.414   7.014  16.974  0.00  0.00    +0.000 A 
ATOM     16  C   UNL     1       5.085   6.496  15.862  0.00  0.00    +0.000 A 
ATOM     17  C   UNL     1       5.050   5.122  15.551  0.00  0.00    +0.000 A 
ATOM     18  C   UNL     1       4.323   4.288  16.410  0.00  0.00    +0.000 A 
ATOM     19  C   UNL     1       3.643   4.801  17.515  0.00  0.00    +0.000 A 
BRANCH  17  20
ATOM     20  C   UNL     1       5.748   4.589  14.363  0.00  0.00    +0.000 A 
ATOM     21  C   UNL     1       7.061   4.999  14.048  0.00  0.00    +0.000 A 
ATOM     22  C   UNL     1       7.717   4.542  12.903  0.00  0.00    +0.000 A 
ATOM     23  C   UNL     1       7.078   3.645  12.065  0.00  0.00    +0.000 A 
ATOM     24  C   UNL     1       5.795   3.199  12.350  0.00  0.00    +0.000 A 
ATOM     25  C   UNL     1       5.137   3.671  13.489  0.00  0.00    +0.000 A 
BRANCH  23  26
ATOM     26  O   UNL     1       7.680   3.175  10.935  0.00  0.00    +0.000 OA
ATOM     27  H   UNL     1       8.642   3.248  11.050  0.00  0.00    +0.000 HD
ENDBRANCH  23  26
ENDBRANCH  17  20
ENDBRANCH   9  14
BRANCH   1  29
ATOM     28  C   UNL     1      -1.390  10.668  23.348  0.00  0.00    +0.000 C 
ATOM     29  O   UNL     1      -1.245  11.480  22.178  0.00  0.00    +0.000 OA
ENDBRANCH   1  29
BRANCH   6  30
ATOM     30  C   UNL     1      -0.959  13.004  19.712  0.00  0.00    +0.000 C 
BRANCH  30  31
ATOM     31  N   UNL     1      -0.166  14.141  20.231  0.00  0.00    +0.000 NA
ATOM     32  H   UNL     1      -0.790  14.754  20.756  0.00  0.00    +0.000 HD
BRANCH  31  33
ATOM     33  C   UNL     1       0.508  14.908  19.175  0.00  0.00    +0.000 C 
ATOM     34  C   UNL     1       0.367  16.423  19.383  0.00  0.00    +0.000 C 
ATOM     35  C   UNL     1       1.028  17.188  18.247  0.00  0.00    +0.000 C 
ATOM     36  C   UNL     1       2.505  16.832  18.133  0.00  0.00    +0.000 C 
ATOM     37  C   UNL     1       2.703  15.324  17.975  0.00  0.00    +0.000 C 
ATOM     38  C   UNL     1       2.007  14.536  19.091  0.00  0.00    +0.000 C 
BRANCH  36  39
ATOM     39  O   UNL     1       3.067  17.516  17.020  0.00  0.00    +0.000 OA
ATOM     40  H   UNL     1       2.361  17.662  16.366  0.00  0.00    +0.000 HD
ENDBRANCH  36  39
ENDBRANCH  31  33
ENDBRANCH  30  31
ENDBRANCH   6  30
TORSDOF 8
ENDMDL
MODEL 5
REMARK VINA RESULT:      -8.7      2.375      2.969
REMARK  Name = 
REMARK  9 active torsions:
REMARK  status: ('A' for Active; 'I' for Inactive)
REMARK    1  A    between atoms: C_1  and  O_2
REMARK    2  A    between atoms: O_2  and  C_3
REMARK    3  A    between atoms: C_8  and  C_9
REMARK    4  A    between atoms: C_9  and  N_10
REMARK    5  A    between atoms: N_10  and  C_11
REMARK    6  A    between atoms: C_14  and  O_15
REMARK    7  A    between atoms: C_20  and  C_21
REMARK    8  A    between atoms: C_24  and  C_25
REMARK    9  A    between atoms: C_28  and  O_29
REMARK                            x       y       z     vdW  Elec       q    Type
REMARK                         _______ _______ _______ _____ _____    ______ ____
ROOT
ATOM      1  C   UNL     1      -2.104  14.765  20.325  0.00  0.00    +0.000 A 
ATOM      2  C   UNL     1      -0.905  14.386  19.704  0.00  0.00    +0.000 A 
ATOM      3  C   UNL     1      -0.608  13.052  19.658  0.00  0.00    +0.000 A 
ATOM      4  C   UNL     1      -1.464  12.055  20.176  0.00  0.00    +0.000 A 
ATOM      5  C   UNL     1      -2.669  12.414  20.747  0.00  0.00    +0.000 A 
ATOM      6  C   UNL     1      -3.010  13.781  20.823  0.00  0.00    +0.000 A 
ATOM      7  C   UNL     1      -0.901  10.637  20.035  0.00  0.00    +0.000 C 
ATOM      8  C   UNL     1       0.370  11.014  19.358  0.00  0.00    +0.000 A 
ATOM      9  C   UNL     1       1.520  10.425  18.800  0.00  0.00    +0.000 A 
ATOM     10  N   UNL     1       2.319  11.385  18.265  0.00  0.00    +0.000 NA
ATOM     11  N   UNL     1       1.670  12.555  18.500  0.00  0.00    +0.000 N 
ATOM     12  C   UNL     1       0.513  12.350  19.149  0.00  0.00    +0.000 A 
ATOM     13  H   UNL     1       2.086  13.420  18.172  0.00  0.00    +0.000 HD
ENDROOT
BRANCH   9  14
ATOM     14  C   UNL     1       1.843   9.014  18.738  0.00  0.00    +0.000 A 
ATOM     15  C   UNL     1       1.683   8.203  19.861  0.00  0.00    +0.000 A 
ATOM     16  C   UNL     1       2.073   6.861  19.821  0.00  0.00    +0.000 A 
ATOM     17  C   UNL     1       2.615   6.283  18.656  0.00  0.00    +0.000 A 
ATOM     18  C   UNL     1       2.739   7.105  17.529  0.00  0.00    +0.000 A 
ATOM     19  C   UNL     1       2.361   8.448  17.567  0.00  0.00    +0.000 A 
BRANCH  17  20
ATOM     20  C   UNL     1       3.042   4.868  18.632  0.00  0.00    +0.000 A 
ATOM     21  C   UNL     1       2.245   3.881  18.012  0.00  0.00    +0.000 A 
ATOM     22  C   UNL     1       2.610   2.534  18.022  0.00  0.00    +0.000 A 
ATOM     23  C   UNL     1       3.793   2.153  18.631  0.00  0.00    +0.000 A 
ATOM     24  C   UNL     1       4.616   3.094  19.232  0.00  0.00    +0.000 A 
ATOM     25  C   UNL     1       4.239   4.440  19.234  0.00  0.00    +0.000 A 
BRANCH  23  26
ATOM     26  O   UNL     1       4.185   0.847  18.666  0.00  0.00    +0.000 OA
ATOM     27  H   UNL     1       3.669   0.356  18.007  0.00  0.00    +0.000 HD
ENDBRANCH  23  26
ENDBRANCH  17  20
ENDBRANCH   9  14
BRANCH   1  29
ATOM     28  C   UNL     1      -1.683  16.996  19.662  0.00  0.00    +0.000 C 
ATOM     29  O   UNL     1      -2.450  16.092  20.463  0.00  0.00    +0.000 OA
ENDBRANCH   1  29
BRANCH   6  30
ATOM     30  C   UNL     1      -4.356  14.116  21.440  0.00  0.00    +0.000 C 
BRANCH  30  31
ATOM     31  N   UNL     1      -5.393  14.492  20.453  0.00  0.00    +0.000 NA
ATOM     32  H   UNL     1      -6.000  15.194  20.877  0.00  0.00    +0.000 HD
BRANCH  31  33
ATOM     33  C   UNL     1      -6.200  13.351  19.998  0.00  0.00    +0.000 C 
ATOM     34  C   UNL     1      -5.646  12.732  18.706  0.00  0.00    +0.000 C 
ATOM     35  C   UNL     1      -6.531  11.590  18.232  0.00  0.00    +0.000 C 
ATOM     36  C   UNL     1      -6.647  10.508  19.297  0.00  0.00    +0.000 C 
ATOM     37  C   UNL     1      -7.147  11.083  20.623  0.00  0.00    +0.000 C 
ATOM     38  C   UNL     1      -6.289  12.263  21.094  0.00  0.00    +0.000 C 
BRANCH  36  39
ATOM     39  O   UNL     1      -7.535   9.494  18.841  0.00  0.00    +0.000 OA
ATOM     40  H   UNL     1      -8.406   9.652  19.243  0.00  0.00    +0.000 HD
ENDBRANCH  36  39
ENDBRANCH  31  33
ENDBRANCH  30  31
ENDBRANCH   6  30
TORSDOF 8
ENDMDL
MODEL 6
REMARK VINA RESULT:      -8.7      3.046      4.601
REMARK  Name = 
REMARK  9 active torsions:
REMARK  status: ('A' for Active; 'I' for Inactive)
REMARK    1  A    between atoms: C_1  and  O_2
REMARK    2  A    between atoms: O_2  and  C_3
REMARK    3  A    between atoms: C_8  and  C_9
REMARK    4  A    between atoms: C_9  and  N_10
REMARK    5  A    between atoms: N_10  and  C_11
REMARK    6  A    between atoms: C_14  and  O_15
REMARK    7  A    between atoms: C_20  and  C_21
REMARK    8  A    between atoms: C_24  and  C_25
REMARK    9  A    between atoms: C_28  and  O_29
REMARK                            x       y       z     vdW  Elec       q    Type
REMARK                         _______ _______ _______ _____ _____    ______ ____
ROOT
ATOM      1  C   UNL     1      -1.984  13.882  22.425  0.00  0.00    +0.000 A 
ATOM      2  C   UNL     1      -1.458  12.655  22.857  0.00  0.00    +0.000 A 
ATOM      3  C   UNL     1      -0.790  11.893  21.940  0.00  0.00    +0.000 A 
ATOM      4  C   UNL     1      -0.586  12.301  20.603  0.00  0.00    +0.000 A 
ATOM      5  C   UNL     1      -1.059  13.528  20.180  0.00  0.00    +0.000 A 
ATOM      6  C   UNL     1      -1.762  14.342  21.093  0.00  0.00    +0.000 A 
ATOM      7  C   UNL     1       0.164  11.265  19.758  0.00  0.00    +0.000 C 
ATOM      8  C   UNL     1       0.342  10.252  20.834  0.00  0.00    +0.000 A 
ATOM      9  C   UNL     1       0.930   8.991  21.052  0.00  0.00    +0.000 A 
ATOM     10  N   UNL     1       0.768   8.623  22.350  0.00  0.00    +0.000 NA
ATOM     11  N   UNL     1       0.079   9.645  22.922  0.00  0.00    +0.000 N 
ATOM     12  C   UNL     1      -0.182  10.617  22.034  0.00  0.00    +0.000 A 
ATOM     13  H   UNL     1      -0.149   9.589  23.908  0.00  0.00    +0.000 HD
ENDROOT
BRANCH   9  14
ATOM     14  C   UNL     1       1.646   8.177  20.091  0.00  0.00    +0.000 A 
ATOM     15  C   UNL     1       2.033   6.878  20.415  0.00  0.00    +0.000 A 
ATOM     16  C   UNL     1       2.795   6.126  19.517  0.00  0.00    +0.000 A 
ATOM     17  C   UNL     1       3.177   6.638  18.261  0.00  0.00    +0.000 A 
ATOM     18  C   UNL     1       2.752   7.933  17.940  0.00  0.00    +0.000 A 
ATOM     19  C   UNL     1       2.000   8.692  18.837  0.00  0.00    +0.000 A 
BRANCH  17  20
ATOM     20  C   UNL     1       3.998   5.840  17.327  0.00  0.00    +0.000 A 
ATOM     21  C   UNL     1       4.812   6.467  16.359  0.00  0.00    +0.000 A 
ATOM     22  C   UNL     1       5.557   5.728  15.439  0.00  0.00    +0.000 A 
ATOM     23  C   UNL     1       5.520   4.345  15.487  0.00  0.00    +0.000 A 
ATOM     24  C   UNL     1       4.751   3.688  16.437  0.00  0.00    +0.000 A 
ATOM     25  C   UNL     1       3.994   4.432  17.346  0.00  0.00    +0.000 A 
BRANCH  23  26
ATOM     26  O   UNL     1       6.230   3.584  14.605  0.00  0.00    +0.000 OA
ATOM     27  H   UNL     1       5.717   2.783  14.411  0.00  0.00    +0.000 HD
ENDBRANCH  23  26
ENDBRANCH  17  20
ENDBRANCH   9  14
BRANCH   1  29
ATOM     28  C   UNL     1      -2.031  15.086  24.461  0.00  0.00    +0.000 C 
ATOM     29  O   UNL     1      -2.719  14.684  23.272  0.00  0.00    +0.000 OA
ENDBRANCH   1  29
BRANCH   6  30
ATOM     30  C   UNL     1      -2.238  15.689  20.580  0.00  0.00    +0.000 C 
BRANCH  30  31
ATOM     31  N   UNL     1      -1.478  16.841  21.116  0.00  0.00    +0.000 NA
ATOM     32  H   UNL     1      -2.142  17.575  21.364  0.00  0.00    +0.000 HD
BRANCH  31  33
ATOM     33  C   UNL     1      -0.486  17.370  20.171  0.00  0.00    +0.000 C 
ATOM     34  C   UNL     1       0.920  16.811  20.439  0.00  0.00    +0.000 C 
ATOM     35  C   UNL     1       1.934  17.417  19.481  0.00  0.00    +0.000 C 
ATOM     36  C   UNL     1       1.551  17.142  18.032  0.00  0.00    +0.000 C 
ATOM     37  C   UNL     1       0.136  17.633  17.727  0.00  0.00    +0.000 C 
ATOM     38  C   UNL     1      -0.892  17.063  18.711  0.00  0.00    +0.000 C 
BRANCH  36  39
ATOM     39  O   UNL     1       2.486  17.781  17.171  0.00  0.00    +0.000 OA
ATOM     40  H   UNL     1       2.235  18.717  17.095  0.00  0.00    +0.000 HD
ENDBRANCH  36  39
ENDBRANCH  31  33
ENDBRANCH  30  31
ENDBRANCH   6  30
TORSDOF 8
ENDMDL
MODEL 7
REMARK VINA RESULT:      -8.5      3.333      5.872
REMARK  Name = 
REMARK  9 active torsions:
REMARK  status: ('A' for Active; 'I' for Inactive)
REMARK    1  A    between atoms: C_1  and  O_2
REMARK    2  A    between atoms: O_2  and  C_3
REMARK    3  A    between atoms: C_8  and  C_9
REMARK    4  A    between atoms: C_9  and  N_10
REMARK    5  A    between atoms: N_10  and  C_11
REMARK    6  A    between atoms: C_14  and  O_15
REMARK    7  A    between atoms: C_20  and  C_21
REMARK    8  A    between atoms: C_24  and  C_25
REMARK    9  A    between atoms: C_28  and  O_29
REMARK                            x       y       z     vdW  Elec       q    Type
REMARK                         _______ _______ _______ _____ _____    ______ ____
ROOT
ATOM      1  C   UNL     1      -0.383  10.783  20.951  0.00  0.00    +0.000 A 
ATOM      2  C   UNL     1       0.307   9.581  21.164  0.00  0.00    +0.000 A 
ATOM      3  C   UNL     1       1.012   9.059  20.116  0.00  0.00    +0.000 A 
ATOM      4  C   UNL     1       1.096   9.691  18.855  0.00  0.00    +0.000 A 
ATOM      5  C   UNL     1       0.459  10.899  18.649  0.00  0.00    +0.000 A 
ATOM      6  C   UNL     1      -0.287  11.467  19.703  0.00  0.00    +0.000 A 
ATOM      7  C   UNL     1       1.919   8.900  17.833  0.00  0.00    +0.000 C 
ATOM      8  C   UNL     1       2.273   7.764  18.726  0.00  0.00    +0.000 A 
ATOM      9  C   UNL     1       3.016   6.568  18.721  0.00  0.00    +0.000 A 
ATOM     10  N   UNL     1       2.967   5.987  19.948  0.00  0.00    +0.000 NA
ATOM     11  N   UNL     1       2.192   6.813  20.699  0.00  0.00    +0.000 N 
ATOM     12  C   UNL     1       1.772   7.870  19.986  0.00  0.00    +0.000 A 
ATOM     13  H   UNL     1       2.024   6.578  21.670  0.00  0.00    +0.000 HD
ENDROOT
BRANCH   9  14
ATOM     14  C   UNL     1       3.773   6.008  17.620  0.00  0.00    +0.000 A 
ATOM     15  C   UNL     1       4.557   6.830  16.811  0.00  0.00    +0.000 A 
ATOM     16  C   UNL     1       5.220   6.300  15.701  0.00  0.00    +0.000 A 
ATOM     17  C   UNL     1       5.138   4.931  15.376  0.00  0.00    +0.000 A 
ATOM     18  C   UNL     1       4.372   4.115  16.218  0.00  0.00    +0.000 A 
ATOM     19  C   UNL     1       3.700   4.642  17.321  0.00  0.00    +0.000 A 
BRANCH  17  20
ATOM     20  C   UNL     1       5.829   4.385  14.188  0.00  0.00    +0.000 A 
ATOM     21  C   UNL     1       7.137   4.796  13.857  0.00  0.00    +0.000 A 
ATOM     22  C   UNL     1       7.785   4.327  12.713  0.00  0.00    +0.000 A 
ATOM     23  C   UNL     1       7.143   3.416  11.893  0.00  0.00    +0.000 A 
ATOM     24  C   UNL     1       5.865   2.968  12.194  0.00  0.00    +0.000 A 
ATOM     25  C   UNL     1       5.214   3.453  13.332  0.00  0.00    +0.000 A 
BRANCH  23  26
ATOM     26  O   UNL     1       7.739   2.933  10.764  0.00  0.00    +0.000 OA
ATOM     27  H   UNL     1       7.958   3.686  10.191  0.00  0.00    +0.000 HD
ENDBRANCH  23  26
ENDBRANCH  17  20
ENDBRANCH   9  14
BRANCH   1  29
ATOM     28  C   UNL     1      -1.149  10.643  23.185  0.00  0.00    +0.000 C 
ATOM     29  O   UNL     1      -1.163  11.346  21.938  0.00  0.00    +0.000 OA
ENDBRANCH   1  29
BRANCH   6  30
ATOM     30  C   UNL     1      -0.947  12.806  19.427  0.00  0.00    +0.000 C 
BRANCH  30  31
ATOM     31  N   UNL     1      -0.349  13.937  20.172  0.00  0.00    +0.000 NA
ATOM     32  H   UNL     1      -0.695  14.807  19.766  0.00  0.00    +0.000 HD
BRANCH  31  33
ATOM     33  C   UNL     1       1.120  13.932  20.151  0.00  0.00    +0.000 C 
ATOM     34  C   UNL     1       1.681  14.573  18.874  0.00  0.00    +0.000 C 
ATOM     35  C   UNL     1       3.200  14.505  18.857  0.00  0.00    +0.000 C 
ATOM     36  C   UNL     1       3.793  15.206  20.072  0.00  0.00    +0.000 C 
ATOM     37  C   UNL     1       3.227  14.638  21.374  0.00  0.00    +0.000 C 
ATOM     38  C   UNL     1       1.694  14.662  21.389  0.00  0.00    +0.000 C 
BRANCH  36  39
ATOM     39  O   UNL     1       5.208  15.061  20.053  0.00  0.00    +0.000 OA
ATOM     40  H   UNL     1       5.552  15.334  20.921  0.00  0.00    +0.000 HD
ENDBRANCH  36  39
ENDBRANCH  31  33
ENDBRANCH  30  31
ENDBRANCH   6  30
TORSDOF 8
ENDMDL
MODEL 8
REMARK VINA RESULT:      -8.4      3.250      4.785
REMARK  Name = 
REMARK  9 active torsions:
REMARK  status: ('A' for Active; 'I' for Inactive)
REMARK    1  A    between atoms: C_1  and  O_2
REMARK    2  A    between atoms: O_2  and  C_3
REMARK    3  A    between atoms: C_8  and  C_9
REMARK    4  A    between atoms: C_9  and  N_10
REMARK    5  A    between atoms: N_10  and  C_11
REMARK    6  A    between atoms: C_14  and  O_15
REMARK    7  A    between atoms: C_20  and  C_21
REMARK    8  A    between atoms: C_24  and  C_25
REMARK    9  A    between atoms: C_28  and  O_29
REMARK                            x       y       z     vdW  Elec       q    Type
REMARK                         _______ _______ _______ _____ _____    ______ ____
ROOT
ATOM      1  C   UNL     1      -1.914  13.783  22.891  0.00  0.00    +0.000 A 
ATOM      2  C   UNL     1      -1.674  12.420  23.125  0.00  0.00    +0.000 A 
ATOM      3  C   UNL     1      -0.865  11.758  22.245  0.00  0.00    +0.000 A 
ATOM      4  C   UNL     1      -0.246  12.391  21.143  0.00  0.00    +0.000 A 
ATOM      5  C   UNL     1      -0.437  13.742  20.931  0.00  0.00    +0.000 A 
ATOM      6  C   UNL     1      -1.273  14.461  21.812  0.00  0.00    +0.000 A 
ATOM      7  C   UNL     1       0.589  11.435  20.284  0.00  0.00    +0.000 C 
ATOM      8  C   UNL     1       0.340  10.207  21.086  0.00  0.00    +0.000 A 
ATOM      9  C   UNL     1       0.694   8.845  21.126  0.00  0.00    +0.000 A 
ATOM     10  N   UNL     1       0.131   8.251  22.211  0.00  0.00    +0.000 NA
ATOM     11  N   UNL     1      -0.571   9.238  22.828  0.00  0.00    +0.000 N 
ATOM     12  C   UNL     1      -0.457  10.403  22.170  0.00  0.00    +0.000 A 
ATOM     13  H   UNL     1      -1.073   9.021  23.681  0.00  0.00    +0.000 HD
ENDROOT
BRANCH   9  14
ATOM     14  C   UNL     1       1.555   8.133  20.205  0.00  0.00    +0.000 A 
ATOM     15  C   UNL     1       1.855   8.674  18.955  0.00  0.00    +0.000 A 
ATOM     16  C   UNL     1       2.618   7.948  18.038  0.00  0.00    +0.000 A 
ATOM     17  C   UNL     1       3.124   6.669  18.345  0.00  0.00    +0.000 A 
ATOM     18  C   UNL     1       2.840   6.155  19.616  0.00  0.00    +0.000 A 
ATOM     19  C   UNL     1       2.069   6.872  20.532  0.00  0.00    +0.000 A 
BRANCH  17  20
ATOM     20  C   UNL     1       3.915   5.903  17.359  0.00  0.00    +0.000 A 
ATOM     21  C   UNL     1       3.883   4.492  17.343  0.00  0.00    +0.000 A 
ATOM     22  C   UNL     1       4.660   3.752  16.450  0.00  0.00    +0.000 A 
ATOM     23  C   UNL     1       5.466   4.413  15.539  0.00  0.00    +0.000 A 
ATOM     24  C   UNL     1       5.509   5.799  15.506  0.00  0.00    +0.000 A 
ATOM     25  C   UNL     1       4.741   6.536  16.412  0.00  0.00    +0.000 A 
BRANCH  23  26
ATOM     26  O   UNL     1       6.243   3.729  14.651  0.00  0.00    +0.000 OA
ATOM     27  H   UNL     1       6.891   3.207  15.153  0.00  0.00    +0.000 HD
ENDBRANCH  23  26
ENDBRANCH  17  20
ENDBRANCH   9  14
BRANCH   1  29
ATOM     28  C   UNL     1      -3.704  13.723  24.436  0.00  0.00    +0.000 C 
ATOM     29  O   UNL     1      -2.762  14.509  23.699  0.00  0.00    +0.000 OA
ENDBRANCH   1  29
BRANCH   6  30
ATOM     30  C   UNL     1      -1.429  15.947  21.544  0.00  0.00    +0.000 C 
BRANCH  30  31
ATOM     31  N   UNL     1      -0.170  16.625  21.160  0.00  0.00    +0.000 NA
ATOM     32  H   UNL     1      -0.123  17.517  21.653  0.00  0.00    +0.000 HD
BRANCH  31  33
ATOM     33  C   UNL     1      -0.052  16.852  19.714  0.00  0.00    +0.000 C 
ATOM     34  C   UNL     1      -1.073  17.881  19.207  0.00  0.00    +0.000 C 
ATOM     35  C   UNL     1      -0.962  18.055  17.700  0.00  0.00    +0.000 C 
ATOM     36  C   UNL     1       0.439  18.499  17.301  0.00  0.00    +0.000 C 
ATOM     37  C   UNL     1       1.501  17.533  17.827  0.00  0.00    +0.000 C 
ATOM     38  C   UNL     1       1.376  17.315  19.340  0.00  0.00    +0.000 C 
BRANCH  36  39
ATOM     39  O   UNL     1       0.518  18.584  15.883  0.00  0.00    +0.000 OA
ATOM     40  H   UNL     1       0.437  17.685  15.522  0.00  0.00    +0.000 HD
ENDBRANCH  36  39
ENDBRANCH  31  33
ENDBRANCH  30  31
ENDBRANCH   6  30
TORSDOF 8
ENDMDL
MODEL 9
REMARK VINA RESULT:      -8.3      3.889     11.114
REMARK  Name = 
REMARK  9 active torsions:
REMARK  status: ('A' for Active; 'I' for Inactive)
REMARK    1  A    between atoms: C_1  and  O_2
REMARK    2  A    between atoms: O_2  and  C_3
REMARK    3  A    between atoms: C_8  and  C_9
REMARK    4  A    between atoms: C_9  and  N_10
REMARK    5  A    between atoms: N_10  and  C_11
REMARK    6  A    between atoms: C_14  and  O_15
REMARK    7  A    between atoms: C_20  and  C_21
REMARK    8  A    between atoms: C_24  and  C_25
REMARK    9  A    between atoms: C_28  and  O_29
REMARK                            x       y       z     vdW  Elec       q    Type
REMARK                         _______ _______ _______ _____ _____    ______ ____
ROOT
ATOM      1  C   UNL     1       3.418   4.218  19.294  0.00  0.00    +0.000 A 
ATOM      2  C   UNL     1       2.806   5.004  20.282  0.00  0.00    +0.000 A 
ATOM      3  C   UNL     1       2.397   6.260  19.932  0.00  0.00    +0.000 A 
ATOM      4  C   UNL     1       2.537   6.778  18.625  0.00  0.00    +0.000 A 
ATOM      5  C   UNL     1       3.095   5.996  17.633  0.00  0.00    +0.000 A 
ATOM      6  C   UNL     1       3.538   4.696  17.955  0.00  0.00    +0.000 A 
ATOM      7  C   UNL     1       2.032   8.218  18.485  0.00  0.00    +0.000 C 
ATOM      8  C   UNL     1       1.593   8.393  19.895  0.00  0.00    +0.000 A 
ATOM      9  C   UNL     1       0.977   9.344  20.731  0.00  0.00    +0.000 A 
ATOM     10  N   UNL     1       0.806   8.825  21.976  0.00  0.00    +0.000 NA
ATOM     11  N   UNL     1       1.321   7.569  21.907  0.00  0.00    +0.000 N 
ATOM     12  C   UNL     1       1.793   7.301  20.679  0.00  0.00    +0.000 A 
ATOM     13  H   UNL     1       1.291   6.983  22.734  0.00  0.00    +0.000 HD
ENDROOT
BRANCH   9  14
ATOM     14  C   UNL     1       0.533  10.675  20.371  0.00  0.00    +0.000 A 
ATOM     15  C   UNL     1       1.343  11.506  19.599  0.00  0.00    +0.000 A 
ATOM     16  C   UNL     1       0.947  12.817  19.323  0.00  0.00    +0.000 A 
ATOM     17  C   UNL     1      -0.278  13.333  19.790  0.00  0.00    +0.000 A 
ATOM     18  C   UNL     1      -1.093  12.474  20.537  0.00  0.00    +0.000 A 
ATOM     19  C   UNL     1      -0.698  11.167  20.825  0.00  0.00    +0.000 A 
BRANCH  17  20
ATOM     20  C   UNL     1      -0.678  14.728  19.508  0.00  0.00    +0.000 A 
ATOM     21  C   UNL     1      -1.709  15.350  20.244  0.00  0.00    +0.000 A 
ATOM     22  C   UNL     1      -2.131  16.649  19.958  0.00  0.00    +0.000 A 
ATOM     23  C   UNL     1      -1.510  17.360  18.945  0.00  0.00    +0.000 A 
ATOM     24  C   UNL     1      -0.477  16.793  18.212  0.00  0.00    +0.000 A 
ATOM     25  C   UNL     1      -0.068  15.486  18.491  0.00  0.00    +0.000 A 
BRANCH  23  26
ATOM     26  O   UNL     1      -1.893  18.631  18.630  0.00  0.00    +0.000 OA
ATOM     27  H   UNL     1      -2.079  18.666  17.678  0.00  0.00    +0.000 HD
ENDBRANCH  23  26
ENDBRANCH  17  20
ENDBRANCH   9  14
BRANCH   1  29
ATOM     28  C   UNL     1       3.247   2.293  20.657  0.00  0.00    +0.000 C 
ATOM     29  O   UNL     1       3.909   2.963  19.579  0.00  0.00    +0.000 OA
ENDBRANCH   1  29
BRANCH   6  30
ATOM     30  C   UNL     1       4.122   3.873  16.820  0.00  0.00    +0.000 C 
BRANCH  30  31
ATOM     31  N   UNL     1       5.572   4.081  16.609  0.00  0.00    +0.000 NA
ATOM     32  H   UNL     1       6.056   3.210  16.824  0.00  0.00    +0.000 HD
BRANCH  31  33
ATOM     33  C   UNL     1       6.126   5.170  17.425  0.00  0.00    +0.000 C 
ATOM     34  C   UNL     1       7.384   4.733  18.190  0.00  0.00    +0.000 C 
ATOM     35  C   UNL     1       7.903   5.863  19.066  0.00  0.00    +0.000 C 
ATOM     36  C   UNL     1       8.224   7.098  18.235  0.00  0.00    +0.000 C 
ATOM     37  C   UNL     1       7.016   7.544  17.411  0.00  0.00    +0.000 C 
ATOM     38  C   UNL     1       6.455   6.404  16.553  0.00  0.00    +0.000 C 
BRANCH  36  39
ATOM     39  O   UNL     1       8.640   8.149  19.098  0.00  0.00    +0.000 OA
ATOM     40  H   UNL     1       9.492   7.896  19.493  0.00  0.00    +0.000 HD
ENDBRANCH  36  39
ENDBRANCH  31  33
ENDBRANCH  30  31
ENDBRANCH   6  30
TORSDOF 8
ENDMDL
