MODEL 1
REMARK VINA RESULT:      -7.9      0.000      0.000
REMARK  Name = 
REMARK  9 active torsions:
REMARK  status: ('A' for Active; 'I' for Inactive)
REMARK    1  A    between atoms: C_1  and  O_2
REMARK    2  A    between atoms: O_2  and  C_3
REMARK    3  A    between atoms: C_5  and  C_6
REMARK    4  A    between atoms: C_8  and  C_9
REMARK    5  A    between atoms: C_9  and  C_11
REMARK    6  A    between atoms: C_21  and  O_22
REMARK    7  A    between atoms: O_22  and  C_23
REMARK    8  A    between atoms: C_24  and  O_25
REMARK    9  A    between atoms: O_25  and  C_26
REMARK                            x       y       z     vdW  Elec       q    Type
REMARK                         _______ _______ _______ _____ _____    ______ ____
ROOT
ATOM      1  C   UNL     1       8.394   8.544  18.359  0.00  0.00    +0.000 A 
ATOM      2  N   UNL     1       7.592   8.296  17.339  0.00  0.00    +0.000 NA
ATOM      3  C   UNL     1       7.199   6.973  17.460  0.00  0.00    +0.000 A 
ATOM      4  C   UNL     1       7.784   6.416  18.577  0.00  0.00    +0.000 A 
ATOM      5  N   UNL     1       8.553   7.402  19.114  0.00  0.00    +0.000 N 
ATOM      6  H   UNL     1       9.084   7.344  19.972  0.00  0.00    +0.000 HD
ENDROOT
BRANCH   1   9
ATOM      7  C   UNL     1       9.703  12.075  18.152  0.00  0.00    +0.000 A 
ATOM      8  C   UNL     1       9.375  10.750  17.802  0.00  0.00    +0.000 A 
ATOM      9  C   UNL     1       8.953   9.836  18.762  0.00  0.00    +0.000 A 
ATOM     10  C   UNL     1       8.993  10.222  20.104  0.00  0.00    +0.000 A 
ATOM     11  C   UNL     1       9.399  11.510  20.488  0.00  0.00    +0.000 A 
ATOM     12  C   UNL     1       9.760  12.461  19.510  0.00  0.00    +0.000 A 
BRANCH   7  14
ATOM     13  C   UNL     1      11.354  13.152  16.836  0.00  0.00    +0.000 C 
ATOM     14  O   UNL     1       9.970  12.995  17.168  0.00  0.00    +0.000 OA
ENDBRANCH   7  14
BRANCH  11  15
ATOM     15  O   UNL     1       9.339  11.648  21.853  0.00  0.00    +0.000 OA
ATOM     16  C   UNL     1       8.100  11.943  22.477  0.00  0.00    +0.000 C 
ENDBRANCH  11  15
BRANCH  12  17
ATOM     17  O   UNL     1      10.120  13.688  19.991  0.00  0.00    +0.000 OA
ATOM     18  C   UNL     1       9.189  14.749  20.104  0.00  0.00    +0.000 C 
ENDBRANCH  12  17
ENDBRANCH   1   9
BRANCH   3  19
ATOM     19  C   UNL     1       6.262   6.282  16.575  0.00  0.00    +0.000 C 
ATOM     20  O   UNL     1       6.506   6.091  15.386  0.00  0.00    +0.000 OA
BRANCH  19  21
ATOM     21  C   UNL     1       4.961   5.812  17.120  0.00  0.00    +0.000 A 
ATOM     22  C   UNL     1       4.654   4.445  17.031  0.00  0.00    +0.000 A 
ATOM     23  C   UNL     1       3.413   3.976  17.464  0.00  0.00    +0.000 A 
ATOM     24  C   UNL     1       2.480   4.876  17.970  0.00  0.00    +0.000 A 
ATOM     25  F   UNL     1       1.284   4.427  18.370  0.00  0.00    +0.000 F 
ATOM     26  C   UNL     1       2.766   6.235  18.054  0.00  0.00    +0.000 A 
ATOM     27  C   UNL     1       4.008   6.707  17.630  0.00  0.00    +0.000 A 
ENDBRANCH  19  21
ENDBRANCH   3  19
TORSDOF 6
ENDMDL
MODEL 2
REMARK VINA RESULT:      -7.7      4.961      8.582
REMARK  Name = 
REMARK  9 active torsions:
REMARK  status: ('A' for Active; 'I' for Inactive)
REMARK    1  A    between atoms: C_1  and  O_2
REMARK    2  A    between atoms: O_2  and  C_3
REMARK    3  A    between atoms: C_5  and  C_6
REMARK    4  A    between atoms: C_8  and  C_9
REMARK    5  A    between atoms: C_9  and  C_11
REMARK    6  A    between atoms: C_21  and  O_22
REMARK    7  A    between atoms: O_22  and  C_23
REMARK    8  A    between atoms: C_24  and  O_25
REMARK    9  A    between atoms: O_25  and  C_26
REMARK                            x       y       z     vdW  Elec       q    Type
REMARK                         _______ _______ _______ _____ _____    ______ ____
ROOT
ATOM      1  C   UNL     1       2.424   7.697  18.583  0.00  0.00    +0.000 A 
ATOM      2  N   UNL     1       1.929   8.743  17.946  0.00  0.00    +0.000 NA
ATOM      3  C   UNL     1       1.205   9.467  18.880  0.00  0.00    +0.000 A 
ATOM      4  C   UNL     1       1.264   8.834  20.103  0.00  0.00    +0.000 A 
ATOM      5  N   UNL     1       2.007   7.712  19.896  0.00  0.00    +0.000 N 
ATOM      6  H   UNL     1       2.285   7.043  20.600  0.00  0.00    +0.000 HD
ENDROOT
BRANCH   1   9
ATOM      7  C   UNL     1       3.843   4.440  17.318  0.00  0.00    +0.000 A 
ATOM      8  C   UNL     1       3.034   5.366  18.006  0.00  0.00    +0.000 A 
ATOM      9  C   UNL     1       3.380   6.711  18.074  0.00  0.00    +0.000 A 
ATOM     10  C   UNL     1       4.619   7.101  17.562  0.00  0.00    +0.000 A 
ATOM     11  C   UNL     1       5.484   6.182  16.947  0.00  0.00    +0.000 A 
ATOM     12  C   UNL     1       5.104   4.829  16.814  0.00  0.00    +0.000 A 
BRANCH   7  14
ATOM     13  C   UNL     1       2.180   2.822  17.804  0.00  0.00    +0.000 C 
ATOM     14  O   UNL     1       3.404   3.151  17.138  0.00  0.00    +0.000 OA
ENDBRANCH   7  14
BRANCH  11  15
ATOM     15  O   UNL     1       6.627   6.809  16.515  0.00  0.00    +0.000 OA
ATOM     16  C   UNL     1       7.503   7.404  17.459  0.00  0.00    +0.000 C 
ENDBRANCH  11  15
BRANCH  12  17
ATOM     17  O   UNL     1       6.010   4.025  16.185  0.00  0.00    +0.000 OA
ATOM     18  C   UNL     1       6.061   3.918  14.774  0.00  0.00    +0.000 C 
ENDBRANCH  12  17
ENDBRANCH   1   9
BRANCH   3  19
ATOM     19  C   UNL     1       0.526  10.737  18.628  0.00  0.00    +0.000 C 
ATOM     20  O   UNL     1       1.124  11.811  18.637  0.00  0.00    +0.000 OA
BRANCH  19  21
ATOM     21  C   UNL     1      -0.938  10.738  18.373  0.00  0.00    +0.000 A 
ATOM     22  C   UNL     1      -1.458   9.807  17.460  0.00  0.00    +0.000 A 
ATOM     23  C   UNL     1      -2.816   9.824  17.138  0.00  0.00    +0.000 A 
ATOM     24  C   UNL     1      -3.645  10.779  17.719  0.00  0.00    +0.000 A 
ATOM     25  F   UNL     1      -4.944  10.805  17.398  0.00  0.00    +0.000 F 
ATOM     26  C   UNL     1      -3.142  11.715  18.617  0.00  0.00    +0.000 A 
ATOM     27  C   UNL     1      -1.787  11.696  18.947  0.00  0.00    +0.000 A 
ENDBRANCH  19  21
ENDBRANCH   3  19
TORSDOF 6
ENDMDL
MODEL 3
REMARK VINA RESULT:      -7.7      0.389      2.681
REMARK  Name = 
REMARK  9 active torsions:
REMARK  status: ('A' for Active; 'I' for Inactive)
REMARK    1  A    between atoms: C_1  and  O_2
REMARK    2  A    between atoms: O_2  and  C_3
REMARK    3  A    between atoms: C_5  and  C_6
REMARK    4  A    between atoms: C_8  and  C_9
REMARK    5  A    between atoms: C_9  and  C_11
REMARK    6  A    between atoms: C_21  and  O_22
REMARK    7  A    between atoms: O_22  and  C_23
REMARK    8  A    between atoms: C_24  and  O_25
REMARK    9  A    between atoms: O_25  and  C_26
REMARK                            x       y       z     vdW  Elec       q    Type
REMARK                         _______ _______ _______ _____ _____    ______ ____
ROOT
ATOM      1  C   UNL     1       8.486   8.707  18.363  0.00  0.00    +0.000 A 
ATOM      2  N   UNL     1       7.807   8.345  17.290  0.00  0.00    +0.000 NA
ATOM      3  C   UNL     1       7.496   7.005  17.453  0.00  0.00    +0.000 A 
ATOM      4  C   UNL     1       8.007   6.554  18.651  0.00  0.00    +0.000 A 
ATOM      5  N   UNL     1       8.649   7.623  19.198  0.00  0.00    +0.000 N 
ATOM      6  H   UNL     1       9.097   7.650  20.103  0.00  0.00    +0.000 HD
ENDROOT
BRANCH   1   9
ATOM      7  C   UNL     1       9.578  11.638  20.470  0.00  0.00    +0.000 A 
ATOM      8  C   UNL     1       8.963  10.433  20.076  0.00  0.00    +0.000 A 
ATOM      9  C   UNL     1       8.912  10.057  18.738  0.00  0.00    +0.000 A 
ATOM     10  C   UNL     1       9.361  10.968  17.778  0.00  0.00    +0.000 A 
ATOM     11  C   UNL     1       9.899  12.213  18.140  0.00  0.00    +0.000 A 
ATOM     12  C   UNL     1      10.017  12.567  19.501  0.00  0.00    +0.000 A 
BRANCH   7  14
ATOM     13  C   UNL     1       8.540  12.095  22.552  0.00  0.00    +0.000 C 
ATOM     14  O   UNL     1       9.748  11.912  21.806  0.00  0.00    +0.000 OA
ENDBRANCH   7  14
BRANCH  11  15
ATOM     15  O   UNL     1      10.280  12.916  17.023  0.00  0.00    +0.000 OA
ATOM     16  C   UNL     1      11.658  13.119  16.756  0.00  0.00    +0.000 C 
ENDBRANCH  11  15
BRANCH  12  17
ATOM     17  O   UNL     1      10.571  13.792  19.742  0.00  0.00    +0.000 OA
ATOM     18  C   UNL     1       9.779  14.959  19.860  0.00  0.00    +0.000 C 
ENDBRANCH  12  17
ENDBRANCH   1   9
BRANCH   3  19
ATOM     19  C   UNL     1       6.701   6.199  16.528  0.00  0.00    +0.000 C 
ATOM     20  O   UNL     1       7.128   5.855  15.427  0.00  0.00    +0.000 OA
BRANCH  19  21
ATOM     21  C   UNL     1       5.322   5.800  16.914  0.00  0.00    +0.000 A 
ATOM     22  C   UNL     1       4.482   6.768  17.488  0.00  0.00    +0.000 A 
ATOM     23  C   UNL     1       3.207   6.415  17.931  0.00  0.00    +0.000 A 
ATOM     24  C   UNL     1       2.783   5.095  17.815  0.00  0.00    +0.000 A 
ATOM     25  F   UNL     1       1.566   4.754  18.255  0.00  0.00    +0.000 F 
ATOM     26  C   UNL     1       3.608   4.122  17.259  0.00  0.00    +0.000 A 
ATOM     27  C   UNL     1       4.881   4.473  16.807  0.00  0.00    +0.000 A 
ENDBRANCH  19  21
ENDBRANCH   3  19
TORSDOF 6
ENDMDL
MODEL 4
REMARK VINA RESULT:      -7.7      4.996      8.456
REMARK  Name = 
REMARK  9 active torsions:
REMARK  status: ('A' for Active; 'I' for Inactive)
REMARK    1  A    between atoms: C_1  and  O_2
REMARK    2  A    between atoms: O_2  and  C_3
REMARK    3  A    between atoms: C_5  and  C_6
REMARK    4  A    between atoms: C_8  and  C_9
REMARK    5  A    between atoms: C_9  and  C_11
REMARK    6  A    between atoms: C_21  and  O_22
REMARK    7  A    between atoms: O_22  and  C_23
REMARK    8  A    between atoms: C_24  and  O_25
REMARK    9  A    between atoms: O_25  and  C_26
REMARK                            x       y       z     vdW  Elec       q    Type
REMARK                         _______ _______ _______ _____ _____    ______ ____
ROOT
ATOM      1  C   UNL     1       2.400   7.425  18.907  0.00  0.00    +0.000 A 
ATOM      2  N   UNL     1       1.900   8.608  18.597  0.00  0.00    +0.000 NA
ATOM      3  C   UNL     1       1.280   9.086  19.740  0.00  0.00    +0.000 A 
ATOM      4  C   UNL     1       1.407   8.163  20.756  0.00  0.00    +0.000 A 
ATOM      5  N   UNL     1       2.086   7.115  20.213  0.00  0.00    +0.000 N 
ATOM      6  H   UNL     1       2.390   6.285  20.701  0.00  0.00    +0.000 HD
ENDROOT
BRANCH   1   9
ATOM      7  C   UNL     1       5.383   6.280  16.905  0.00  0.00    +0.000 A 
ATOM      8  C   UNL     1       4.417   7.112  17.503  0.00  0.00    +0.000 A 
ATOM      9  C   UNL     1       3.273   6.581  18.089  0.00  0.00    +0.000 A 
ATOM     10  C   UNL     1       3.034   5.212  17.948  0.00  0.00    +0.000 A 
ATOM     11  C   UNL     1       3.939   4.372  17.280  0.00  0.00    +0.000 A 
ATOM     12  C   UNL     1       5.135   4.898  16.747  0.00  0.00    +0.000 A 
BRANCH   7  14
ATOM     13  C   UNL     1       7.427   7.322  17.499  0.00  0.00    +0.000 C 
ATOM     14  O   UNL     1       6.571   6.815  16.470  0.00  0.00    +0.000 OA
ENDBRANCH   7  14
BRANCH  11  15
ATOM     15  O   UNL     1       3.488   3.074  17.288  0.00  0.00    +0.000 OA
ATOM     16  C   UNL     1       2.262   2.759  17.927  0.00  0.00    +0.000 C 
ENDBRANCH  11  15
BRANCH  12  17
ATOM     17  O   UNL     1       5.952   3.991  16.135  0.00  0.00    +0.000 OA
ATOM     18  C   UNL     1       6.024   3.883  14.725  0.00  0.00    +0.000 C 
ENDBRANCH  12  17
ENDBRANCH   1   9
BRANCH   3  19
ATOM     19  C   UNL     1       0.635  10.391  19.872  0.00  0.00    +0.000 C 
ATOM     20  O   UNL     1       1.063  11.258  20.632  0.00  0.00    +0.000 OA
BRANCH  19  21
ATOM     21  C   UNL     1      -0.591  10.678  19.082  0.00  0.00    +0.000 A 
ATOM     22  C   UNL     1      -1.506  11.615  19.587  0.00  0.00    +0.000 A 
ATOM     23  C   UNL     1      -2.704  11.858  18.912  0.00  0.00    +0.000 A 
ATOM     24  C   UNL     1      -2.987  11.154  17.746  0.00  0.00    +0.000 A 
ATOM     25  F   UNL     1      -4.143  11.377  17.108  0.00  0.00    +0.000 F 
ATOM     26  C   UNL     1      -2.094  10.215  17.239  0.00  0.00    +0.000 A 
ATOM     27  C   UNL     1      -0.893   9.975  17.907  0.00  0.00    +0.000 A 
ENDBRANCH  19  21
ENDBRANCH   3  19
TORSDOF 6
ENDMDL
MODEL 5
REMARK VINA RESULT:      -7.6      5.002      8.388
REMARK  Name = 
REMARK  9 active torsions:
REMARK  status: ('A' for Active; 'I' for Inactive)
REMARK    1  A    between atoms: C_1  and  O_2
REMARK    2  A    between atoms: O_2  and  C_3
REMARK    3  A    between atoms: C_5  and  C_6
REMARK    4  A    between atoms: C_8  and  C_9
REMARK    5  A    between atoms: C_9  and  C_11
REMARK    6  A    between atoms: C_21  and  O_22
REMARK    7  A    between atoms: O_22  and  C_23
REMARK    8  A    between atoms: C_24  and  O_25
REMARK    9  A    between atoms: O_25  and  C_26
REMARK                            x       y       z     vdW  Elec       q    Type
REMARK                         _______ _______ _______ _____ _____    ______ ____
ROOT
ATOM      1  C   UNL     1       2.245   7.887  18.498  0.00  0.00    +0.000 A 
ATOM      2  N   UNL     1       1.669   8.930  17.926  0.00  0.00    +0.000 NA
ATOM      3  C   UNL     1       1.005   9.613  18.931  0.00  0.00    +0.000 A 
ATOM      4  C   UNL     1       1.184   8.961  20.132  0.00  0.00    +0.000 A 
ATOM      5  N   UNL     1       1.939   7.865  19.841  0.00  0.00    +0.000 N 
ATOM      6  H   UNL     1       2.294   7.192  20.505  0.00  0.00    +0.000 HD
ENDROOT
BRANCH   1   9
ATOM      7  C   UNL     1       5.377   6.493  16.927  0.00  0.00    +0.000 A 
ATOM      8  C   UNL     1       4.364   7.392  17.312  0.00  0.00    +0.000 A 
ATOM      9  C   UNL     1       3.182   6.940  17.891  0.00  0.00    +0.000 A 
ATOM     10  C   UNL     1       2.964   5.562  17.954  0.00  0.00    +0.000 A 
ATOM     11  C   UNL     1       3.922   4.642  17.498  0.00  0.00    +0.000 A 
ATOM     12  C   UNL     1       5.151   5.099  16.976  0.00  0.00    +0.000 A 
BRANCH   7  14
ATOM     13  C   UNL     1       7.537   7.257  17.535  0.00  0.00    +0.000 C 
ATOM     14  O   UNL     1       6.591   6.973  16.499  0.00  0.00    +0.000 OA
ENDBRANCH   7  14
BRANCH  11  15
ATOM     15  O   UNL     1       3.481   3.355  17.682  0.00  0.00    +0.000 OA
ATOM     16  C   UNL     1       3.741   2.690  18.907  0.00  0.00    +0.000 C 
ENDBRANCH  11  15
BRANCH  12  17
ATOM     17  O   UNL     1       6.018   4.121  16.578  0.00  0.00    +0.000 OA
ATOM     18  C   UNL     1       6.196   3.791  15.213  0.00  0.00    +0.000 C 
ENDBRANCH  12  17
ENDBRANCH   1   9
BRANCH   3  19
ATOM     19  C   UNL     1       0.272  10.867  18.763  0.00  0.00    +0.000 C 
ATOM     20  O   UNL     1       0.810  11.964  18.899  0.00  0.00    +0.000 OA
BRANCH  19  21
ATOM     21  C   UNL     1      -1.178  10.820  18.438  0.00  0.00    +0.000 A 
ATOM     22  C   UNL     1      -1.616   9.907  17.466  0.00  0.00    +0.000 A 
ATOM     23  C   UNL     1      -2.957   9.883  17.080  0.00  0.00    +0.000 A 
ATOM     24  C   UNL     1      -3.850  10.781  17.655  0.00  0.00    +0.000 A 
ATOM     25  F   UNL     1      -5.134  10.768  17.273  0.00  0.00    +0.000 F 
ATOM     26  C   UNL     1      -3.430  11.699  18.612  0.00  0.00    +0.000 A 
ATOM     27  C   UNL     1      -2.091  11.720  19.007  0.00  0.00    +0.000 A 
ENDBRANCH  19  21
ENDBRANCH   3  19
TORSDOF 6
ENDMDL
MODEL 6
REMARK VINA RESULT:      -7.5      5.124      8.719
REMARK  Name = 
REMARK  9 active torsions:
REMARK  status: ('A' for Active; 'I' for Inactive)
REMARK    1  A    between atoms: C_1  and  O_2
REMARK    2  A    between atoms: O_2  and  C_3
REMARK    3  A    between atoms: C_5  and  C_6
REMARK    4  A    between atoms: C_8  and  C_9
REMARK    5  A    between atoms: C_9  and  C_11
REMARK    6  A    between atoms: C_21  and  O_22
REMARK    7  A    between atoms: O_22  and  C_23
REMARK    8  A    between atoms: C_24  and  O_25
REMARK    9  A    between atoms: O_25  and  C_26
REMARK                            x       y       z     vdW  Elec       q    Type
REMARK                         _______ _______ _______ _____ _____    ______ ____
ROOT
ATOM      1  C   UNL     1       2.283   7.582  19.034  0.00  0.00    +0.000 A 
ATOM      2  N   UNL     1       1.819   8.730  18.571  0.00  0.00    +0.000 NA
ATOM      3  C   UNL     1       1.145   9.334  19.620  0.00  0.00    +0.000 A 
ATOM      4  C   UNL     1       1.202   8.525  20.734  0.00  0.00    +0.000 A 
ATOM      5  N   UNL     1       1.893   7.418  20.345  0.00  0.00    +0.000 N 
ATOM      6  H   UNL     1       2.158   6.643  20.935  0.00  0.00    +0.000 HD
ENDROOT
BRANCH   1   9
ATOM      7  C   UNL     1       3.571   4.452  17.370  0.00  0.00    +0.000 A 
ATOM      8  C   UNL     1       2.829   5.312  18.204  0.00  0.00    +0.000 A 
ATOM      9  C   UNL     1       3.186   6.647  18.360  0.00  0.00    +0.000 A 
ATOM     10  C   UNL     1       4.380   7.083  17.780  0.00  0.00    +0.000 A 
ATOM     11  C   UNL     1       5.184   6.224  17.015  0.00  0.00    +0.000 A 
ATOM     12  C   UNL     1       4.786   4.887  16.796  0.00  0.00    +0.000 A 
BRANCH   7  14
ATOM     13  C   UNL     1       3.366   2.221  18.145  0.00  0.00    +0.000 C 
ATOM     14  O   UNL     1       3.111   3.183  17.116  0.00  0.00    +0.000 OA
ENDBRANCH   7  14
BRANCH  11  15
ATOM     15  O   UNL     1       6.289   6.889  16.543  0.00  0.00    +0.000 OA
ATOM     16  C   UNL     1       7.418   7.061  17.384  0.00  0.00    +0.000 C 
ENDBRANCH  11  15
BRANCH  12  17
ATOM     17  O   UNL     1       5.631   4.143  16.023  0.00  0.00    +0.000 OA
ATOM     18  C   UNL     1       5.588   4.193  14.609  0.00  0.00    +0.000 C 
ENDBRANCH  12  17
ENDBRANCH   1   9
BRANCH   3  19
ATOM     19  C   UNL     1       0.515  10.653  19.575  0.00  0.00    +0.000 C 
ATOM     20  O   UNL     1       1.012  11.634  20.123  0.00  0.00    +0.000 OA
BRANCH  19  21
ATOM     21  C   UNL     1      -0.782  10.813  18.866  0.00  0.00    +0.000 A 
ATOM     22  C   UNL     1      -1.718  11.722  19.384  0.00  0.00    +0.000 A 
ATOM     23  C   UNL     1      -2.975  11.847  18.789  0.00  0.00    +0.000 A 
ATOM     24  C   UNL     1      -3.295  11.055  17.691  0.00  0.00    +0.000 A 
ATOM     25  F   UNL     1      -4.506  11.165  17.131  0.00  0.00    +0.000 F 
ATOM     26  C   UNL     1      -2.381  10.142  17.173  0.00  0.00    +0.000 A 
ATOM     27  C   UNL     1      -1.121  10.020  17.760  0.00  0.00    +0.000 A 
ENDBRANCH  19  21
ENDBRANCH   3  19
TORSDOF 6
ENDMDL
MODEL 7
REMARK VINA RESULT:      -7.5      6.339      9.398
REMARK  Name = 
REMARK  9 active torsions:
REMARK  status: ('A' for Active; 'I' for Inactive)
REMARK    1  A    between atoms: C_1  and  O_2
REMARK    2  A    between atoms: O_2  and  C_3
REMARK    3  A    between atoms: C_5  and  C_6
REMARK    4  A    between atoms: C_8  and  C_9
REMARK    5  A    between atoms: C_9  and  C_11
REMARK    6  A    between atoms: C_21  and  O_22
REMARK    7  A    between atoms: O_22  and  C_23
REMARK    8  A    between atoms: C_24  and  O_25
REMARK    9  A    between atoms: O_25  and  C_26
REMARK                            x       y       z     vdW  Elec       q    Type
REMARK                         _______ _______ _______ _____ _____    ______ ____
ROOT
ATOM      1  C   UNL     1       2.419   7.467  19.029  0.00  0.00    +0.000 A 
ATOM      2  N   UNL     1       1.607   8.225  19.745  0.00  0.00    +0.000 NA
ATOM      3  C   UNL     1       1.371   9.366  18.996  0.00  0.00    +0.000 A 
ATOM      4  C   UNL     1       2.063   9.291  17.807  0.00  0.00    +0.000 A 
ATOM      5  N   UNL     1       2.738   8.109  17.853  0.00  0.00    +0.000 N 
ATOM      6  H   UNL     1       3.308   7.719  17.116  0.00  0.00    +0.000 HD
ENDROOT
BRANCH   1   9
ATOM      7  C   UNL     1       2.261   3.776  19.785  0.00  0.00    +0.000 A 
ATOM      8  C   UNL     1       1.919   5.141  19.721  0.00  0.00    +0.000 A 
ATOM      9  C   UNL     1       2.845   6.096  19.316  0.00  0.00    +0.000 A 
ATOM     10  C   UNL     1       4.165   5.688  19.106  0.00  0.00    +0.000 A 
ATOM     11  C   UNL     1       4.552   4.346  19.246  0.00  0.00    +0.000 A 
ATOM     12  C   UNL     1       3.598   3.364  19.588  0.00  0.00    +0.000 A 
BRANCH   7  14
ATOM     13  C   UNL     1       0.569   2.373  18.895  0.00  0.00    +0.000 C 
ATOM     14  O   UNL     1       1.289   2.840  20.042  0.00  0.00    +0.000 OA
ENDBRANCH   7  14
BRANCH  11  15
ATOM     15  O   UNL     1       5.890   4.199  18.972  0.00  0.00    +0.000 OA
ATOM     16  C   UNL     1       6.419   4.701  17.756  0.00  0.00    +0.000 C 
ENDBRANCH  11  15
BRANCH  12  17
ATOM     17  O   UNL     1       4.077   2.089  19.680  0.00  0.00    +0.000 OA
ATOM     18  C   UNL     1       3.981   1.175  18.603  0.00  0.00    +0.000 C 
ENDBRANCH  12  17
ENDBRANCH   1   9
BRANCH   3  19
ATOM     19  C   UNL     1       0.481  10.462  19.378  0.00  0.00    +0.000 C 
ATOM     20  O   UNL     1       0.767  11.255  20.273  0.00  0.00    +0.000 OA
BRANCH  19  21
ATOM     21  C   UNL     1      -0.822  10.614  18.680  0.00  0.00    +0.000 A 
ATOM     22  C   UNL     1      -1.750  11.536  19.192  0.00  0.00    +0.000 A 
ATOM     23  C   UNL     1      -3.013  11.655  18.609  0.00  0.00    +0.000 A 
ATOM     24  C   UNL     1      -3.347  10.845  17.529  0.00  0.00    +0.000 A 
ATOM     25  F   UNL     1      -4.565  10.949  16.981  0.00  0.00    +0.000 F 
ATOM     26  C   UNL     1      -2.443   9.920  17.018  0.00  0.00    +0.000 A 
ATOM     27  C   UNL     1      -1.177   9.803  17.592  0.00  0.00    +0.000 A 
ENDBRANCH  19  21
ENDBRANCH   3  19
TORSDOF 6
ENDMDL
MODEL 8
REMARK VINA RESULT:      -7.5      6.253      9.460
REMARK  Name = 
REMARK  9 active torsions:
REMARK  status: ('A' for Active; 'I' for Inactive)
REMARK    1  A    between atoms: C_1  and  O_2
REMARK    2  A    between atoms: O_2  and  C_3
REMARK    3  A    between atoms: C_5  and  C_6
REMARK    4  A    between atoms: C_8  and  C_9
REMARK    5  A    between atoms: C_9  and  C_11
REMARK    6  A    between atoms: C_21  and  O_22
REMARK    7  A    between atoms: O_22  and  C_23
REMARK    8  A    between atoms: C_24  and  O_25
REMARK    9  A    between atoms: O_25  and  C_26
REMARK                            x       y       z     vdW  Elec       q    Type
REMARK                         _______ _______ _______ _____ _____    ______ ____
ROOT
ATOM      1  C   UNL     1       1.831   7.658  20.037  0.00  0.00    +0.000 A 
ATOM      2  N   UNL     1       1.442   8.582  19.178  0.00  0.00    +0.000 NA
ATOM      3  C   UNL     1       0.959   9.641  19.930  0.00  0.00    +0.000 A 
ATOM      4  C   UNL     1       1.055   9.338  21.271  0.00  0.00    +0.000 A 
ATOM      5  N   UNL     1       1.577   8.082  21.324  0.00  0.00    +0.000 N 
ATOM      6  H   UNL     1       1.823   7.573  22.161  0.00  0.00    +0.000 HD
ENDROOT
BRANCH   1   9
ATOM      7  C   UNL     1       2.953   4.063  20.253  0.00  0.00    +0.000 A 
ATOM      8  C   UNL     1       2.461   5.332  20.617  0.00  0.00    +0.000 A 
ATOM      9  C   UNL     1       2.548   6.414  19.748  0.00  0.00    +0.000 A 
ATOM     10  C   UNL     1       3.260   6.249  18.557  0.00  0.00    +0.000 A 
ATOM     11  C   UNL     1       3.836   5.017  18.208  0.00  0.00    +0.000 A 
ATOM     12  C   UNL     1       3.687   3.899  19.057  0.00  0.00    +0.000 A 
BRANCH   7  14
ATOM     13  C   UNL     1       1.358   2.800  21.468  0.00  0.00    +0.000 C 
ATOM     14  O   UNL     1       2.720   2.981  21.066  0.00  0.00    +0.000 OA
ENDBRANCH   7  14
BRANCH  11  15
ATOM     15  O   UNL     1       4.465   5.106  16.991  0.00  0.00    +0.000 OA
ATOM     16  C   UNL     1       4.935   6.362  16.532  0.00  0.00    +0.000 C 
ENDBRANCH  11  15
BRANCH  12  17
ATOM     17  O   UNL     1       4.269   2.746  18.614  0.00  0.00    +0.000 OA
ATOM     18  C   UNL     1       3.508   1.690  18.058  0.00  0.00    +0.000 C 
ENDBRANCH  12  17
ENDBRANCH   1   9
BRANCH   3  19
ATOM     19  C   UNL     1       0.470  10.910  19.393  0.00  0.00    +0.000 C 
ATOM     20  O   UNL     1       1.136  11.942  19.445  0.00  0.00    +0.000 OA
BRANCH  19  21
ATOM     21  C   UNL     1      -0.885  10.965  18.783  0.00  0.00    +0.000 A 
ATOM     22  C   UNL     1      -1.842  11.815  19.360  0.00  0.00    +0.000 A 
ATOM     23  C   UNL     1      -3.146  11.840  18.862  0.00  0.00    +0.000 A 
ATOM     24  C   UNL     1      -3.490  11.008  17.802  0.00  0.00    +0.000 A 
ATOM     25  F   UNL     1      -4.746  11.022  17.335  0.00  0.00    +0.000 F 
ATOM     26  C   UNL     1      -2.555  10.153  17.227  0.00  0.00    +0.000 A 
ATOM     27  C   UNL     1      -1.249  10.130  17.716  0.00  0.00    +0.000 A 
ENDBRANCH  19  21
ENDBRANCH   3  19
TORSDOF 6
ENDMDL
MODEL 9
REMARK VINA RESULT:      -7.4      6.320      9.034
REMARK  Name = 
REMARK  9 active torsions:
REMARK  status: ('A' for Active; 'I' for Inactive)
REMARK    1  A    between atoms: C_1  and  O_2
REMARK    2  A    between atoms: O_2  and  C_3
REMARK    3  A    between atoms: C_5  and  C_6
REMARK    4  A    between atoms: C_8  and  C_9
REMARK    5  A    between atoms: C_9  and  C_11
REMARK    6  A    between atoms: C_21  and  O_22
REMARK    7  A    between atoms: O_22  and  C_23
REMARK    8  A    between atoms: C_24  and  O_25
REMARK    9  A    between atoms: O_25  and  C_26
REMARK                            x       y       z     vdW  Elec       q    Type
REMARK                         _______ _______ _______ _____ _____    ______ ____
ROOT
ATOM      1  C   UNL     1       2.245   7.893  18.771  0.00  0.00    +0.000 A 
ATOM      2  N   UNL     1       1.333   8.499  19.510  0.00  0.00    +0.000 NA
ATOM      3  C   UNL     1       1.136   9.749  18.946  0.00  0.00    +0.000 A 
ATOM      4  C   UNL     1       1.954   9.895  17.845  0.00  0.00    +0.000 A 
ATOM      5  N   UNL     1       2.663   8.735  17.764  0.00  0.00    +0.000 N 
ATOM      6  H   UNL     1       3.323   8.490  17.040  0.00  0.00    +0.000 HD
ENDROOT
BRANCH   1   9
ATOM      7  C   UNL     1       4.166   4.717  18.102  0.00  0.00    +0.000 A 
ATOM      8  C   UNL     1       3.552   5.971  17.912  0.00  0.00    +0.000 A 
ATOM      9  C   UNL     1       2.689   6.501  18.865  0.00  0.00    +0.000 A 
ATOM     10  C   UNL     1       2.336   5.699  19.954  0.00  0.00    +0.000 A 
ATOM     11  C   UNL     1       2.868   4.411  20.123  0.00  0.00    +0.000 A 
ATOM     12  C   UNL     1       3.798   3.900  19.193  0.00  0.00    +0.000 A 
BRANCH   7  14
ATOM     13  C   UNL     1       6.464   4.703  17.518  0.00  0.00    +0.000 C 
ATOM     14  O   UNL     1       5.127   4.287  17.219  0.00  0.00    +0.000 OA
ENDBRANCH   7  14
BRANCH  11  15
ATOM     15  O   UNL     1       2.381   3.835  21.271  0.00  0.00    +0.000 OA
ATOM     16  C   UNL     1       1.260   2.968  21.202  0.00  0.00    +0.000 C 
ENDBRANCH  11  15
BRANCH  12  17
ATOM     17  O   UNL     1       4.266   2.645  19.462  0.00  0.00    +0.000 OA
ATOM     18  C   UNL     1       3.753   1.500  18.806  0.00  0.00    +0.000 C 
ENDBRANCH  12  17
ENDBRANCH   1   9
BRANCH   3  19
ATOM     19  C   UNL     1       0.170  10.745  19.407  0.00  0.00    +0.000 C 
ATOM     20  O   UNL     1       0.436  11.551  20.296  0.00  0.00    +0.000 OA
BRANCH  19  21
ATOM     21  C   UNL     1      -1.186  10.775  18.800  0.00  0.00    +0.000 A 
ATOM     22  C   UNL     1      -1.449   9.929  17.710  0.00  0.00    +0.000 A 
ATOM     23  C   UNL     1      -2.686   9.981  17.066  0.00  0.00    +0.000 A 
ATOM     24  C   UNL     1      -3.648  10.885  17.503  0.00  0.00    +0.000 A 
ATOM     25  F   UNL     1      -4.829  10.945  16.875  0.00  0.00    +0.000 F 
ATOM     26  C   UNL     1      -3.399  11.737  18.575  0.00  0.00    +0.000 A 
ATOM     27  C   UNL     1      -2.166  11.683  19.226  0.00  0.00    +0.000 A 
ENDBRANCH  19  21
ENDBRANCH   3  19
TORSDOF 6
ENDMDL
