MODEL 1
REMARK VINA RESULT:      -7.8      0.000      0.000
REMARK  Name = 
REMARK  17 active torsions:
REMARK  status: ('A' for Active; 'I' for Inactive)
REMARK    1  A    between atoms: C_1  and  O_2
REMARK    2  A    between atoms: O_2  and  C_3
REMARK    3  A    between atoms: C_3  and  C_4
REMARK    4  A    between atoms: C_4  and  N_5
REMARK    5  A    between atoms: N_5  and  C_19
REMARK    6  A    between atoms: C_6  and  C_8
REMARK    7  A    between atoms: C_8  and  C_9
REMARK    8  A    between atoms: C_9  and  C_10
REMARK    9  A    between atoms: C_19  and  C_20
REMARK   10  A    between atoms: C_19  and  C_28
REMARK   11  A    between atoms: N_22  and  C_23
REMARK   12  A    between atoms: C_23  and  C_24
REMARK   13  A    between atoms: C_24  and  C_25
REMARK   14  A    between atoms: C_25  and  C_26
REMARK   15  A    between atoms: C_25  and  C_27
REMARK   16  A    between atoms: C_31  and  O_32
REMARK   17  A    between atoms: O_32  and  C_33
REMARK                            x       y       z     vdW  Elec       q    Type
REMARK                         _______ _______ _______ _____ _____    ______ ____
ROOT
ATOM      1  N   UNL     1       5.665   5.837  17.008  0.00  0.00    +0.000 N 
ATOM      2  C   UNL     1       6.444   6.322  18.074  0.00  0.00    +0.000 C 
ATOM      3  O   UNL     1       6.086   6.243  19.251  0.00  0.00    +0.000 OA
ENDROOT
BRANCH   1   4
ATOM      4  C   UNL     1       5.962   5.963  15.546  0.00  0.00    +0.000 C 
BRANCH   4   5
ATOM      5  C   UNL     1       6.816   4.900  14.848  0.00  0.00    +0.000 C 
BRANCH   5   7
ATOM      6  C   UNL     1       6.108   3.587  13.059  0.00  0.00    +0.000 C 
ATOM      7  O   UNL     1       6.063   3.741  14.481  0.00  0.00    +0.000 OA
ENDBRANCH   5   7
ENDBRANCH   4   5
ENDBRANCH   1   4
BRANCH   2   8
ATOM      8  C   UNL     1       7.769   6.965  17.741  0.00  0.00    +0.000 C 
BRANCH   8   9
ATOM      9  C   UNL     1       7.782   8.418  17.272  0.00  0.00    +0.000 C 
BRANCH   9  10
ATOM     10  C   UNL     1       8.589   9.231  18.282  0.00  0.00    +0.000 C 
ATOM     11  O   UNL     1       8.999   8.737  19.332  0.00  0.00    +0.000 OA
ATOM     12  N   UNL     1       8.785  10.546  17.919  0.00  0.00    +0.000 N 
ATOM     13  C   UNL     1       9.455  11.446  18.758  0.00  0.00    +0.000 A 
ATOM     14  C   UNL     1      10.661  11.120  19.373  0.00  0.00    +0.000 A 
ATOM     15  C   UNL     1      11.249  12.046  20.231  0.00  0.00    +0.000 A 
ATOM     16  C   UNL     1      10.599  13.248  20.474  0.00  0.00    +0.000 A 
ATOM     17  C   UNL     1       9.412  13.494  19.802  0.00  0.00    +0.000 A 
ATOM     18  N   UNL     1       8.849  12.639  18.917  0.00  0.00    +0.000 NA
ATOM     19  H   UNL     1       8.057  10.988  17.375  0.00  0.00    +0.000 HD
ENDBRANCH   9  10
ENDBRANCH   8   9
ENDBRANCH   2   8
BRANCH   1  20
ATOM     20  C   UNL     1       4.329   5.265  17.382  0.00  0.00    +0.000 C 
BRANCH  20  21
ATOM     21  C   UNL     1       3.522   6.325  18.143  0.00  0.00    +0.000 A 
ATOM     22  C   UNL     1       3.001   6.041  19.416  0.00  0.00    +0.000 A 
ATOM     23  C   UNL     1       2.149   6.947  20.058  0.00  0.00    +0.000 A 
ATOM     24  C   UNL     1       1.814   8.159  19.454  0.00  0.00    +0.000 A 
ATOM     25  C   UNL     1       2.344   8.464  18.204  0.00  0.00    +0.000 A 
ATOM     26  C   UNL     1       3.185   7.555  17.554  0.00  0.00    +0.000 A 
BRANCH  24  27
ATOM     27  O   UNL     1       0.927   8.934  20.149  0.00  0.00    +0.000 OA
ATOM     28  C   UNL     1       0.735   8.594  21.517  0.00  0.00    +0.000 C 
ENDBRANCH  24  27
ENDBRANCH  20  21
BRANCH  20  29
ATOM     29  C   UNL     1       4.355   3.893  18.150  0.00  0.00    +0.000 C 
ATOM     30  O   UNL     1       5.190   3.620  19.022  0.00  0.00    +0.000 OA
ATOM     31  N   UNL     1       3.389   2.964  17.815  0.00  0.00    +0.000 N 
ATOM     32  H   UNL     1       2.570   3.276  17.300  0.00  0.00    +0.000 HD
BRANCH  31  33
ATOM     33  C   UNL     1       3.319   1.725  18.573  0.00  0.00    +0.000 C 
BRANCH  33  34
ATOM     34  C   UNL     1       2.118   1.634  19.495  0.00  0.00    +0.000 C 
BRANCH  34  35
ATOM     35  C   UNL     1       1.854   2.890  20.352  0.00  0.00    +0.000 C 
ATOM     36  C   UNL     1       0.533   3.576  20.001  0.00  0.00    +0.000 C 
ATOM     37  C   UNL     1       1.862   2.515  21.837  0.00  0.00    +0.000 C 
ENDBRANCH  34  35
ENDBRANCH  33  34
ENDBRANCH  31  33
ENDBRANCH  20  29
ENDBRANCH   1  20
TORSDOF 13
ENDMDL
MODEL 2
REMARK VINA RESULT:      -7.4      1.264      1.687
REMARK  Name = 
REMARK  17 active torsions:
REMARK  status: ('A' for Active; 'I' for Inactive)
REMARK    1  A    between atoms: C_1  and  O_2
REMARK    2  A    between atoms: O_2  and  C_3
REMARK    3  A    between atoms: C_3  and  C_4
REMARK    4  A    between atoms: C_4  and  N_5
REMARK    5  A    between atoms: N_5  and  C_19
REMARK    6  A    between atoms: C_6  and  C_8
REMARK    7  A    between atoms: C_8  and  C_9
REMARK    8  A    between atoms: C_9  and  C_10
REMARK    9  A    between atoms: C_19  and  C_20
REMARK   10  A    between atoms: C_19  and  C_28
REMARK   11  A    between atoms: N_22  and  C_23
REMARK   12  A    between atoms: C_23  and  C_24
REMARK   13  A    between atoms: C_24  and  C_25
REMARK   14  A    between atoms: C_25  and  C_26
REMARK   15  A    between atoms: C_25  and  C_27
REMARK   16  A    between atoms: C_31  and  O_32
REMARK   17  A    between atoms: O_32  and  C_33
REMARK                            x       y       z     vdW  Elec       q    Type
REMARK                         _______ _______ _______ _____ _____    ______ ____
ROOT
ATOM      1  N   UNL     1       5.540   5.514  16.835  0.00  0.00    +0.000 N 
ATOM      2  C   UNL     1       6.293   5.905  17.957  0.00  0.00    +0.000 C 
ATOM      3  O   UNL     1       5.901   5.737  19.114  0.00  0.00    +0.000 OA
ENDROOT
BRANCH   1   4
ATOM      4  C   UNL     1       5.880   5.750  15.397  0.00  0.00    +0.000 C 
BRANCH   4   5
ATOM      5  C   UNL     1       6.844   4.804  14.675  0.00  0.00    +0.000 C 
BRANCH   5   7
ATOM      6  C   UNL     1       5.775   3.580  13.005  0.00  0.00    +0.000 C 
ATOM      7  O   UNL     1       6.246   3.545  14.357  0.00  0.00    +0.000 OA
ENDBRANCH   5   7
ENDBRANCH   4   5
ENDBRANCH   1   4
BRANCH   2   8
ATOM      8  C   UNL     1       7.632   6.558  17.713  0.00  0.00    +0.000 C 
BRANCH   8   9
ATOM      9  C   UNL     1       8.247   7.408  18.821  0.00  0.00    +0.000 C 
BRANCH   9  10
ATOM     10  C   UNL     1       8.475   8.812  18.266  0.00  0.00    +0.000 C 
ATOM     11  O   UNL     1       8.050   9.148  17.160  0.00  0.00    +0.000 OA
ATOM     12  N   UNL     1       9.205   9.635  19.095  0.00  0.00    +0.000 N 
ATOM     13  C   UNL     1       9.554  10.937  18.714  0.00  0.00    +0.000 A 
ATOM     14  C   UNL     1       8.625  11.815  18.159  0.00  0.00    +0.000 A 
ATOM     15  C   UNL     1       9.052  13.080  17.761  0.00  0.00    +0.000 A 
ATOM     16  C   UNL     1      10.393  13.413  17.895  0.00  0.00    +0.000 A 
ATOM     17  C   UNL     1      11.240  12.482  18.476  0.00  0.00    +0.000 A 
ATOM     18  N   UNL     1      10.841  11.271  18.927  0.00  0.00    +0.000 NA
ATOM     19  H   UNL     1       9.906   9.199  19.678  0.00  0.00    +0.000 HD
ENDBRANCH   9  10
ENDBRANCH   8   9
ENDBRANCH   2   8
BRANCH   1  20
ATOM     20  C   UNL     1       4.189   4.929  17.126  0.00  0.00    +0.000 C 
BRANCH  20  21
ATOM     21  C   UNL     1       3.332   5.975  17.849  0.00  0.00    +0.000 A 
ATOM     22  C   UNL     1       3.209   7.274  17.330  0.00  0.00    +0.000 A 
ATOM     23  C   UNL     1       2.545   8.272  18.051  0.00  0.00    +0.000 A 
ATOM     24  C   UNL     1       1.976   7.994  19.294  0.00  0.00    +0.000 A 
ATOM     25  C   UNL     1       2.070   6.704  19.809  0.00  0.00    +0.000 A 
ATOM     26  C   UNL     1       2.743   5.707  19.096  0.00  0.00    +0.000 A 
BRANCH  24  27
ATOM     27  O   UNL     1       1.409   9.062  19.932  0.00  0.00    +0.000 OA
ATOM     28  C   UNL     1       1.071  10.174  19.111  0.00  0.00    +0.000 C 
ENDBRANCH  24  27
ENDBRANCH  20  21
BRANCH  20  29
ATOM     29  C   UNL     1       4.181   3.549  17.880  0.00  0.00    +0.000 C 
ATOM     30  O   UNL     1       4.053   2.462  17.302  0.00  0.00    +0.000 OA
ATOM     31  N   UNL     1       4.324   3.579  19.254  0.00  0.00    +0.000 N 
ATOM     32  H   UNL     1       4.680   4.427  19.688  0.00  0.00    +0.000 HD
BRANCH  31  33
ATOM     33  C   UNL     1       4.422   2.320  19.974  0.00  0.00    +0.000 C 
BRANCH  33  34
ATOM     34  C   UNL     1       3.088   1.773  20.443  0.00  0.00    +0.000 C 
BRANCH  34  35
ATOM     35  C   UNL     1       1.935   2.798  20.475  0.00  0.00    +0.000 C 
ATOM     36  C   UNL     1       0.898   2.553  19.377  0.00  0.00    +0.000 C 
ATOM     37  C   UNL     1       1.252   2.767  21.845  0.00  0.00    +0.000 C 
ENDBRANCH  34  35
ENDBRANCH  33  34
ENDBRANCH  31  33
ENDBRANCH  20  29
ENDBRANCH   1  20
TORSDOF 13
ENDMDL
MODEL 3
REMARK VINA RESULT:      -7.4      0.822      1.188
REMARK  Name = 
REMARK  17 active torsions:
REMARK  status: ('A' for Active; 'I' for Inactive)
REMARK    1  A    between atoms: C_1  and  O_2
REMARK    2  A    between atoms: O_2  and  C_3
REMARK    3  A    between atoms: C_3  and  C_4
REMARK    4  A    between atoms: C_4  and  N_5
REMARK    5  A    between atoms: N_5  and  C_19
REMARK    6  A    between atoms: C_6  and  C_8
REMARK    7  A    between atoms: C_8  and  C_9
REMARK    8  A    between atoms: C_9  and  C_10
REMARK    9  A    between atoms: C_19  and  C_20
REMARK   10  A    between atoms: C_19  and  C_28
REMARK   11  A    between atoms: N_22  and  C_23
REMARK   12  A    between atoms: C_23  and  C_24
REMARK   13  A    between atoms: C_24  and  C_25
REMARK   14  A    between atoms: C_25  and  C_26
REMARK   15  A    between atoms: C_25  and  C_27
REMARK   16  A    between atoms: C_31  and  O_32
REMARK   17  A    between atoms: O_32  and  C_33
REMARK                            x       y       z     vdW  Elec       q    Type
REMARK                         _______ _______ _______ _____ _____    ______ ____
ROOT
ATOM      1  N   UNL     1       5.576   5.868  16.851  0.00  0.00    +0.000 N 
ATOM      2  C   UNL     1       6.287   6.302  17.985  0.00  0.00    +0.000 C 
ATOM      3  O   UNL     1       5.877   6.129  19.134  0.00  0.00    +0.000 OA
ENDROOT
BRANCH   1   4
ATOM      4  C   UNL     1       5.938   6.104  15.418  0.00  0.00    +0.000 C 
BRANCH   4   5
ATOM      5  C   UNL     1       6.523   4.963  14.581  0.00  0.00    +0.000 C 
BRANCH   5   7
ATOM      6  C   UNL     1       6.092   3.538  12.789  0.00  0.00    +0.000 C 
ATOM      7  O   UNL     1       5.516   4.186  13.927  0.00  0.00    +0.000 OA
ENDBRANCH   5   7
ENDBRANCH   4   5
ENDBRANCH   1   4
BRANCH   2   8
ATOM      8  C   UNL     1       7.603   7.007  17.763  0.00  0.00    +0.000 C 
BRANCH   8   9
ATOM      9  C   UNL     1       7.586   8.472  17.334  0.00  0.00    +0.000 C 
BRANCH   9  10
ATOM     10  C   UNL     1       8.495   9.250  18.284  0.00  0.00    +0.000 C 
ATOM     11  O   UNL     1       8.989   8.726  19.282  0.00  0.00    +0.000 OA
ATOM     12  N   UNL     1       8.681  10.570  17.932  0.00  0.00    +0.000 N 
ATOM     13  C   UNL     1       9.438  11.440  18.725  0.00  0.00    +0.000 A 
ATOM     14  C   UNL     1      10.689  11.082  19.223  0.00  0.00    +0.000 A 
ATOM     15  C   UNL     1      11.368  11.980  20.043  0.00  0.00    +0.000 A 
ATOM     16  C   UNL     1      10.763  13.186  20.369  0.00  0.00    +0.000 A 
ATOM     17  C   UNL     1       9.525  13.465  19.812  0.00  0.00    +0.000 A 
ATOM     18  N   UNL     1       8.871  12.638  18.964  0.00  0.00    +0.000 NA
ATOM     19  H   UNL     1       7.914  11.035  17.465  0.00  0.00    +0.000 HD
ENDBRANCH   9  10
ENDBRANCH   8   9
ENDBRANCH   2   8
BRANCH   1  20
ATOM     20  C   UNL     1       4.244   5.230  17.119  0.00  0.00    +0.000 C 
BRANCH  20  21
ATOM     21  C   UNL     1       3.352   6.224  17.874  0.00  0.00    +0.000 A 
ATOM     22  C   UNL     1       3.169   7.527  17.384  0.00  0.00    +0.000 A 
ATOM     23  C   UNL     1       2.471   8.481  18.134  0.00  0.00    +0.000 A 
ATOM     24  C   UNL     1       1.928   8.152  19.376  0.00  0.00    +0.000 A 
ATOM     25  C   UNL     1       2.081   6.856  19.861  0.00  0.00    +0.000 A 
ATOM     26  C   UNL     1       2.788   5.904  19.120  0.00  0.00    +0.000 A 
BRANCH  24  27
ATOM     27  O   UNL     1       1.324   9.181  20.042  0.00  0.00    +0.000 OA
ATOM     28  C   UNL     1       0.967  10.312  19.256  0.00  0.00    +0.000 C 
ENDBRANCH  24  27
ENDBRANCH  20  21
BRANCH  20  29
ATOM     29  C   UNL     1       4.280   3.827  17.828  0.00  0.00    +0.000 C 
ATOM     30  O   UNL     1       4.260   2.755  17.209  0.00  0.00    +0.000 OA
ATOM     31  N   UNL     1       4.335   3.818  19.208  0.00  0.00    +0.000 N 
ATOM     32  H   UNL     1       4.606   4.671  19.690  0.00  0.00    +0.000 HD
BRANCH  31  33
ATOM     33  C   UNL     1       4.471   2.543  19.893  0.00  0.00    +0.000 C 
BRANCH  33  34
ATOM     34  C   UNL     1       3.149   1.901  20.269  0.00  0.00    +0.000 C 
BRANCH  34  35
ATOM     35  C   UNL     1       1.949   2.869  20.343  0.00  0.00    +0.000 C 
ATOM     36  C   UNL     1       0.911   2.604  19.251  0.00  0.00    +0.000 C 
ATOM     37  C   UNL     1       1.287   2.769  21.719  0.00  0.00    +0.000 C 
ENDBRANCH  34  35
ENDBRANCH  33  34
ENDBRANCH  31  33
ENDBRANCH  20  29
ENDBRANCH   1  20
TORSDOF 13
ENDMDL
MODEL 4
REMARK VINA RESULT:      -7.4      2.540      8.253
REMARK  Name = 
REMARK  17 active torsions:
REMARK  status: ('A' for Active; 'I' for Inactive)
REMARK    1  A    between atoms: C_1  and  O_2
REMARK    2  A    between atoms: O_2  and  C_3
REMARK    3  A    between atoms: C_3  and  C_4
REMARK    4  A    between atoms: C_4  and  N_5
REMARK    5  A    between atoms: N_5  and  C_19
REMARK    6  A    between atoms: C_6  and  C_8
REMARK    7  A    between atoms: C_8  and  C_9
REMARK    8  A    between atoms: C_9  and  C_10
REMARK    9  A    between atoms: C_19  and  C_20
REMARK   10  A    between atoms: C_19  and  C_28
REMARK   11  A    between atoms: N_22  and  C_23
REMARK   12  A    between atoms: C_23  and  C_24
REMARK   13  A    between atoms: C_24  and  C_25
REMARK   14  A    between atoms: C_25  and  C_26
REMARK   15  A    between atoms: C_25  and  C_27
REMARK   16  A    between atoms: C_31  and  O_32
REMARK   17  A    between atoms: O_32  and  C_33
REMARK                            x       y       z     vdW  Elec       q    Type
REMARK                         _______ _______ _______ _____ _____    ______ ____
ROOT
ATOM      1  N   UNL     1       4.614   6.210  18.242  0.00  0.00    +0.000 N 
ATOM      2  C   UNL     1       3.377   6.879  18.214  0.00  0.00    +0.000 C 
ATOM      3  O   UNL     1       3.130   7.787  17.417  0.00  0.00    +0.000 OA
ENDROOT
BRANCH   1   4
ATOM      4  C   UNL     1       5.048   5.163  19.220  0.00  0.00    +0.000 C 
BRANCH   4   5
ATOM      5  C   UNL     1       4.777   3.685  18.925  0.00  0.00    +0.000 C 
BRANCH   5   7
ATOM      6  C   UNL     1       2.844   2.461  18.481  0.00  0.00    +0.000 C 
ATOM      7  O   UNL     1       3.534   3.232  19.470  0.00  0.00    +0.000 OA
ENDBRANCH   5   7
ENDBRANCH   4   5
ENDBRANCH   1   4
BRANCH   2   8
ATOM      8  C   UNL     1       2.325   6.455  19.209  0.00  0.00    +0.000 C 
BRANCH   8   9
ATOM      9  C   UNL     1       2.320   7.102  20.592  0.00  0.00    +0.000 C 
BRANCH   9  10
ATOM     10  C   UNL     1       1.187   8.124  20.630  0.00  0.00    +0.000 C 
ATOM     11  O   UNL     1       0.332   8.110  21.515  0.00  0.00    +0.000 OA
ATOM     12  N   UNL     1       1.205   9.025  19.587  0.00  0.00    +0.000 N 
ATOM     13  C   UNL     1       0.205   9.993  19.438  0.00  0.00    +0.000 A 
ATOM     14  C   UNL     1      -0.225  10.778  20.506  0.00  0.00    +0.000 A 
ATOM     15  C   UNL     1      -1.256  11.691  20.296  0.00  0.00    +0.000 A 
ATOM     16  C   UNL     1      -1.846  11.766  19.042  0.00  0.00    +0.000 A 
ATOM     17  C   UNL     1      -1.340  10.960  18.035  0.00  0.00    +0.000 A 
ATOM     18  N   UNL     1      -0.300  10.108  18.194  0.00  0.00    +0.000 NA
ATOM     19  H   UNL     1       1.567   8.698  18.702  0.00  0.00    +0.000 HD
ENDBRANCH   9  10
ENDBRANCH   8   9
ENDBRANCH   2   8
BRANCH   1  20
ATOM     20  C   UNL     1       5.650   6.709  17.279  0.00  0.00    +0.000 C 
BRANCH  20  21
ATOM     21  C   UNL     1       5.840   5.675  16.162  0.00  0.00    +0.000 A 
ATOM     22  C   UNL     1       7.054   5.604  15.459  0.00  0.00    +0.000 A 
ATOM     23  C   UNL     1       7.189   4.761  14.350  0.00  0.00    +0.000 A 
ATOM     24  C   UNL     1       6.127   3.961  13.930  0.00  0.00    +0.000 A 
ATOM     25  C   UNL     1       4.925   4.004  14.632  0.00  0.00    +0.000 A 
ATOM     26  C   UNL     1       4.783   4.854  15.733  0.00  0.00    +0.000 A 
BRANCH  24  27
ATOM     27  O   UNL     1       6.357   3.227  12.799  0.00  0.00    +0.000 OA
ATOM     28  C   UNL     1       7.100   3.875  11.773  0.00  0.00    +0.000 C 
ENDBRANCH  24  27
ENDBRANCH  20  21
BRANCH  20  29
ATOM     29  C   UNL     1       7.025   7.145  17.906  0.00  0.00    +0.000 C 
ATOM     30  O   UNL     1       7.782   6.359  18.492  0.00  0.00    +0.000 OA
ATOM     31  N   UNL     1       7.382   8.474  17.785  0.00  0.00    +0.000 N 
ATOM     32  H   UNL     1       6.899   9.047  17.098  0.00  0.00    +0.000 HD
BRANCH  31  33
ATOM     33  C   UNL     1       8.690   8.892  18.263  0.00  0.00    +0.000 C 
BRANCH  33  34
ATOM     34  C   UNL     1       8.910  10.393  18.221  0.00  0.00    +0.000 C 
BRANCH  34  35
ATOM     35  C   UNL     1      10.018  10.918  19.158  0.00  0.00    +0.000 C 
ATOM     36  C   UNL     1      10.606  12.249  18.686  0.00  0.00    +0.000 C 
ATOM     37  C   UNL     1       9.467  11.071  20.578  0.00  0.00    +0.000 C 
ENDBRANCH  34  35
ENDBRANCH  33  34
ENDBRANCH  31  33
ENDBRANCH  20  29
ENDBRANCH   1  20
TORSDOF 13
ENDMDL
MODEL 5
REMARK VINA RESULT:      -7.3      1.820      2.636
REMARK  Name = 
REMARK  17 active torsions:
REMARK  status: ('A' for Active; 'I' for Inactive)
REMARK    1  A    between atoms: C_1  and  O_2
REMARK    2  A    between atoms: O_2  and  C_3
REMARK    3  A    between atoms: C_3  and  C_4
REMARK    4  A    between atoms: C_4  and  N_5
REMARK    5  A    between atoms: N_5  and  C_19
REMARK    6  A    between atoms: C_6  and  C_8
REMARK    7  A    between atoms: C_8  and  C_9
REMARK    8  A    between atoms: C_9  and  C_10
REMARK    9  A    between atoms: C_19  and  C_20
REMARK   10  A    between atoms: C_19  and  C_28
REMARK   11  A    between atoms: N_22  and  C_23
REMARK   12  A    between atoms: C_23  and  C_24
REMARK   13  A    between atoms: C_24  and  C_25
REMARK   14  A    between atoms: C_25  and  C_26
REMARK   15  A    between atoms: C_25  and  C_27
REMARK   16  A    between atoms: C_31  and  O_32
REMARK   17  A    between atoms: O_32  and  C_33
REMARK                            x       y       z     vdW  Elec       q    Type
REMARK                         _______ _______ _______ _____ _____    ______ ____
ROOT
ATOM      1  N   UNL     1       5.150   5.924  17.928  0.00  0.00    +0.000 N 
ATOM      2  C   UNL     1       6.136   6.423  17.058  0.00  0.00    +0.000 C 
ATOM      3  O   UNL     1       5.874   6.862  15.936  0.00  0.00    +0.000 OA
ENDROOT
BRANCH   1   4
ATOM      4  C   UNL     1       5.369   5.288  19.265  0.00  0.00    +0.000 C 
BRANCH   4   5
ATOM      5  C   UNL     1       5.725   3.801  19.354  0.00  0.00    +0.000 C 
BRANCH   5   7
ATOM      6  C   UNL     1       4.806   1.691  19.719  0.00  0.00    +0.000 C 
ATOM      7  O   UNL     1       4.795   3.057  20.146  0.00  0.00    +0.000 OA
ENDBRANCH   5   7
ENDBRANCH   4   5
ENDBRANCH   1   4
BRANCH   2   8
ATOM      8  C   UNL     1       7.568   6.407  17.534  0.00  0.00    +0.000 C 
BRANCH   8   9
ATOM      9  C   UNL     1       7.957   7.290  18.718  0.00  0.00    +0.000 C 
BRANCH   9  10
ATOM     10  C   UNL     1       8.344   8.663  18.173  0.00  0.00    +0.000 C 
ATOM     11  O   UNL     1       8.114   8.986  17.008  0.00  0.00    +0.000 OA
ATOM     12  N   UNL     1       8.982   9.473  19.088  0.00  0.00    +0.000 N 
ATOM     13  C   UNL     1       9.456  10.743  18.737  0.00  0.00    +0.000 A 
ATOM     14  C   UNL     1       8.674  11.650  18.026  0.00  0.00    +0.000 A 
ATOM     15  C   UNL     1       9.226  12.879  17.671  0.00  0.00    +0.000 A 
ATOM     16  C   UNL     1      10.546  13.147  18.004  0.00  0.00    +0.000 A 
ATOM     17  C   UNL     1      11.241  12.192  18.730  0.00  0.00    +0.000 A 
ATOM     18  N   UNL     1      10.712  11.017  19.140  0.00  0.00    +0.000 NA
ATOM     19  H   UNL     1       9.559   9.019  19.782  0.00  0.00    +0.000 HD
ENDBRANCH   9  10
ENDBRANCH   8   9
ENDBRANCH   2   8
BRANCH   1  20
ATOM     20  C   UNL     1       3.751   5.899  17.386  0.00  0.00    +0.000 C 
BRANCH  20  21
ATOM     21  C   UNL     1       2.904   6.940  18.129  0.00  0.00    +0.000 A 
ATOM     22  C   UNL     1       2.499   8.119  17.481  0.00  0.00    +0.000 A 
ATOM     23  C   UNL     1       1.847   9.135  18.188  0.00  0.00    +0.000 A 
ATOM     24  C   UNL     1       1.569   8.991  19.547  0.00  0.00    +0.000 A 
ATOM     25  C   UNL     1       1.943   7.818  20.196  0.00  0.00    +0.000 A 
ATOM     26  C   UNL     1       2.606   6.806  19.495  0.00  0.00    +0.000 A 
BRANCH  24  27
ATOM     27  O   UNL     1       0.985  10.074  20.144  0.00  0.00    +0.000 OA
ATOM     28  C   UNL     1      -0.435  10.051  20.230  0.00  0.00    +0.000 C 
ENDBRANCH  24  27
ENDBRANCH  20  21
BRANCH  20  29
ATOM     29  C   UNL     1       3.046   4.493  17.354  0.00  0.00    +0.000 C 
ATOM     30  O   UNL     1       3.570   3.484  16.864  0.00  0.00    +0.000 OA
ATOM     31  N   UNL     1       1.782   4.408  17.905  0.00  0.00    +0.000 N 
ATOM     32  H   UNL     1       1.468   5.153  18.522  0.00  0.00    +0.000 HD
BRANCH  31  33
ATOM     33  C   UNL     1       1.142   3.105  17.985  0.00  0.00    +0.000 C 
BRANCH  33  34
ATOM     34  C   UNL     1       1.350   2.396  19.310  0.00  0.00    +0.000 C 
BRANCH  34  35
ATOM     35  C   UNL     1       1.611   3.324  20.515  0.00  0.00    +0.000 C 
ATOM     36  C   UNL     1       0.574   4.442  20.633  0.00  0.00    +0.000 C 
ATOM     37  C   UNL     1       1.633   2.503  21.806  0.00  0.00    +0.000 C 
ENDBRANCH  34  35
ENDBRANCH  33  34
ENDBRANCH  31  33
ENDBRANCH  20  29
ENDBRANCH   1  20
TORSDOF 13
ENDMDL
MODEL 6
REMARK VINA RESULT:      -7.3      5.377     10.386
REMARK  Name = 
REMARK  17 active torsions:
REMARK  status: ('A' for Active; 'I' for Inactive)
REMARK    1  A    between atoms: C_1  and  O_2
REMARK    2  A    between atoms: O_2  and  C_3
REMARK    3  A    between atoms: C_3  and  C_4
REMARK    4  A    between atoms: C_4  and  N_5
REMARK    5  A    between atoms: N_5  and  C_19
REMARK    6  A    between atoms: C_6  and  C_8
REMARK    7  A    between atoms: C_8  and  C_9
REMARK    8  A    between atoms: C_9  and  C_10
REMARK    9  A    between atoms: C_19  and  C_20
REMARK   10  A    between atoms: C_19  and  C_28
REMARK   11  A    between atoms: N_22  and  C_23
REMARK   12  A    between atoms: C_23  and  C_24
REMARK   13  A    between atoms: C_24  and  C_25
REMARK   14  A    between atoms: C_25  and  C_26
REMARK   15  A    between atoms: C_25  and  C_27
REMARK   16  A    between atoms: C_31  and  O_32
REMARK   17  A    between atoms: O_32  and  C_33
REMARK                            x       y       z     vdW  Elec       q    Type
REMARK                         _______ _______ _______ _____ _____    ______ ____
ROOT
ATOM      1  N   UNL     1       0.115  10.965  19.240  0.00  0.00    +0.000 N 
ATOM      2  C   UNL     1       1.288  10.580  18.566  0.00  0.00    +0.000 C 
ATOM      3  O   UNL     1       2.312  11.266  18.567  0.00  0.00    +0.000 OA
ENDROOT
BRANCH   1   4
ATOM      4  C   UNL     1      -1.203  10.255  19.229  0.00  0.00    +0.000 C 
BRANCH   4   5
ATOM      5  C   UNL     1      -2.152  10.429  18.040  0.00  0.00    +0.000 C 
BRANCH   5   7
ATOM      6  C   UNL     1      -4.032  11.476  17.146  0.00  0.00    +0.000 C 
ATOM      7  O   UNL     1      -3.241  11.310  18.327  0.00  0.00    +0.000 OA
ENDBRANCH   5   7
ENDBRANCH   4   5
ENDBRANCH   1   4
BRANCH   2   8
ATOM      8  C   UNL     1       1.270   9.271  17.814  0.00  0.00    +0.000 C 
BRANCH   8   9
ATOM      9  C   UNL     1       2.530   8.408  17.814  0.00  0.00    +0.000 C 
BRANCH   9  10
ATOM     10  C   UNL     1       2.365   7.336  18.890  0.00  0.00    +0.000 C 
ATOM     11  O   UNL     1       2.113   7.626  20.059  0.00  0.00    +0.000 OA
ATOM     12  N   UNL     1       2.548   6.048  18.435  0.00  0.00    +0.000 N 
ATOM     13  C   UNL     1       2.490   4.950  19.302  0.00  0.00    +0.000 A 
ATOM     14  C   UNL     1       1.464   4.798  20.231  0.00  0.00    +0.000 A 
ATOM     15  C   UNL     1       1.494   3.704  21.093  0.00  0.00    +0.000 A 
ATOM     16  C   UNL     1       2.562   2.820  21.024  0.00  0.00    +0.000 A 
ATOM     17  C   UNL     1       3.528   3.040  20.055  0.00  0.00    +0.000 A 
ATOM     18  N   UNL     1       3.492   4.059  19.165  0.00  0.00    +0.000 NA
ATOM     19  H   UNL     1       3.205   5.915  17.679  0.00  0.00    +0.000 HD
ENDBRANCH   9  10
ENDBRANCH   8   9
ENDBRANCH   2   8
BRANCH   1  20
ATOM     20  C   UNL     1       0.160  12.303  19.918  0.00  0.00    +0.000 C 
BRANCH  20  21
ATOM     21  C   UNL     1      -0.848  12.316  21.075  0.00  0.00    +0.000 A 
ATOM     22  C   UNL     1      -0.691  11.441  22.163  0.00  0.00    +0.000 A 
ATOM     23  C   UNL     1      -1.676  11.348  23.152  0.00  0.00    +0.000 A 
ATOM     24  C   UNL     1      -2.827  12.134  23.088  0.00  0.00    +0.000 A 
ATOM     25  C   UNL     1      -2.983  13.023  22.027  0.00  0.00    +0.000 A 
ATOM     26  C   UNL     1      -2.006  13.109  21.031  0.00  0.00    +0.000 A 
BRANCH  24  27
ATOM     27  O   UNL     1      -3.745  11.911  24.076  0.00  0.00    +0.000 OA
ATOM     28  C   UNL     1      -4.863  12.789  24.101  0.00  0.00    +0.000 C 
ENDBRANCH  24  27
ENDBRANCH  20  21
BRANCH  20  29
ATOM     29  C   UNL     1      -0.011  13.557  18.985  0.00  0.00    +0.000 C 
ATOM     30  O   UNL     1      -0.603  13.518  17.899  0.00  0.00    +0.000 OA
ATOM     31  N   UNL     1       0.537  14.748  19.421  0.00  0.00    +0.000 N 
ATOM     32  H   UNL     1       0.788  14.838  20.402  0.00  0.00    +0.000 HD
BRANCH  31  33
ATOM     33  C   UNL     1       0.312  15.950  18.635  0.00  0.00    +0.000 C 
BRANCH  33  34
ATOM     34  C   UNL     1      -0.859  16.788  19.111  0.00  0.00    +0.000 C 
BRANCH  34  35
ATOM     35  C   UNL     1      -0.714  17.367  20.534  0.00  0.00    +0.000 C 
ATOM     36  C   UNL     1       0.576  18.171  20.714  0.00  0.00    +0.000 C 
ATOM     37  C   UNL     1      -1.921  18.250  20.860  0.00  0.00    +0.000 C 
ENDBRANCH  34  35
ENDBRANCH  33  34
ENDBRANCH  31  33
ENDBRANCH  20  29
ENDBRANCH   1  20
TORSDOF 13
ENDMDL
MODEL 7
REMARK VINA RESULT:      -7.2      1.686      4.885
REMARK  Name = 
REMARK  17 active torsions:
REMARK  status: ('A' for Active; 'I' for Inactive)
REMARK    1  A    between atoms: C_1  and  O_2
REMARK    2  A    between atoms: O_2  and  C_3
REMARK    3  A    between atoms: C_3  and  C_4
REMARK    4  A    between atoms: C_4  and  N_5
REMARK    5  A    between atoms: N_5  and  C_19
REMARK    6  A    between atoms: C_6  and  C_8
REMARK    7  A    between atoms: C_8  and  C_9
REMARK    8  A    between atoms: C_9  and  C_10
REMARK    9  A    between atoms: C_19  and  C_20
REMARK   10  A    between atoms: C_19  and  C_28
REMARK   11  A    between atoms: N_22  and  C_23
REMARK   12  A    between atoms: C_23  and  C_24
REMARK   13  A    between atoms: C_24  and  C_25
REMARK   14  A    between atoms: C_25  and  C_26
REMARK   15  A    between atoms: C_25  and  C_27
REMARK   16  A    between atoms: C_31  and  O_32
REMARK   17  A    between atoms: O_32  and  C_33
REMARK                            x       y       z     vdW  Elec       q    Type
REMARK                         _______ _______ _______ _____ _____    ______ ____
ROOT
ATOM      1  N   UNL     1       5.483   6.158  17.202  0.00  0.00    +0.000 N 
ATOM      2  C   UNL     1       6.879   6.030  17.313  0.00  0.00    +0.000 C 
ATOM      3  O   UNL     1       7.501   5.077  16.840  0.00  0.00    +0.000 OA
ENDROOT
BRANCH   1   4
ATOM      4  C   UNL     1       4.625   7.221  17.813  0.00  0.00    +0.000 C 
BRANCH   4   5
ATOM      5  C   UNL     1       3.302   7.610  17.146  0.00  0.00    +0.000 C 
BRANCH   5   7
ATOM      6  C   UNL     1       1.825   9.159  18.069  0.00  0.00    +0.000 C 
ATOM      7  O   UNL     1       2.241   7.789  18.089  0.00  0.00    +0.000 OA
ENDBRANCH   5   7
ENDBRANCH   4   5
ENDBRANCH   1   4
BRANCH   2   8
ATOM      8  C   UNL     1       7.628   7.115  18.049  0.00  0.00    +0.000 C 
BRANCH   8   9
ATOM      9  C   UNL     1       7.740   8.495  17.406  0.00  0.00    +0.000 C 
BRANCH   9  10
ATOM     10  C   UNL     1       8.588   9.374  18.323  0.00  0.00    +0.000 C 
ATOM     11  O   UNL     1       9.069   8.942  19.371  0.00  0.00    +0.000 OA
ATOM     12  N   UNL     1       8.734  10.671  17.883  0.00  0.00    +0.000 N 
ATOM     13  C   UNL     1       9.432  11.626  18.634  0.00  0.00    +0.000 A 
ATOM     14  C   UNL     1      10.679  11.354  19.192  0.00  0.00    +0.000 A 
ATOM     15  C   UNL     1      11.297  12.335  19.965  0.00  0.00    +0.000 A 
ATOM     16  C   UNL     1      10.636  13.536  20.185  0.00  0.00    +0.000 A 
ATOM     17  C   UNL     1       9.407  13.724  19.575  0.00  0.00    +0.000 A 
ATOM     18  N   UNL     1       8.811  12.814  18.769  0.00  0.00    +0.000 NA
ATOM     19  H   UNL     1       7.965  11.071  17.362  0.00  0.00    +0.000 HD
ENDBRANCH   9  10
ENDBRANCH   8   9
ENDBRANCH   2   8
BRANCH   1  20
ATOM     20  C   UNL     1       4.775   5.024  16.519  0.00  0.00    +0.000 C 
BRANCH  20  21
ATOM     21  C   UNL     1       4.082   4.154  17.575  0.00  0.00    +0.000 A 
ATOM     22  C   UNL     1       2.696   3.931  17.512  0.00  0.00    +0.000 A 
ATOM     23  C   UNL     1       2.034   3.255  18.543  0.00  0.00    +0.000 A 
ATOM     24  C   UNL     1       2.739   2.774  19.647  0.00  0.00    +0.000 A 
ATOM     25  C   UNL     1       4.117   2.966  19.709  0.00  0.00    +0.000 A 
ATOM     26  C   UNL     1       4.779   3.651  18.686  0.00  0.00    +0.000 A 
BRANCH  24  27
ATOM     27  O   UNL     1       1.977   2.186  20.618  0.00  0.00    +0.000 OA
ATOM     28  C   UNL     1       1.305   3.070  21.507  0.00  0.00    +0.000 C 
ENDBRANCH  24  27
ENDBRANCH  20  21
BRANCH  20  29
ATOM     29  C   UNL     1       5.644   4.160  15.533  0.00  0.00    +0.000 C 
ATOM     30  O   UNL     1       5.924   2.972  15.741  0.00  0.00    +0.000 OA
ATOM     31  N   UNL     1       6.105   4.781  14.388  0.00  0.00    +0.000 N 
ATOM     32  H   UNL     1       5.671   5.653  14.098  0.00  0.00    +0.000 HD
BRANCH  31  33
ATOM     33  C   UNL     1       6.825   3.988  13.405  0.00  0.00    +0.000 C 
BRANCH  33  34
ATOM     34  C   UNL     1       6.434   4.283  11.970  0.00  0.00    +0.000 C 
BRANCH  34  35
ATOM     35  C   UNL     1       5.607   3.180  11.276  0.00  0.00    +0.000 C 
ATOM     36  C   UNL     1       6.049   1.772  11.678  0.00  0.00    +0.000 C 
ATOM     37  C   UNL     1       4.122   3.366  11.598  0.00  0.00    +0.000 C 
ENDBRANCH  34  35
ENDBRANCH  33  34
ENDBRANCH  31  33
ENDBRANCH  20  29
ENDBRANCH   1  20
TORSDOF 13
ENDMDL
MODEL 8
REMARK VINA RESULT:      -7.2      2.758      6.743
REMARK  Name = 
REMARK  17 active torsions:
REMARK  status: ('A' for Active; 'I' for Inactive)
REMARK    1  A    between atoms: C_1  and  O_2
REMARK    2  A    between atoms: O_2  and  C_3
REMARK    3  A    between atoms: C_3  and  C_4
REMARK    4  A    between atoms: C_4  and  N_5
REMARK    5  A    between atoms: N_5  and  C_19
REMARK    6  A    between atoms: C_6  and  C_8
REMARK    7  A    between atoms: C_8  and  C_9
REMARK    8  A    between atoms: C_9  and  C_10
REMARK    9  A    between atoms: C_19  and  C_20
REMARK   10  A    between atoms: C_19  and  C_28
REMARK   11  A    between atoms: N_22  and  C_23
REMARK   12  A    between atoms: C_23  and  C_24
REMARK   13  A    between atoms: C_24  and  C_25
REMARK   14  A    between atoms: C_25  and  C_26
REMARK   15  A    between atoms: C_25  and  C_27
REMARK   16  A    between atoms: C_31  and  O_32
REMARK   17  A    between atoms: O_32  and  C_33
REMARK                            x       y       z     vdW  Elec       q    Type
REMARK                         _______ _______ _______ _____ _____    ______ ____
ROOT
ATOM      1  N   UNL     1       5.390   6.575  17.674  0.00  0.00    +0.000 N 
ATOM      2  C   UNL     1       3.989   6.640  17.783  0.00  0.00    +0.000 C 
ATOM      3  O   UNL     1       3.285   5.638  17.924  0.00  0.00    +0.000 OA
ENDROOT
BRANCH   1   4
ATOM      4  C   UNL     1       6.326   7.713  17.412  0.00  0.00    +0.000 C 
BRANCH   4   5
ATOM      5  C   UNL     1       7.838   7.503  17.543  0.00  0.00    +0.000 C 
BRANCH   5   7
ATOM      6  C   UNL     1       8.508   9.629  18.220  0.00  0.00    +0.000 C 
ATOM      7  O   UNL     1       8.409   8.257  18.615  0.00  0.00    +0.000 OA
ENDBRANCH   5   7
ENDBRANCH   4   5
ENDBRANCH   1   4
BRANCH   2   8
ATOM      8  C   UNL     1       3.342   8.002  17.720  0.00  0.00    +0.000 C 
BRANCH   8   9
ATOM      9  C   UNL     1       1.820   8.087  17.621  0.00  0.00    +0.000 C 
BRANCH   9  10
ATOM     10  C   UNL     1       1.340   9.120  18.638  0.00  0.00    +0.000 C 
ATOM     11  O   UNL     1       1.484   8.952  19.849  0.00  0.00    +0.000 OA
ATOM     12  N   UNL     1       0.722  10.217  18.078  0.00  0.00    +0.000 N 
ATOM     13  C   UNL     1       0.171  11.232  18.871  0.00  0.00    +0.000 A 
ATOM     14  C   UNL     1       0.867  11.791  19.940  0.00  0.00    +0.000 A 
ATOM     15  C   UNL     1       0.240  12.764  20.714  0.00  0.00    +0.000 A 
ATOM     16  C   UNL     1      -1.069  13.121  20.419  0.00  0.00    +0.000 A 
ATOM     17  C   UNL     1      -1.675  12.526  19.325  0.00  0.00    +0.000 A 
ATOM     18  N   UNL     1      -1.069  11.623  18.519  0.00  0.00    +0.000 NA
ATOM     19  H   UNL     1       0.209  10.070  17.220  0.00  0.00    +0.000 HD
ENDBRANCH   9  10
ENDBRANCH   8   9
ENDBRANCH   2   8
BRANCH   1  20
ATOM     20  C   UNL     1       5.983   5.196  17.677  0.00  0.00    +0.000 C 
BRANCH  20  21
ATOM     21  C   UNL     1       6.020   4.660  16.241  0.00  0.00    +0.000 A 
ATOM     22  C   UNL     1       7.225   4.645  15.520  0.00  0.00    +0.000 A 
ATOM     23  C   UNL     1       7.244   4.289  14.167  0.00  0.00    +0.000 A 
ATOM     24  C   UNL     1       6.069   3.923  13.510  0.00  0.00    +0.000 A 
ATOM     25  C   UNL     1       4.871   3.909  14.220  0.00  0.00    +0.000 A 
ATOM     26  C   UNL     1       4.847   4.276  15.569  0.00  0.00    +0.000 A 
BRANCH  24  27
ATOM     27  O   UNL     1       6.201   3.656  12.176  0.00  0.00    +0.000 OA
ATOM     28  C   UNL     1       5.535   2.492  11.701  0.00  0.00    +0.000 C 
ENDBRANCH  24  27
ENDBRANCH  20  21
BRANCH  20  29
ATOM     29  C   UNL     1       5.326   4.164  18.666  0.00  0.00    +0.000 C 
ATOM     30  O   UNL     1       5.456   4.227  19.896  0.00  0.00    +0.000 OA
ATOM     31  N   UNL     1       4.575   3.146  18.110  0.00  0.00    +0.000 N 
ATOM     32  H   UNL     1       4.263   3.242  17.147  0.00  0.00    +0.000 HD
BRANCH  31  33
ATOM     33  C   UNL     1       3.871   2.234  18.995  0.00  0.00    +0.000 C 
BRANCH  33  34
ATOM     34  C   UNL     1       2.360   2.325  18.899  0.00  0.00    +0.000 C 
BRANCH  34  35
ATOM     35  C   UNL     1       1.639   2.662  20.222  0.00  0.00    +0.000 C 
ATOM     36  C   UNL     1       2.583   2.652  21.425  0.00  0.00    +0.000 C 
ATOM     37  C   UNL     1       0.961   4.030  20.108  0.00  0.00    +0.000 C 
ENDBRANCH  34  35
ENDBRANCH  33  34
ENDBRANCH  31  33
ENDBRANCH  20  29
ENDBRANCH   1  20
TORSDOF 13
ENDMDL
MODEL 9
REMARK VINA RESULT:      -7.2      2.892      6.723
REMARK  Name = 
REMARK  17 active torsions:
REMARK  status: ('A' for Active; 'I' for Inactive)
REMARK    1  A    between atoms: C_1  and  O_2
REMARK    2  A    between atoms: O_2  and  C_3
REMARK    3  A    between atoms: C_3  and  C_4
REMARK    4  A    between atoms: C_4  and  N_5
REMARK    5  A    between atoms: N_5  and  C_19
REMARK    6  A    between atoms: C_6  and  C_8
REMARK    7  A    between atoms: C_8  and  C_9
REMARK    8  A    between atoms: C_9  and  C_10
REMARK    9  A    between atoms: C_19  and  C_20
REMARK   10  A    between atoms: C_19  and  C_28
REMARK   11  A    between atoms: N_22  and  C_23
REMARK   12  A    between atoms: C_23  and  C_24
REMARK   13  A    between atoms: C_24  and  C_25
REMARK   14  A    between atoms: C_25  and  C_26
REMARK   15  A    between atoms: C_25  and  C_27
REMARK   16  A    between atoms: C_31  and  O_32
REMARK   17  A    between atoms: O_32  and  C_33
REMARK                            x       y       z     vdW  Elec       q    Type
REMARK                         _______ _______ _______ _____ _____    ______ ____
ROOT
ATOM      1  N   UNL     1       5.222   6.163  17.661  0.00  0.00    +0.000 N 
ATOM      2  C   UNL     1       3.826   6.324  17.713  0.00  0.00    +0.000 C 
ATOM      3  O   UNL     1       3.043   5.377  17.618  0.00  0.00    +0.000 OA
ENDROOT
BRANCH   1   4
ATOM      4  C   UNL     1       6.254   7.247  17.676  0.00  0.00    +0.000 C 
BRANCH   4   5
ATOM      5  C   UNL     1       7.719   6.902  17.962  0.00  0.00    +0.000 C 
BRANCH   5   7
ATOM      6  C   UNL     1       8.215   9.179  17.950  0.00  0.00    +0.000 C 
ATOM      7  O   UNL     1       8.407   7.947  18.654  0.00  0.00    +0.000 OA
ENDBRANCH   5   7
ENDBRANCH   4   5
ENDBRANCH   1   4
BRANCH   2   8
ATOM      8  C   UNL     1       3.285   7.722  17.889  0.00  0.00    +0.000 C 
BRANCH   8   9
ATOM      9  C   UNL     1       2.114   7.941  18.843  0.00  0.00    +0.000 C 
BRANCH   9  10
ATOM     10  C   UNL     1       1.588   9.357  18.626  0.00  0.00    +0.000 C 
ATOM     11  O   UNL     1       1.795   9.971  17.579  0.00  0.00    +0.000 OA
ATOM     12  N   UNL     1       0.898   9.874  19.701  0.00  0.00    +0.000 N 
ATOM     13  C   UNL     1       0.398  11.182  19.691  0.00  0.00    +0.000 A 
ATOM     14  C   UNL     1      -0.311  11.691  18.605  0.00  0.00    +0.000 A 
ATOM     15  C   UNL     1      -0.740  13.016  18.644  0.00  0.00    +0.000 A 
ATOM     16  C   UNL     1      -0.417  13.797  19.745  0.00  0.00    +0.000 A 
ATOM     17  C   UNL     1       0.275  13.200  20.787  0.00  0.00    +0.000 A 
ATOM     18  N   UNL     1       0.651  11.900  20.802  0.00  0.00    +0.000 NA
ATOM     19  H   UNL     1       1.187   9.574  20.622  0.00  0.00    +0.000 HD
ENDBRANCH   9  10
ENDBRANCH   8   9
ENDBRANCH   2   8
BRANCH   1  20
ATOM     20  C   UNL     1       5.711   4.764  17.420  0.00  0.00    +0.000 C 
BRANCH  20  21
ATOM     21  C   UNL     1       5.922   4.557  15.915  0.00  0.00    +0.000 A 
ATOM     22  C   UNL     1       4.876   4.071  15.112  0.00  0.00    +0.000 A 
ATOM     23  C   UNL     1       5.098   3.748  13.769  0.00  0.00    +0.000 A 
ATOM     24  C   UNL     1       6.358   3.917  13.194  0.00  0.00    +0.000 A 
ATOM     25  C   UNL     1       7.396   4.421  13.972  0.00  0.00    +0.000 A 
ATOM     26  C   UNL     1       7.181   4.734  15.318  0.00  0.00    +0.000 A 
BRANCH  24  27
ATOM     27  O   UNL     1       6.468   3.509  11.894  0.00  0.00    +0.000 OA
ATOM     28  C   UNL     1       5.681   2.384  11.522  0.00  0.00    +0.000 C 
ENDBRANCH  24  27
ENDBRANCH  20  21
BRANCH  20  29
ATOM     29  C   UNL     1       4.847   3.612  18.050  0.00  0.00    +0.000 C 
ATOM     30  O   UNL     1       4.252   2.763  17.372  0.00  0.00    +0.000 OA
ATOM     31  N   UNL     1       4.761   3.567  19.428  0.00  0.00    +0.000 N 
ATOM     32  H   UNL     1       5.440   4.091  19.975  0.00  0.00    +0.000 HD
BRANCH  31  33
ATOM     33  C   UNL     1       4.056   2.458  20.049  0.00  0.00    +0.000 C 
BRANCH  33  34
ATOM     34  C   UNL     1       3.022   2.882  21.075  0.00  0.00    +0.000 C 
BRANCH  34  35
ATOM     35  C   UNL     1       1.570   2.942  20.554  0.00  0.00    +0.000 C 
ATOM     36  C   UNL     1       1.072   4.376  20.361  0.00  0.00    +0.000 C 
ATOM     37  C   UNL     1       1.461   2.175  19.234  0.00  0.00    +0.000 C 
ENDBRANCH  34  35
ENDBRANCH  33  34
ENDBRANCH  31  33
ENDBRANCH  20  29
ENDBRANCH   1  20
TORSDOF 13
ENDMDL
