MODEL 1
REMARK VINA RESULT:      -7.9      0.000      0.000
REMARK  Name = 
REMARK  5 active torsions:
REMARK  status: ('A' for Active; 'I' for Inactive)
REMARK    1  A    between atoms: C_2  and  C_3
REMARK    2  A    between atoms: C_3  and  S_4
REMARK    3  A    between atoms: S_4  and  C_5
REMARK    4  A    between atoms: N_14  and  C_15
REMARK    5  A    between atoms: C_20  and  C_21
REMARK                            x       y       z     vdW  Elec       q    Type
REMARK                         _______ _______ _______ _____ _____    ______ ____
ROOT
ATOM      1  O   UNL     1       0.670   4.616  20.315  0.00  0.00    +0.000 OA
ATOM      2  C   UNL     1       1.846   4.788  20.628  0.00  0.00    +0.000 C 
ATOM      3  N   UNL     1       2.514   6.008  20.632  0.00  0.00    +0.000 N 
ATOM      4  H   UNL     1       3.530   5.946  20.675  0.00  0.00    +0.000 HD
ENDROOT
BRANCH   3   5
ATOM      5  C   UNL     1       1.965   7.277  20.305  0.00  0.00    +0.000 A 
ATOM      6  C   UNL     1       1.223   8.010  21.242  0.00  0.00    +0.000 A 
ATOM      7  C   UNL     1       0.618   9.224  20.908  0.00  0.00    +0.000 A 
ATOM      8  C   UNL     1       0.758   9.741  19.630  0.00  0.00    +0.000 A 
ATOM      9  C   UNL     1       1.532   9.056  18.698  0.00  0.00    +0.000 A 
ATOM     10  C   UNL     1       2.155   7.829  19.022  0.00  0.00    +0.000 A 
BRANCH  10  11
ATOM     11  C   UNL     1       2.986   7.185  17.942  0.00  0.00    +0.000 C 
ATOM     12  F   UNL     1       2.496   5.996  17.485  0.00  0.00    +0.000 F 
ATOM     13  F   UNL     1       3.116   7.973  16.838  0.00  0.00    +0.000 F 
ATOM     14  F   UNL     1       4.259   6.918  18.354  0.00  0.00    +0.000 F 
ENDBRANCH  10  11
ENDBRANCH   3   5
BRANCH   2  15
ATOM     15  C   UNL     1       2.713   3.616  21.069  0.00  0.00    +0.000 C 
BRANCH  15  16
ATOM     16  S   UNL     1       2.933   2.423  19.725  0.00  0.00    +0.000 S 
BRANCH  16  17
ATOM     17  C   UNL     1       4.118   3.249  18.763  0.00  0.00    +0.000 A 
ATOM     18  N   UNL     1       3.970   3.297  17.383  0.00  0.00    +0.000 NA
ATOM     19  C   UNL     1       5.039   3.912  16.993  0.00  0.00    +0.000 A 
ATOM     20  C   UNL     1       5.520   4.263  15.645  0.00  0.00    +0.000 A 
ATOM     21  C   UNL     1       6.711   4.879  15.602  0.00  0.00    +0.000 A 
ATOM     22  N   UNL     1       7.447   5.196  16.724  0.00  0.00    +0.000 N 
ATOM     23  C   UNL     1       7.008   4.878  17.988  0.00  0.00    +0.000 A 
ATOM     24  C   UNL     1       5.845   4.256  18.173  0.00  0.00    +0.000 A 
ATOM     25  N   UNL     1       5.191   3.794  19.275  0.00  0.00    +0.000 NA
ATOM     26  H   UNL     1       8.371   5.607  16.613  0.00  0.00    +0.000 HD
ENDBRANCH  16  17
ENDBRANCH  15  16
ENDBRANCH   2  15
TORSDOF 5
ENDMDL
MODEL 2
REMARK VINA RESULT:      -7.7      3.317      4.694
REMARK  Name = 
REMARK  5 active torsions:
REMARK  status: ('A' for Active; 'I' for Inactive)
REMARK    1  A    between atoms: C_2  and  C_3
REMARK    2  A    between atoms: C_3  and  S_4
REMARK    3  A    between atoms: S_4  and  C_5
REMARK    4  A    between atoms: N_14  and  C_15
REMARK    5  A    between atoms: C_20  and  C_21
REMARK                            x       y       z     vdW  Elec       q    Type
REMARK                         _______ _______ _______ _____ _____    ______ ____
ROOT
ATOM      1  O   UNL     1       5.053   5.793  19.720  0.00  0.00    +0.000 OA
ATOM      2  C   UNL     1       5.384   4.737  19.187  0.00  0.00    +0.000 C 
ATOM      3  N   UNL     1       4.640   3.562  19.181  0.00  0.00    +0.000 N 
ATOM      4  H   UNL     1       5.155   2.724  18.917  0.00  0.00    +0.000 HD
ENDROOT
BRANCH   3   5
ATOM      5  C   UNL     1       3.357   3.368  19.759  0.00  0.00    +0.000 A 
ATOM      6  C   UNL     1       3.216   2.881  21.067  0.00  0.00    +0.000 A 
ATOM      7  C   UNL     1       1.960   2.618  21.617  0.00  0.00    +0.000 A 
ATOM      8  C   UNL     1       0.813   2.852  20.875  0.00  0.00    +0.000 A 
ATOM      9  C   UNL     1       0.926   3.382  19.593  0.00  0.00    +0.000 A 
ATOM     10  C   UNL     1       2.190   3.659  19.023  0.00  0.00    +0.000 A 
BRANCH  10  11
ATOM     11  C   UNL     1       2.193   4.251  17.637  0.00  0.00    +0.000 C 
ATOM     12  F   UNL     1       2.850   5.443  17.533  0.00  0.00    +0.000 F 
ATOM     13  F   UNL     1       2.778   3.432  16.717  0.00  0.00    +0.000 F 
ATOM     14  F   UNL     1       0.934   4.489  17.170  0.00  0.00    +0.000 F 
ENDBRANCH  10  11
ENDBRANCH   3   5
BRANCH   2  15
ATOM     15  C   UNL     1       6.708   4.625  18.441  0.00  0.00    +0.000 C 
BRANCH  15  16
ATOM     16  S   UNL     1       6.952   6.034  17.329  0.00  0.00    +0.000 S 
BRANCH  16  17
ATOM     17  C   UNL     1       6.747   5.260  15.790  0.00  0.00    +0.000 A 
ATOM     18  N   UNL     1       7.673   5.483  14.780  0.00  0.00    +0.000 NA
ATOM     19  C   UNL     1       7.183   4.824  13.781  0.00  0.00    +0.000 A 
ATOM     20  C   UNL     1       7.658   4.670  12.394  0.00  0.00    +0.000 A 
ATOM     21  C   UNL     1       6.871   3.931  11.596  0.00  0.00    +0.000 A 
ATOM     22  N   UNL     1       5.708   3.326  12.020  0.00  0.00    +0.000 N 
ATOM     23  C   UNL     1       5.255   3.459  13.313  0.00  0.00    +0.000 A 
ATOM     24  C   UNL     1       5.936   4.174  14.207  0.00  0.00    +0.000 A 
ATOM     25  N   UNL     1       5.718   4.503  15.510  0.00  0.00    +0.000 NA
ATOM     26  H   UNL     1       5.128   2.832  11.345  0.00  0.00    +0.000 HD
ENDBRANCH  16  17
ENDBRANCH  15  16
ENDBRANCH   2  15
TORSDOF 5
ENDMDL
MODEL 3
REMARK VINA RESULT:      -7.5      0.463      1.443
REMARK  Name = 
REMARK  5 active torsions:
REMARK  status: ('A' for Active; 'I' for Inactive)
REMARK    1  A    between atoms: C_2  and  C_3
REMARK    2  A    between atoms: C_3  and  S_4
REMARK    3  A    between atoms: S_4  and  C_5
REMARK    4  A    between atoms: N_14  and  C_15
REMARK    5  A    between atoms: C_20  and  C_21
REMARK                            x       y       z     vdW  Elec       q    Type
REMARK                         _______ _______ _______ _____ _____    ______ ____
ROOT
ATOM      1  O   UNL     1       0.649   4.658  20.167  0.00  0.00    +0.000 OA
ATOM      2  C   UNL     1       1.768   4.854  20.634  0.00  0.00    +0.000 C 
ATOM      3  N   UNL     1       2.387   6.093  20.765  0.00  0.00    +0.000 N 
ATOM      4  H   UNL     1       3.391   6.060  20.935  0.00  0.00    +0.000 HD
ENDROOT
BRANCH   3   5
ATOM      5  C   UNL     1       1.841   7.356  20.415  0.00  0.00    +0.000 A 
ATOM      6  C   UNL     1       1.101   8.108  21.338  0.00  0.00    +0.000 A 
ATOM      7  C   UNL     1       0.498   9.316  20.982  0.00  0.00    +0.000 A 
ATOM      8  C   UNL     1       0.637   9.808  19.694  0.00  0.00    +0.000 A 
ATOM      9  C   UNL     1       1.409   9.104  18.774  0.00  0.00    +0.000 A 
ATOM     10  C   UNL     1       2.030   7.882  19.120  0.00  0.00    +0.000 A 
BRANCH  10  11
ATOM     11  C   UNL     1       2.859   7.216  18.052  0.00  0.00    +0.000 C 
ATOM     12  F   UNL     1       4.122   6.882  18.444  0.00  0.00    +0.000 F 
ATOM     13  F   UNL     1       2.300   6.059  17.598  0.00  0.00    +0.000 F 
ATOM     14  F   UNL     1       3.018   8.004  16.950  0.00  0.00    +0.000 F 
ENDBRANCH  10  11
ENDBRANCH   3   5
BRANCH   2  15
ATOM     15  C   UNL     1       2.613   3.693  21.142  0.00  0.00    +0.000 C 
BRANCH  15  16
ATOM     16  S   UNL     1       2.776   2.402  19.882  0.00  0.00    +0.000 S 
BRANCH  16  17
ATOM     17  C   UNL     1       3.922   3.149  18.814  0.00  0.00    +0.000 A 
ATOM     18  N   UNL     1       5.094   3.685  19.331  0.00  0.00    +0.000 NA
ATOM     19  C   UNL     1       5.663   4.206  18.293  0.00  0.00    +0.000 A 
ATOM     20  C   UNL     1       6.922   4.959  18.151  0.00  0.00    +0.000 A 
ATOM     21  C   UNL     1       7.195   5.393  16.911  0.00  0.00    +0.000 A 
ATOM     22  N   UNL     1       6.387   5.149  15.822  0.00  0.00    +0.000 N 
ATOM     23  C   UNL     1       5.211   4.444  15.939  0.00  0.00    +0.000 A 
ATOM     24  C   UNL     1       4.816   3.964  17.117  0.00  0.00    +0.000 A 
ATOM     25  N   UNL     1       3.712   3.282  17.531  0.00  0.00    +0.000 NA
ATOM     26  H   UNL     1       6.625   5.562  14.923  0.00  0.00    +0.000 HD
ENDBRANCH  16  17
ENDBRANCH  15  16
ENDBRANCH   2  15
TORSDOF 5
ENDMDL
MODEL 4
REMARK VINA RESULT:      -7.5      0.750      1.624
REMARK  Name = 
REMARK  5 active torsions:
REMARK  status: ('A' for Active; 'I' for Inactive)
REMARK    1  A    between atoms: C_2  and  C_3
REMARK    2  A    between atoms: C_3  and  S_4
REMARK    3  A    between atoms: S_4  and  C_5
REMARK    4  A    between atoms: N_14  and  C_15
REMARK    5  A    between atoms: C_20  and  C_21
REMARK                            x       y       z     vdW  Elec       q    Type
REMARK                         _______ _______ _______ _____ _____    ______ ____
ROOT
ATOM      1  O   UNL     1       0.849   4.344  19.803  0.00  0.00    +0.000 OA
ATOM      2  C   UNL     1       1.996   4.520  20.208  0.00  0.00    +0.000 C 
ATOM      3  N   UNL     1       2.591   5.754  20.447  0.00  0.00    +0.000 N 
ATOM      4  H   UNL     1       3.606   5.735  20.540  0.00  0.00    +0.000 HD
ENDROOT
BRANCH   3   5
ATOM      5  C   UNL     1       1.988   7.031  20.296  0.00  0.00    +0.000 A 
ATOM      6  C   UNL     1       1.225   7.600  21.326  0.00  0.00    +0.000 A 
ATOM      7  C   UNL     1       0.568   8.821  21.160  0.00  0.00    +0.000 A 
ATOM      8  C   UNL     1       0.675   9.510  19.962  0.00  0.00    +0.000 A 
ATOM      9  C   UNL     1       1.469   8.990  18.943  0.00  0.00    +0.000 A 
ATOM     10  C   UNL     1       2.144   7.757  19.097  0.00  0.00    +0.000 A 
BRANCH  10  11
ATOM     11  C   UNL     1       2.991   7.299  17.938  0.00  0.00    +0.000 C 
ATOM     12  F   UNL     1       2.919   8.099  16.835  0.00  0.00    +0.000 F 
ATOM     13  F   UNL     1       4.316   7.228  18.251  0.00  0.00    +0.000 F 
ATOM     14  F   UNL     1       2.649   6.052  17.504  0.00  0.00    +0.000 F 
ENDBRANCH  10  11
ENDBRANCH   3   5
BRANCH   2  15
ATOM     15  C   UNL     1       2.904   3.335  20.508  0.00  0.00    +0.000 C 
BRANCH  15  16
ATOM     16  S   UNL     1       3.376   2.472  18.987  0.00  0.00    +0.000 S 
BRANCH  16  17
ATOM     17  C   UNL     1       4.611   3.535  18.392  0.00  0.00    +0.000 A 
ATOM     18  N   UNL     1       5.449   4.184  19.289  0.00  0.00    +0.000 NA
ATOM     19  C   UNL     1       6.181   4.927  18.524  0.00  0.00    +0.000 A 
ATOM     20  C   UNL     1       7.250   5.891  18.842  0.00  0.00    +0.000 A 
ATOM     21  C   UNL     1       7.783   6.527  17.787  0.00  0.00    +0.000 A 
ATOM     22  N   UNL     1       7.395   6.299  16.484  0.00  0.00    +0.000 N 
ATOM     23  C   UNL     1       6.401   5.399  16.173  0.00  0.00    +0.000 A 
ATOM     24  C   UNL     1       5.782   4.707  17.127  0.00  0.00    +0.000 A 
ATOM     25  N   UNL     1       4.765   3.801  17.121  0.00  0.00    +0.000 NA
ATOM     26  H   UNL     1       7.799   6.863  15.739  0.00  0.00    +0.000 HD
ENDBRANCH  16  17
ENDBRANCH  15  16
ENDBRANCH   2  15
TORSDOF 5
ENDMDL
MODEL 5
REMARK VINA RESULT:      -7.4      2.066      2.557
REMARK  Name = 
REMARK  5 active torsions:
REMARK  status: ('A' for Active; 'I' for Inactive)
REMARK    1  A    between atoms: C_2  and  C_3
REMARK    2  A    between atoms: C_3  and  S_4
REMARK    3  A    between atoms: S_4  and  C_5
REMARK    4  A    between atoms: N_14  and  C_15
REMARK    5  A    between atoms: C_20  and  C_21
REMARK                            x       y       z     vdW  Elec       q    Type
REMARK                         _______ _______ _______ _____ _____    ______ ____
ROOT
ATOM      1  O   UNL     1       1.397   4.906  19.047  0.00  0.00    +0.000 OA
ATOM      2  C   UNL     1       2.111   5.278  19.975  0.00  0.00    +0.000 C 
ATOM      3  N   UNL     1       2.481   6.593  20.237  0.00  0.00    +0.000 N 
ATOM      4  H   UNL     1       3.263   6.703  20.882  0.00  0.00    +0.000 HD
ENDROOT
BRANCH   3   5
ATOM      5  C   UNL     1       2.087   7.747  19.509  0.00  0.00    +0.000 A 
ATOM      6  C   UNL     1       2.549   7.976  18.206  0.00  0.00    +0.000 A 
ATOM      7  C   UNL     1       2.225   9.143  17.510  0.00  0.00    +0.000 A 
ATOM      8  C   UNL     1       1.415  10.101  18.098  0.00  0.00    +0.000 A 
ATOM      9  C   UNL     1       0.903   9.872  19.372  0.00  0.00    +0.000 A 
ATOM     10  C   UNL     1       1.217   8.694  20.088  0.00  0.00    +0.000 A 
BRANCH  10  11
ATOM     11  C   UNL     1       0.590   8.542  21.450  0.00  0.00    +0.000 C 
ATOM     12  F   UNL     1      -0.291   9.530  21.781  0.00  0.00    +0.000 F 
ATOM     13  F   UNL     1      -0.103   7.376  21.583  0.00  0.00    +0.000 F 
ATOM     14  F   UNL     1       1.517   8.533  22.452  0.00  0.00    +0.000 F 
ENDBRANCH  10  11
ENDBRANCH   3   5
BRANCH   2  15
ATOM     15  C   UNL     1       2.675   4.275  20.973  0.00  0.00    +0.000 C 
BRANCH  15  16
ATOM     16  S   UNL     1       3.267   2.782  20.136  0.00  0.00    +0.000 S 
BRANCH  16  17
ATOM     17  C   UNL     1       4.369   3.480  18.992  0.00  0.00    +0.000 A 
ATOM     18  N   UNL     1       4.108   3.371  17.632  0.00  0.00    +0.000 NA
ATOM     19  C   UNL     1       5.142   3.927  17.088  0.00  0.00    +0.000 A 
ATOM     20  C   UNL     1       5.511   4.116  15.674  0.00  0.00    +0.000 A 
ATOM     21  C   UNL     1       6.695   4.711  15.463  0.00  0.00    +0.000 A 
ATOM     22  N   UNL     1       7.520   5.148  16.477  0.00  0.00    +0.000 N 
ATOM     23  C   UNL     1       7.186   4.981  17.802  0.00  0.00    +0.000 A 
ATOM     24  C   UNL     1       6.042   4.396  18.151  0.00  0.00    +0.000 A 
ATOM     25  N   UNL     1       5.481   4.070  19.348  0.00  0.00    +0.000 NA
ATOM     26  H   UNL     1       8.433   5.534  16.245  0.00  0.00    +0.000 HD
ENDBRANCH  16  17
ENDBRANCH  15  16
ENDBRANCH   2  15
TORSDOF 5
ENDMDL
MODEL 6
REMARK VINA RESULT:      -7.3      3.001      4.583
REMARK  Name = 
REMARK  5 active torsions:
REMARK  status: ('A' for Active; 'I' for Inactive)
REMARK    1  A    between atoms: C_2  and  C_3
REMARK    2  A    between atoms: C_3  and  S_4
REMARK    3  A    between atoms: S_4  and  C_5
REMARK    4  A    between atoms: N_14  and  C_15
REMARK    5  A    between atoms: C_20  and  C_21
REMARK                            x       y       z     vdW  Elec       q    Type
REMARK                         _______ _______ _______ _____ _____    ______ ____
ROOT
ATOM      1  O   UNL     1       2.657   6.590  17.739  0.00  0.00    +0.000 OA
ATOM      2  C   UNL     1       3.769   6.245  18.132  0.00  0.00    +0.000 C 
ATOM      3  N   UNL     1       4.028   5.217  19.032  0.00  0.00    +0.000 N 
ATOM      4  H   UNL     1       4.963   5.221  19.437  0.00  0.00    +0.000 HD
ENDROOT
BRANCH   3   5
ATOM      5  C   UNL     1       3.072   4.361  19.641  0.00  0.00    +0.000 A 
ATOM      6  C   UNL     1       2.511   4.670  20.888  0.00  0.00    +0.000 A 
ATOM      7  C   UNL     1       1.626   3.799  21.527  0.00  0.00    +0.000 A 
ATOM      8  C   UNL     1       1.269   2.604  20.923  0.00  0.00    +0.000 A 
ATOM      9  C   UNL     1       1.774   2.299  19.662  0.00  0.00    +0.000 A 
ATOM     10  C   UNL     1       2.667   3.172  18.999  0.00  0.00    +0.000 A 
BRANCH  10  11
ATOM     11  C   UNL     1       3.135   2.751  17.630  0.00  0.00    +0.000 C 
ATOM     12  F   UNL     1       2.648   3.512  16.608  0.00  0.00    +0.000 F 
ATOM     13  F   UNL     1       4.491   2.793  17.502  0.00  0.00    +0.000 F 
ATOM     14  F   UNL     1       2.778   1.469  17.329  0.00  0.00    +0.000 F 
ENDBRANCH  10  11
ENDBRANCH   3   5
BRANCH   2  15
ATOM     15  C   UNL     1       5.024   6.949  17.631  0.00  0.00    +0.000 C 
BRANCH  15  16
ATOM     16  S   UNL     1       6.458   5.844  17.681  0.00  0.00    +0.000 S 
BRANCH  16  17
ATOM     17  C   UNL     1       6.536   5.356  16.018  0.00  0.00    +0.000 A 
ATOM     18  N   UNL     1       5.571   4.498  15.507  0.00  0.00    +0.000 NA
ATOM     19  C   UNL     1       5.968   4.297  14.293  0.00  0.00    +0.000 A 
ATOM     20  C   UNL     1       5.412   3.458  13.216  0.00  0.00    +0.000 A 
ATOM     21  C   UNL     1       6.112   3.455  12.071  0.00  0.00    +0.000 A 
ATOM     22  N   UNL     1       7.260   4.191  11.876  0.00  0.00    +0.000 N 
ATOM     23  C   UNL     1       7.788   4.980  12.872  0.00  0.00    +0.000 A 
ATOM     24  C   UNL     1       7.198   5.067  14.062  0.00  0.00    +0.000 A 
ATOM     25  N   UNL     1       7.504   5.721  15.218  0.00  0.00    +0.000 NA
ATOM     26  H   UNL     1       7.774   4.091  11.004  0.00  0.00    +0.000 HD
ENDBRANCH  16  17
ENDBRANCH  15  16
ENDBRANCH   2  15
TORSDOF 5
ENDMDL
MODEL 7
REMARK VINA RESULT:      -7.3      2.975      4.857
REMARK  Name = 
REMARK  5 active torsions:
REMARK  status: ('A' for Active; 'I' for Inactive)
REMARK    1  A    between atoms: C_2  and  C_3
REMARK    2  A    between atoms: C_3  and  S_4
REMARK    3  A    between atoms: S_4  and  C_5
REMARK    4  A    between atoms: N_14  and  C_15
REMARK    5  A    between atoms: C_20  and  C_21
REMARK                            x       y       z     vdW  Elec       q    Type
REMARK                         _______ _______ _______ _____ _____    ______ ____
ROOT
ATOM      1  O   UNL     1       5.923   4.535  19.955  0.00  0.00    +0.000 OA
ATOM      2  C   UNL     1       6.057   4.365  18.745  0.00  0.00    +0.000 C 
ATOM      3  N   UNL     1       5.094   3.847  17.887  0.00  0.00    +0.000 N 
ATOM      4  H   UNL     1       5.441   3.544  16.978  0.00  0.00    +0.000 HD
ENDROOT
BRANCH   3   5
ATOM      5  C   UNL     1       3.776   3.445  18.233  0.00  0.00    +0.000 A 
ATOM      6  C   UNL     1       3.475   2.103  18.506  0.00  0.00    +0.000 A 
ATOM      7  C   UNL     1       2.169   1.687  18.775  0.00  0.00    +0.000 A 
ATOM      8  C   UNL     1       1.136   2.611  18.795  0.00  0.00    +0.000 A 
ATOM      9  C   UNL     1       1.419   3.957  18.577  0.00  0.00    +0.000 A 
ATOM     10  C   UNL     1       2.736   4.394  18.308  0.00  0.00    +0.000 A 
BRANCH  10  11
ATOM     11  C   UNL     1       2.931   5.875  18.108  0.00  0.00    +0.000 C 
ATOM     12  F   UNL     1       3.499   6.518  19.169  0.00  0.00    +0.000 F 
ATOM     13  F   UNL     1       3.726   6.162  17.039  0.00  0.00    +0.000 F 
ATOM     14  F   UNL     1       1.755   6.528  17.877  0.00  0.00    +0.000 F 
ENDBRANCH  10  11
ENDBRANCH   3   5
BRANCH   2  15
ATOM     15  C   UNL     1       7.360   4.737  18.049  0.00  0.00    +0.000 C 
BRANCH  15  16
ATOM     16  S   UNL     1       7.153   6.214  17.022  0.00  0.00    +0.000 S 
BRANCH  16  17
ATOM     17  C   UNL     1       6.904   5.485  15.468  0.00  0.00    +0.000 A 
ATOM     18  N   UNL     1       5.728   4.790  15.216  0.00  0.00    +0.000 NA
ATOM     19  C   UNL     1       5.905   4.334  14.018  0.00  0.00    +0.000 A 
ATOM     20  C   UNL     1       5.052   3.488  13.166  0.00  0.00    +0.000 A 
ATOM     21  C   UNL     1       5.572   3.167  11.971  0.00  0.00    +0.000 A 
ATOM     22  N   UNL     1       6.805   3.601  11.533  0.00  0.00    +0.000 N 
ATOM     23  C   UNL     1       7.610   4.395  12.319  0.00  0.00    +0.000 A 
ATOM     24  C   UNL     1       7.219   4.779  13.532  0.00  0.00    +0.000 A 
ATOM     25  N   UNL     1       7.804   5.512  14.520  0.00  0.00    +0.000 NA
ATOM     26  H   UNL     1       7.163   3.268  10.642  0.00  0.00    +0.000 HD
ENDBRANCH  16  17
ENDBRANCH  15  16
ENDBRANCH   2  15
TORSDOF 5
ENDMDL
MODEL 8
REMARK VINA RESULT:      -7.3      3.336      4.815
REMARK  Name = 
REMARK  5 active torsions:
REMARK  status: ('A' for Active; 'I' for Inactive)
REMARK    1  A    between atoms: C_2  and  C_3
REMARK    2  A    between atoms: C_3  and  S_4
REMARK    3  A    between atoms: S_4  and  C_5
REMARK    4  A    between atoms: N_14  and  C_15
REMARK    5  A    between atoms: C_20  and  C_21
REMARK                            x       y       z     vdW  Elec       q    Type
REMARK                         _______ _______ _______ _____ _____    ______ ____
ROOT
ATOM      1  O   UNL     1       5.831   4.693  19.407  0.00  0.00    +0.000 OA
ATOM      2  C   UNL     1       5.053   5.384  18.755  0.00  0.00    +0.000 C 
ATOM      3  N   UNL     1       3.666   5.278  18.768  0.00  0.00    +0.000 N 
ATOM      4  H   UNL     1       3.188   5.746  17.999  0.00  0.00    +0.000 HD
ENDROOT
BRANCH   3   5
ATOM      5  C   UNL     1       2.891   4.380  19.548  0.00  0.00    +0.000 A 
ATOM      6  C   UNL     1       2.491   4.709  20.851  0.00  0.00    +0.000 A 
ATOM      7  C   UNL     1       1.792   3.804  21.652  0.00  0.00    +0.000 A 
ATOM      8  C   UNL     1       1.462   2.551  21.160  0.00  0.00    +0.000 A 
ATOM      9  C   UNL     1       1.805   2.220  19.852  0.00  0.00    +0.000 A 
ATOM     10  C   UNL     1       2.508   3.127  19.026  0.00  0.00    +0.000 A 
BRANCH  10  11
ATOM     11  C   UNL     1       2.809   2.672  17.622  0.00  0.00    +0.000 C 
ATOM     12  F   UNL     1       2.408   3.540  16.648  0.00  0.00    +0.000 F 
ATOM     13  F   UNL     1       4.140   2.473  17.407  0.00  0.00    +0.000 F 
ATOM     14  F   UNL     1       2.207   1.485  17.319  0.00  0.00    +0.000 F 
ENDBRANCH  10  11
ENDBRANCH   3   5
BRANCH   2  15
ATOM     15  C   UNL     1       5.573   6.481  17.834  0.00  0.00    +0.000 C 
BRANCH  15  16
ATOM     16  S   UNL     1       7.266   6.133  17.294  0.00  0.00    +0.000 S 
BRANCH  16  17
ATOM     17  C   UNL     1       6.964   5.465  15.722  0.00  0.00    +0.000 A 
ATOM     18  N   UNL     1       5.802   4.738  15.496  0.00  0.00    +0.000 NA
ATOM     19  C   UNL     1       5.934   4.343  14.272  0.00  0.00    +0.000 A 
ATOM     20  C   UNL     1       5.069   3.504  13.424  0.00  0.00    +0.000 A 
ATOM     21  C   UNL     1       5.539   3.256  12.191  0.00  0.00    +0.000 A 
ATOM     22  N   UNL     1       6.731   3.755  11.714  0.00  0.00    +0.000 N 
ATOM     23  C   UNL     1       7.547   4.543  12.495  0.00  0.00    +0.000 A 
ATOM     24  C   UNL     1       7.205   4.858  13.742  0.00  0.00    +0.000 A 
ATOM     25  N   UNL     1       7.813   5.567  14.733  0.00  0.00    +0.000 NA
ATOM     26  H   UNL     1       7.056   3.475  10.792  0.00  0.00    +0.000 HD
ENDBRANCH  16  17
ENDBRANCH  15  16
ENDBRANCH   2  15
TORSDOF 5
ENDMDL
MODEL 9
REMARK VINA RESULT:      -7.3      2.966      4.555
REMARK  Name = 
REMARK  5 active torsions:
REMARK  status: ('A' for Active; 'I' for Inactive)
REMARK    1  A    between atoms: C_2  and  C_3
REMARK    2  A    between atoms: C_3  and  S_4
REMARK    3  A    between atoms: S_4  and  C_5
REMARK    4  A    between atoms: N_14  and  C_15
REMARK    5  A    between atoms: C_20  and  C_21
REMARK                            x       y       z     vdW  Elec       q    Type
REMARK                         _______ _______ _______ _____ _____    ______ ____
ROOT
ATOM      1  O   UNL     1       3.355   7.345  17.592  0.00  0.00    +0.000 OA
ATOM      2  C   UNL     1       4.295   6.622  17.913  0.00  0.00    +0.000 C 
ATOM      3  N   UNL     1       4.204   5.464  18.678  0.00  0.00    +0.000 N 
ATOM      4  H   UNL     1       5.086   5.124  19.057  0.00  0.00    +0.000 HD
ENDROOT
BRANCH   3   5
ATOM      5  C   UNL     1       3.018   4.887  19.207  0.00  0.00    +0.000 A 
ATOM      6  C   UNL     1       2.322   5.496  20.260  0.00  0.00    +0.000 A 
ATOM      7  C   UNL     1       1.197   4.900  20.835  0.00  0.00    +0.000 A 
ATOM      8  C   UNL     1       0.733   3.686  20.354  0.00  0.00    +0.000 A 
ATOM      9  C   UNL     1       1.378   3.086  19.276  0.00  0.00    +0.000 A 
ATOM     10  C   UNL     1       2.515   3.680  18.680  0.00  0.00    +0.000 A 
BRANCH  10  11
ATOM     11  C   UNL     1       3.121   2.955  17.506  0.00  0.00    +0.000 C 
ATOM     12  F   UNL     1       3.142   3.675  16.347  0.00  0.00    +0.000 F 
ATOM     13  F   UNL     1       4.414   2.583  17.728  0.00  0.00    +0.000 F 
ATOM     14  F   UNL     1       2.454   1.803  17.205  0.00  0.00    +0.000 F 
ENDBRANCH  10  11
ENDBRANCH   3   5
BRANCH   2  15
ATOM     15  C   UNL     1       5.714   6.948  17.466  0.00  0.00    +0.000 C 
BRANCH  15  16
ATOM     16  S   UNL     1       6.794   5.501  17.609  0.00  0.00    +0.000 S 
BRANCH  16  17
ATOM     17  C   UNL     1       6.820   4.964  15.960  0.00  0.00    +0.000 A 
ATOM     18  N   UNL     1       7.641   5.606  15.042  0.00  0.00    +0.000 NA
ATOM     19  C   UNL     1       7.363   5.008  13.929  0.00  0.00    +0.000 A 
ATOM     20  C   UNL     1       7.861   5.226  12.559  0.00  0.00    +0.000 A 
ATOM     21  C   UNL     1       7.322   4.434  11.619  0.00  0.00    +0.000 A 
ATOM     22  N   UNL     1       6.384   3.461  11.887  0.00  0.00    +0.000 N 
ATOM     23  C   UNL     1       5.913   3.244  13.162  0.00  0.00    +0.000 A 
ATOM     24  C   UNL     1       6.358   3.967  14.188  0.00  0.00    +0.000 A 
ATOM     25  N   UNL     1       6.055   4.001  15.516  0.00  0.00    +0.000 NA
ATOM     26  H   UNL     1       5.972   2.940  11.116  0.00  0.00    +0.000 HD
ENDBRANCH  16  17
ENDBRANCH  15  16
ENDBRANCH   2  15
TORSDOF 5
ENDMDL
