MODEL 1
REMARK VINA RESULT:      -7.0      0.000      0.000
REMARK  Name = 
REMARK  6 active torsions:
REMARK  status: ('A' for Active; 'I' for Inactive)
REMARK    1  A    between atoms: C_1  and  C_2
REMARK    2  A    between atoms: N_4  and  C_5
REMARK    3  A    between atoms: C_8  and  C_9
REMARK    4  A    between atoms: C_15  and  C_16
REMARK    5  A    between atoms: C_15  and  C_17
REMARK    6  A    between atoms: C_18  and  O_19
REMARK                            x       y       z     vdW  Elec       q    Type
REMARK                         _______ _______ _______ _____ _____    ______ ____
ROOT
ATOM      1  C   UNL     1       5.592   3.970  16.925  0.00  0.00    +0.000 C 
ATOM      2  C   UNL     1       6.130   4.198  15.533  0.00  0.00    +0.000 A 
ATOM      3  C   UNL     1       5.710   3.367  14.474  0.00  0.00    +0.000 A 
ATOM      4  C   UNL     1       6.162   3.586  13.167  0.00  0.00    +0.000 A 
ATOM      5  C   UNL     1       7.043   4.639  12.915  0.00  0.00    +0.000 A 
ATOM      6  C   UNL     1       7.474   5.461  13.963  0.00  0.00    +0.000 A 
ATOM      7  C   UNL     1       7.014   5.249  15.266  0.00  0.00    +0.000 A 
ATOM      8  O   UNL     1       7.504   6.113  16.207  0.00  0.00    +0.000 OA
ATOM      9  C   UNL     1       6.888   6.097  17.512  0.00  0.00    +0.000 C 
ATOM     10  C   UNL     1       5.702   7.076  17.496  0.00  0.00    +0.000 C 
ATOM     11  C   UNL     1       7.925   6.666  18.500  0.00  0.00    +0.000 C 
ATOM     12  C   UNL     1       6.527   4.657  17.948  0.00  0.00    +0.000 C 
ENDROOT
BRANCH   1  16
ATOM     13  C   UNL     1       1.875   4.463  17.622  0.00  0.00    +0.000 C 
ATOM     14  C   UNL     1       3.243   3.854  17.769  0.00  0.00    +0.000 C 
ATOM     15  O   UNL     1       3.483   2.961  18.572  0.00  0.00    +0.000 OA
ATOM     16  N   UNL     1       4.202   4.431  16.977  0.00  0.00    +0.000 N 
ATOM     17  H   UNL     1       3.924   5.157  16.328  0.00  0.00    +0.000 HD
ENDBRANCH   1  16
BRANCH   4  18
ATOM     18  C   UNL     1       5.716   2.741  12.092  0.00  0.00    +0.000 C 
ATOM     19  N   UNL     1       5.351   2.058  11.235  0.00  0.00    +0.000 NA
ENDBRANCH   4  18
BRANCH  12  20
ATOM     20  O   UNL     1       6.036   4.619  19.289  0.00  0.00    +0.000 OA
ATOM     21  H   UNL     1       5.892   5.534  19.586  0.00  0.00    +0.000 HD
ENDBRANCH  12  20
TORSDOF 3
ENDMDL
MODEL 2
REMARK VINA RESULT:      -6.6      1.928      5.064
REMARK  Name = 
REMARK  6 active torsions:
REMARK  status: ('A' for Active; 'I' for Inactive)
REMARK    1  A    between atoms: C_1  and  C_2
REMARK    2  A    between atoms: N_4  and  C_5
REMARK    3  A    between atoms: C_8  and  C_9
REMARK    4  A    between atoms: C_15  and  C_16
REMARK    5  A    between atoms: C_15  and  C_17
REMARK    6  A    between atoms: C_18  and  O_19
REMARK                            x       y       z     vdW  Elec       q    Type
REMARK                         _______ _______ _______ _____ _____    ______ ____
ROOT
ATOM      1  C   UNL     1       4.966   5.377  16.913  0.00  0.00    +0.000 C 
ATOM      2  C   UNL     1       4.366   4.527  18.006  0.00  0.00    +0.000 A 
ATOM      3  C   UNL     1       3.096   3.945  17.825  0.00  0.00    +0.000 A 
ATOM      4  C   UNL     1       2.537   3.118  18.808  0.00  0.00    +0.000 A 
ATOM      5  C   UNL     1       3.251   2.874  19.982  0.00  0.00    +0.000 A 
ATOM      6  C   UNL     1       4.508   3.458  20.175  0.00  0.00    +0.000 A 
ATOM      7  C   UNL     1       5.070   4.274  19.190  0.00  0.00    +0.000 A 
ATOM      8  O   UNL     1       6.301   4.790  19.488  0.00  0.00    +0.000 OA
ATOM      9  C   UNL     1       7.030   5.437  18.424  0.00  0.00    +0.000 C 
ATOM     10  C   UNL     1       7.858   4.369  17.691  0.00  0.00    +0.000 C 
ATOM     11  C   UNL     1       8.032   6.399  19.093  0.00  0.00    +0.000 C 
ATOM     12  C   UNL     1       6.087   6.258  17.512  0.00  0.00    +0.000 C 
ENDROOT
BRANCH   1  16
ATOM     13  C   UNL     1       6.037   3.860  13.581  0.00  0.00    +0.000 C 
ATOM     14  C   UNL     1       5.637   4.945  14.545  0.00  0.00    +0.000 C 
ATOM     15  O   UNL     1       5.584   6.125  14.223  0.00  0.00    +0.000 OA
ATOM     16  N   UNL     1       5.408   4.503  15.823  0.00  0.00    +0.000 N 
ATOM     17  H   UNL     1       5.460   3.510  16.009  0.00  0.00    +0.000 HD
ENDBRANCH   1  16
BRANCH   4  18
ATOM     18  C   UNL     1       1.245   2.518  18.605  0.00  0.00    +0.000 C 
ATOM     19  N   UNL     1       0.205   2.043  18.449  0.00  0.00    +0.000 NA
ENDBRANCH   4  18
BRANCH  12  20
ATOM     20  O   UNL     1       6.815   7.003  16.536  0.00  0.00    +0.000 OA
ATOM     21  H   UNL     1       7.407   7.619  17.002  0.00  0.00    +0.000 HD
ENDBRANCH  12  20
TORSDOF 3
ENDMDL
MODEL 3
REMARK VINA RESULT:      -6.6      3.724      5.239
REMARK  Name = 
REMARK  6 active torsions:
REMARK  status: ('A' for Active; 'I' for Inactive)
REMARK    1  A    between atoms: C_1  and  C_2
REMARK    2  A    between atoms: N_4  and  C_5
REMARK    3  A    between atoms: C_8  and  C_9
REMARK    4  A    between atoms: C_15  and  C_16
REMARK    5  A    between atoms: C_15  and  C_17
REMARK    6  A    between atoms: C_18  and  O_19
REMARK                            x       y       z     vdW  Elec       q    Type
REMARK                         _______ _______ _______ _____ _____    ______ ____
ROOT
ATOM      1  C   UNL     1       3.189   5.659  17.734  0.00  0.00    +0.000 C 
ATOM      2  C   UNL     1       4.696   5.642  17.803  0.00  0.00    +0.000 A 
ATOM      3  C   UNL     1       5.421   6.835  17.608  0.00  0.00    +0.000 A 
ATOM      4  C   UNL     1       6.817   6.853  17.709  0.00  0.00    +0.000 A 
ATOM      5  C   UNL     1       7.497   5.669  18.003  0.00  0.00    +0.000 A 
ATOM      6  C   UNL     1       6.785   4.478  18.185  0.00  0.00    +0.000 A 
ATOM      7  C   UNL     1       5.391   4.463  18.095  0.00  0.00    +0.000 A 
ATOM      8  O   UNL     1       4.805   3.243  18.291  0.00  0.00    +0.000 OA
ATOM      9  C   UNL     1       3.370   3.208  18.447  0.00  0.00    +0.000 C 
ATOM     10  C   UNL     1       3.045   3.400  19.938  0.00  0.00    +0.000 C 
ATOM     11  C   UNL     1       2.916   1.785  18.069  0.00  0.00    +0.000 C 
ATOM     12  C   UNL     1       2.676   4.219  17.503  0.00  0.00    +0.000 C 
ENDROOT
BRANCH   1  16
ATOM     13  C   UNL     1       1.762   8.041  20.348  0.00  0.00    +0.000 C 
ATOM     14  C   UNL     1       2.204   7.586  18.984  0.00  0.00    +0.000 C 
ATOM     15  O   UNL     1       2.099   8.291  17.989  0.00  0.00    +0.000 OA
ATOM     16  N   UNL     1       2.667   6.295  18.947  0.00  0.00    +0.000 N 
ATOM     17  H   UNL     1       2.735   5.779  19.814  0.00  0.00    +0.000 HD
ENDBRANCH   1  16
BRANCH   4  18
ATOM     18  C   UNL     1       7.545   8.080  17.523  0.00  0.00    +0.000 C 
ATOM     19  N   UNL     1       8.125   9.069  17.380  0.00  0.00    +0.000 NA
ENDBRANCH   4  18
BRANCH  12  20
ATOM     20  O   UNL     1       1.253   4.100  17.559  0.00  0.00    +0.000 OA
ATOM     21  H   UNL     1       1.013   3.714  18.420  0.00  0.00    +0.000 HD
ENDBRANCH  12  20
TORSDOF 3
ENDMDL
MODEL 4
REMARK VINA RESULT:      -6.0      1.455      1.479
REMARK  Name = 
REMARK  6 active torsions:
REMARK  status: ('A' for Active; 'I' for Inactive)
REMARK    1  A    between atoms: C_1  and  C_2
REMARK    2  A    between atoms: N_4  and  C_5
REMARK    3  A    between atoms: C_8  and  C_9
REMARK    4  A    between atoms: C_15  and  C_16
REMARK    5  A    between atoms: C_15  and  C_17
REMARK    6  A    between atoms: C_18  and  O_19
REMARK                            x       y       z     vdW  Elec       q    Type
REMARK                         _______ _______ _______ _____ _____    ______ ____
ROOT
ATOM      1  C   UNL     1       4.905   4.849  17.249  0.00  0.00    +0.000 C 
ATOM      2  C   UNL     1       5.619   4.649  15.934  0.00  0.00    +0.000 A 
ATOM      3  C   UNL     1       4.905   4.185  14.811  0.00  0.00    +0.000 A 
ATOM      4  C   UNL     1       5.537   4.033  13.571  0.00  0.00    +0.000 A 
ATOM      5  C   UNL     1       6.893   4.342  13.451  0.00  0.00    +0.000 A 
ATOM      6  C   UNL     1       7.612   4.791  14.564  0.00  0.00    +0.000 A 
ATOM      7  C   UNL     1       6.979   4.954  15.800  0.00  0.00    +0.000 A 
ATOM      8  O   UNL     1       7.781   5.398  16.815  0.00  0.00    +0.000 OA
ATOM      9  C   UNL     1       7.141   5.810  18.040  0.00  0.00    +0.000 C 
ATOM     10  C   UNL     1       6.783   7.301  17.917  0.00  0.00    +0.000 C 
ATOM     11  C   UNL     1       8.198   5.695  19.155  0.00  0.00    +0.000 C 
ATOM     12  C   UNL     1       5.947   4.890  18.391  0.00  0.00    +0.000 C 
ENDROOT
BRANCH   1  16
ATOM     13  C   UNL     1       2.244   7.551  17.649  0.00  0.00    +0.000 C 
ATOM     14  C   UNL     1       2.980   6.275  17.957  0.00  0.00    +0.000 C 
ATOM     15  O   UNL     1       2.663   5.540  18.883  0.00  0.00    +0.000 OA
ATOM     16  N   UNL     1       4.069   6.049  17.155  0.00  0.00    +0.000 N 
ATOM     17  H   UNL     1       4.261   6.697  16.402  0.00  0.00    +0.000 HD
ENDBRANCH   1  16
BRANCH   4  18
ATOM     18  C   UNL     1       4.793   3.572  12.428  0.00  0.00    +0.000 C 
ATOM     19  N   UNL     1       4.197   3.194  11.515  0.00  0.00    +0.000 NA
ENDBRANCH   4  18
BRANCH  12  20
ATOM     20  O   UNL     1       5.389   5.212  19.665  0.00  0.00    +0.000 OA
ATOM     21  H   UNL     1       5.194   6.166  19.680  0.00  0.00    +0.000 HD
ENDBRANCH  12  20
TORSDOF 3
ENDMDL
MODEL 5
REMARK VINA RESULT:      -5.8      2.063      4.162
REMARK  Name = 
REMARK  6 active torsions:
REMARK  status: ('A' for Active; 'I' for Inactive)
REMARK    1  A    between atoms: C_1  and  C_2
REMARK    2  A    between atoms: N_4  and  C_5
REMARK    3  A    between atoms: C_8  and  C_9
REMARK    4  A    between atoms: C_15  and  C_16
REMARK    5  A    between atoms: C_15  and  C_17
REMARK    6  A    between atoms: C_18  and  O_19
REMARK                            x       y       z     vdW  Elec       q    Type
REMARK                         _______ _______ _______ _____ _____    ______ ____
ROOT
ATOM      1  C   UNL     1       5.337   5.742  18.164  0.00  0.00    +0.000 C 
ATOM      2  C   UNL     1       5.520   5.115  16.804  0.00  0.00    +0.000 A 
ATOM      3  C   UNL     1       6.549   5.570  15.955  0.00  0.00    +0.000 A 
ATOM      4  C   UNL     1       6.766   4.975  14.706  0.00  0.00    +0.000 A 
ATOM      5  C   UNL     1       5.947   3.920  14.299  0.00  0.00    +0.000 A 
ATOM      6  C   UNL     1       4.915   3.471  15.132  0.00  0.00    +0.000 A 
ATOM      7  C   UNL     1       4.706   4.058  16.382  0.00  0.00    +0.000 A 
ATOM      8  O   UNL     1       3.670   3.537  17.107  0.00  0.00    +0.000 OA
ATOM      9  C   UNL     1       3.556   3.934  18.490  0.00  0.00    +0.000 C 
ATOM     10  C   UNL     1       4.396   2.964  19.338  0.00  0.00    +0.000 C 
ATOM     11  C   UNL     1       2.084   3.722  18.894  0.00  0.00    +0.000 C 
ATOM     12  C   UNL     1       3.913   5.427  18.680  0.00  0.00    +0.000 C 
ENDROOT
BRANCH   1  16
ATOM     13  C   UNL     1       8.587   5.235  20.094  0.00  0.00    +0.000 C 
ATOM     14  C   UNL     1       7.620   5.917  19.164  0.00  0.00    +0.000 C 
ATOM     15  O   UNL     1       7.876   6.979  18.612  0.00  0.00    +0.000 OA
ATOM     16  N   UNL     1       6.411   5.280  19.047  0.00  0.00    +0.000 N 
ATOM     17  H   UNL     1       6.279   4.398  19.526  0.00  0.00    +0.000 HD
ENDBRANCH   1  16
BRANCH   4  18
ATOM     18  C   UNL     1       7.829   5.439  13.854  0.00  0.00    +0.000 C 
ATOM     19  N   UNL     1       8.676   5.816  13.166  0.00  0.00    +0.000 NA
ENDBRANCH   4  18
BRANCH  12  20
ATOM     20  O   UNL     1       3.680   5.859  20.021  0.00  0.00    +0.000 OA
ATOM     21  H   UNL     1       4.541   6.045  20.435  0.00  0.00    +0.000 HD
ENDBRANCH  12  20
TORSDOF 3
ENDMDL
MODEL 6
REMARK VINA RESULT:      -5.8      2.697      5.981
REMARK  Name = 
REMARK  6 active torsions:
REMARK  status: ('A' for Active; 'I' for Inactive)
REMARK    1  A    between atoms: C_1  and  C_2
REMARK    2  A    between atoms: N_4  and  C_5
REMARK    3  A    between atoms: C_8  and  C_9
REMARK    4  A    between atoms: C_15  and  C_16
REMARK    5  A    between atoms: C_15  and  C_17
REMARK    6  A    between atoms: C_18  and  O_19
REMARK                            x       y       z     vdW  Elec       q    Type
REMARK                         _______ _______ _______ _____ _____    ______ ____
ROOT
ATOM      1  C   UNL     1       5.219   5.611  17.865  0.00  0.00    +0.000 C 
ATOM      2  C   UNL     1       3.957   6.270  18.367  0.00  0.00    +0.000 A 
ATOM      3  C   UNL     1       3.630   7.573  17.941  0.00  0.00    +0.000 A 
ATOM      4  C   UNL     1       2.443   8.189  18.360  0.00  0.00    +0.000 A 
ATOM      5  C   UNL     1       1.580   7.500  19.213  0.00  0.00    +0.000 A 
ATOM      6  C   UNL     1       1.904   6.211  19.650  0.00  0.00    +0.000 A 
ATOM      7  C   UNL     1       3.083   5.593  19.224  0.00  0.00    +0.000 A 
ATOM      8  O   UNL     1       3.294   4.334  19.716  0.00  0.00    +0.000 OA
ATOM      9  C   UNL     1       4.361   3.559  19.130  0.00  0.00    +0.000 C 
ATOM     10  C   UNL     1       3.791   2.793  17.924  0.00  0.00    +0.000 C 
ATOM     11  C   UNL     1       4.771   2.504  20.177  0.00  0.00    +0.000 C 
ATOM     12  C   UNL     1       5.589   4.443  18.808  0.00  0.00    +0.000 C 
ENDROOT
BRANCH   1  16
ATOM     13  C   UNL     1       5.607   4.709  14.180  0.00  0.00    +0.000 C 
ATOM     14  C   UNL     1       6.051   5.074  15.571  0.00  0.00    +0.000 C 
ATOM     15  O   UNL     1       7.231   5.173  15.881  0.00  0.00    +0.000 OA
ATOM     16  N   UNL     1       5.023   5.217  16.468  0.00  0.00    +0.000 N 
ATOM     17  H   UNL     1       4.072   5.131  16.133  0.00  0.00    +0.000 HD
ENDBRANCH   1  16
BRANCH   4  18
ATOM     18  C   UNL     1       2.113   9.514  17.907  0.00  0.00    +0.000 C 
ATOM     19  N   UNL     1       1.851  10.581  17.551  0.00  0.00    +0.000 NA
ENDBRANCH   4  18
BRANCH  12  20
ATOM     20  O   UNL     1       6.694   3.663  18.347  0.00  0.00    +0.000 OA
ATOM     21  H   UNL     1       6.730   2.845  18.874  0.00  0.00    +0.000 HD
ENDBRANCH  12  20
TORSDOF 3
ENDMDL
MODEL 7
REMARK VINA RESULT:      -5.7      3.060      6.666
REMARK  Name = 
REMARK  6 active torsions:
REMARK  status: ('A' for Active; 'I' for Inactive)
REMARK    1  A    between atoms: C_1  and  C_2
REMARK    2  A    between atoms: N_4  and  C_5
REMARK    3  A    between atoms: C_8  and  C_9
REMARK    4  A    between atoms: C_15  and  C_16
REMARK    5  A    between atoms: C_15  and  C_17
REMARK    6  A    between atoms: C_18  and  O_19
REMARK                            x       y       z     vdW  Elec       q    Type
REMARK                         _______ _______ _______ _____ _____    ______ ____
ROOT
ATOM      1  C   UNL     1       4.780   5.597  18.734  0.00  0.00    +0.000 C 
ATOM      2  C   UNL     1       3.474   5.909  19.422  0.00  0.00    +0.000 A 
ATOM      3  C   UNL     1       2.992   7.234  19.444  0.00  0.00    +0.000 A 
ATOM      4  C   UNL     1       1.761   7.541  20.038  0.00  0.00    +0.000 A 
ATOM      5  C   UNL     1       1.008   6.519  20.618  0.00  0.00    +0.000 A 
ATOM      6  C   UNL     1       1.486   5.203  20.611  0.00  0.00    +0.000 A 
ATOM      7  C   UNL     1       2.708   4.895  20.009  0.00  0.00    +0.000 A 
ATOM      8  O   UNL     1       3.073   3.578  20.064  0.00  0.00    +0.000 OA
ATOM      9  C   UNL     1       4.196   3.162  19.259  0.00  0.00    +0.000 C 
ATOM     10  C   UNL     1       3.670   2.769  17.868  0.00  0.00    +0.000 C 
ATOM     11  C   UNL     1       4.755   1.879  19.905  0.00  0.00    +0.000 C 
ATOM     12  C   UNL     1       5.309   4.236  19.245  0.00  0.00    +0.000 C 
ENDROOT
BRANCH   1  16
ATOM     13  C   UNL     1       5.088   6.121  14.969  0.00  0.00    +0.000 C 
ATOM     14  C   UNL     1       5.534   6.102  16.406  0.00  0.00    +0.000 C 
ATOM     15  O   UNL     1       6.672   6.400  16.746  0.00  0.00    +0.000 OA
ATOM     16  N   UNL     1       4.579   5.658  17.284  0.00  0.00    +0.000 N 
ATOM     17  H   UNL     1       3.657   5.441  16.929  0.00  0.00    +0.000 HD
ENDBRANCH   1  16
BRANCH   4  18
ATOM     18  C   UNL     1       1.273   8.894  20.041  0.00  0.00    +0.000 C 
ATOM     19  N   UNL     1       0.877   9.979  20.036  0.00  0.00    +0.000 NA
ENDBRANCH   4  18
BRANCH  12  20
ATOM     20  O   UNL     1       6.475   3.779  18.557  0.00  0.00    +0.000 OA
ATOM     21  H   UNL     1       7.025   3.282  19.188  0.00  0.00    +0.000 HD
ENDBRANCH  12  20
TORSDOF 3
ENDMDL
MODEL 8
REMARK VINA RESULT:      -5.7      2.554      5.746
REMARK  Name = 
REMARK  6 active torsions:
REMARK  status: ('A' for Active; 'I' for Inactive)
REMARK    1  A    between atoms: C_1  and  C_2
REMARK    2  A    between atoms: N_4  and  C_5
REMARK    3  A    between atoms: C_8  and  C_9
REMARK    4  A    between atoms: C_15  and  C_16
REMARK    5  A    between atoms: C_15  and  C_17
REMARK    6  A    between atoms: C_18  and  O_19
REMARK                            x       y       z     vdW  Elec       q    Type
REMARK                         _______ _______ _______ _____ _____    ______ ____
ROOT
ATOM      1  C   UNL     1       6.061   4.047  17.799  0.00  0.00    +0.000 C 
ATOM      2  C   UNL     1       4.595   3.885  18.119  0.00  0.00    +0.000 A 
ATOM      3  C   UNL     1       4.191   3.633  19.445  0.00  0.00    +0.000 A 
ATOM      4  C   UNL     1       2.834   3.521  19.774  0.00  0.00    +0.000 A 
ATOM      5  C   UNL     1       1.874   3.658  18.771  0.00  0.00    +0.000 A 
ATOM      6  C   UNL     1       2.268   3.896  17.449  0.00  0.00    +0.000 A 
ATOM      7  C   UNL     1       3.621   4.019  17.123  0.00  0.00    +0.000 A 
ATOM      8  O   UNL     1       3.886   4.250  15.801  0.00  0.00    +0.000 OA
ATOM      9  C   UNL     1       5.235   4.621  15.445  0.00  0.00    +0.000 C 
ATOM     10  C   UNL     1       5.355   6.151  15.549  0.00  0.00    +0.000 C 
ATOM     11  C   UNL     1       5.418   4.257  13.959  0.00  0.00    +0.000 C 
ATOM     12  C   UNL     1       6.274   3.837  16.281  0.00  0.00    +0.000 C 
ENDROOT
BRANCH   1  16
ATOM     13  C   UNL     1       7.986   6.976  19.301  0.00  0.00    +0.000 C 
ATOM     14  C   UNL     1       7.763   5.571  18.811  0.00  0.00    +0.000 C 
ATOM     15  O   UNL     1       8.645   4.722  18.821  0.00  0.00    +0.000 OA
ATOM     16  N   UNL     1       6.512   5.351  18.293  0.00  0.00    +0.000 N 
ATOM     17  H   UNL     1       5.832   6.099  18.331  0.00  0.00    +0.000 HD
ENDBRANCH   1  16
BRANCH   4  18
ATOM     18  C   UNL     1       2.433   3.278  21.135  0.00  0.00    +0.000 C 
ATOM     19  N   UNL     1       2.108   3.075  22.224  0.00  0.00    +0.000 NA
ENDBRANCH   4  18
BRANCH  12  20
ATOM     20  O   UNL     1       7.609   4.103  15.847  0.00  0.00    +0.000 OA
ATOM     21  H   UNL     1       8.157   4.271  16.634  0.00  0.00    +0.000 HD
ENDBRANCH  12  20
TORSDOF 3
ENDMDL
MODEL 9
REMARK VINA RESULT:      -5.7      2.846      5.256
REMARK  Name = 
REMARK  6 active torsions:
REMARK  status: ('A' for Active; 'I' for Inactive)
REMARK    1  A    between atoms: C_1  and  C_2
REMARK    2  A    between atoms: N_4  and  C_5
REMARK    3  A    between atoms: C_8  and  C_9
REMARK    4  A    between atoms: C_15  and  C_16
REMARK    5  A    between atoms: C_15  and  C_17
REMARK    6  A    between atoms: C_18  and  O_19
REMARK                            x       y       z     vdW  Elec       q    Type
REMARK                         _______ _______ _______ _____ _____    ______ ____
ROOT
ATOM      1  C   UNL     1       4.848   6.017  18.225  0.00  0.00    +0.000 C 
ATOM      2  C   UNL     1       4.256   4.638  18.383  0.00  0.00    +0.000 A 
ATOM      3  C   UNL     1       3.333   4.385  19.419  0.00  0.00    +0.000 A 
ATOM      4  C   UNL     1       2.738   3.125  19.559  0.00  0.00    +0.000 A 
ATOM      5  C   UNL     1       3.069   2.109  18.662  0.00  0.00    +0.000 A 
ATOM      6  C   UNL     1       3.993   2.348  17.639  0.00  0.00    +0.000 A 
ATOM      7  C   UNL     1       4.579   3.608  17.492  0.00  0.00    +0.000 A 
ATOM      8  O   UNL     1       5.467   3.724  16.458  0.00  0.00    +0.000 OA
ATOM      9  C   UNL     1       5.918   5.050  16.111  0.00  0.00    +0.000 C 
ATOM     10  C   UNL     1       4.932   5.640  15.089  0.00  0.00    +0.000 C 
ATOM     11  C   UNL     1       7.268   4.885  15.386  0.00  0.00    +0.000 C 
ATOM     12  C   UNL     1       6.134   5.921  17.371  0.00  0.00    +0.000 C 
ENDROOT
BRANCH   1  16
ATOM     13  C   UNL     1       1.878   8.337  17.642  0.00  0.00    +0.000 C 
ATOM     14  C   UNL     1       2.846   7.498  18.431  0.00  0.00    +0.000 C 
ATOM     15  O   UNL     1       2.793   7.403  19.651  0.00  0.00    +0.000 OA
ATOM     16  N   UNL     1       3.826   6.910  17.673  0.00  0.00    +0.000 N 
ATOM     17  H   UNL     1       3.797   7.025  16.668  0.00  0.00    +0.000 HD
ENDBRANCH   1  16
BRANCH   4  18
ATOM     18  C   UNL     1       1.787   2.884  20.612  0.00  0.00    +0.000 C 
ATOM     19  N   UNL     1       1.030   2.693  21.462  0.00  0.00    +0.000 NA
ENDBRANCH   4  18
BRANCH  12  20
ATOM     20  O   UNL     1       6.702   7.190  17.045  0.00  0.00    +0.000 OA
ATOM     21  H   UNL     1       7.384   7.398  17.707  0.00  0.00    +0.000 HD
ENDBRANCH  12  20
TORSDOF 3
ENDMDL
