MODEL 1
REMARK VINA RESULT:      -7.2      0.000      0.000
REMARK  Name = 
REMARK  8 active torsions:
REMARK  status: ('A' for Active; 'I' for Inactive)
REMARK    1  A    between atoms: C_1  and  N_2
REMARK    2  A    between atoms: C_6  and  C_7
REMARK    3  A    between atoms: C_7  and  N_8
REMARK    4  A    between atoms: N_8  and  S_9
REMARK    5  A    between atoms: S_9  and  C_12
REMARK    6  A    between atoms: C_15  and  C_16
REMARK    7  A    between atoms: N_18  and  C_19
REMARK    8  A    between atoms: C_19  and  C_20
REMARK                            x       y       z     vdW  Elec       q    Type
REMARK                         _______ _______ _______ _____ _____    ______ ____
ROOT
ATOM      1  C   UNL     1       6.407   5.896  17.538  0.00  0.00    +0.000 A 
ATOM      2  C   UNL     1       7.512   5.829  18.384  0.00  0.00    +0.000 A 
ATOM      3  C   UNL     1       8.228   6.997  18.662  0.00  0.00    +0.000 A 
ATOM      4  C   UNL     1       7.853   8.235  18.107  0.00  0.00    +0.000 A 
ATOM      5  C   UNL     1       6.757   8.277  17.231  0.00  0.00    +0.000 A 
ATOM      6  C   UNL     1       6.044   7.108  16.939  0.00  0.00    +0.000 A 
ENDROOT
BRANCH   4   7
ATOM      7  C   UNL     1       8.647   9.439  18.510  0.00  0.00    +0.000 C 
ATOM      8  O   UNL     1       9.295   9.414  19.552  0.00  0.00    +0.000 OA
ATOM      9  N   UNL     1       8.615  10.556  17.699  0.00  0.00    +0.000 N 
ATOM     10  H   UNL     1       8.091  10.580  16.840  0.00  0.00    +0.000 HD
BRANCH   9  11
ATOM     11  C   UNL     1       9.324  11.757  18.088  0.00  0.00    +0.000 C 
BRANCH  11  12
ATOM     12  C   UNL     1      10.744  11.674  17.624  0.00  0.00    +0.000 C 
ATOM     13  C   UNL     1      11.560  12.933  17.467  0.00  0.00    +0.000 C 
ATOM     14  C   UNL     1      11.894  11.955  18.559  0.00  0.00    +0.000 C 
ENDBRANCH  11  12
ENDBRANCH   9  11
ENDBRANCH   4   7
BRANCH   1  15
ATOM     15  S   UNL     1       5.447   4.436  17.197  0.00  0.00    +0.000 S 
ATOM     16  O   UNL     1       6.221   3.565  16.343  0.00  0.00    +0.000 OA
ATOM     17  O   UNL     1       4.122   4.897  16.842  0.00  0.00    +0.000 OA
BRANCH  15  18
ATOM     18  N   UNL     1       5.339   3.724  18.730  0.00  0.00    +0.000 NA
ATOM     19  H   UNL     1       5.625   2.746  18.713  0.00  0.00    +0.000 HD
BRANCH  18  20
ATOM     20  C   UNL     1       4.092   3.970  19.493  0.00  0.00    +0.000 C 
BRANCH  20  26
ATOM     21  C   UNL     1       2.472   2.111  17.755  0.00  0.00    +0.000 C 
ATOM     22  N   UNL     1       2.325   2.115  19.200  0.00  0.00    +0.000 NA
ATOM     23  C   UNL     1       1.157   2.871  19.647  0.00  0.00    +0.000 C 
ATOM     24  C   UNL     1       1.349   2.920  21.152  0.00  0.00    +0.000 C 
ATOM     25  C   UNL     1       2.848   2.739  21.374  0.00  0.00    +0.000 C 
ATOM     26  C   UNL     1       3.469   2.630  19.972  0.00  0.00    +0.000 C 
ENDBRANCH  20  26
ENDBRANCH  18  20
ENDBRANCH  15  18
ENDBRANCH   1  15
TORSDOF 7
ENDMDL
MODEL 2
REMARK VINA RESULT:      -7.1      6.330      7.944
REMARK  Name = 
REMARK  8 active torsions:
REMARK  status: ('A' for Active; 'I' for Inactive)
REMARK    1  A    between atoms: C_1  and  N_2
REMARK    2  A    between atoms: C_6  and  C_7
REMARK    3  A    between atoms: C_7  and  N_8
REMARK    4  A    between atoms: N_8  and  S_9
REMARK    5  A    between atoms: S_9  and  C_12
REMARK    6  A    between atoms: C_15  and  C_16
REMARK    7  A    between atoms: N_18  and  C_19
REMARK    8  A    between atoms: C_19  and  C_20
REMARK                            x       y       z     vdW  Elec       q    Type
REMARK                         _______ _______ _______ _____ _____    ______ ____
ROOT
ATOM      1  C   UNL     1       1.927   7.864  19.496  0.00  0.00    +0.000 A 
ATOM      2  C   UNL     1       1.516   9.079  18.951  0.00  0.00    +0.000 A 
ATOM      3  C   UNL     1       0.835   9.993  19.762  0.00  0.00    +0.000 A 
ATOM      4  C   UNL     1       0.561   9.709  21.113  0.00  0.00    +0.000 A 
ATOM      5  C   UNL     1       0.955   8.468  21.635  0.00  0.00    +0.000 A 
ATOM      6  C   UNL     1       1.626   7.544  20.825  0.00  0.00    +0.000 A 
ENDROOT
BRANCH   4   7
ATOM      7  C   UNL     1      -0.122  10.775  21.914  0.00  0.00    +0.000 C 
ATOM      8  O   UNL     1      -0.142  10.689  23.139  0.00  0.00    +0.000 OA
ATOM      9  N   UNL     1      -0.725  11.822  21.247  0.00  0.00    +0.000 N 
ATOM     10  H   UNL     1      -0.705  11.901  20.244  0.00  0.00    +0.000 HD
BRANCH   9  11
ATOM     11  C   UNL     1      -1.443  12.838  21.988  0.00  0.00    +0.000 C 
BRANCH  11  12
ATOM     12  C   UNL     1      -2.844  12.379  22.241  0.00  0.00    +0.000 C 
ATOM     13  C   UNL     1      -3.401  12.390  23.642  0.00  0.00    +0.000 C 
ATOM     14  C   UNL     1      -3.935  13.351  22.617  0.00  0.00    +0.000 C 
ENDBRANCH  11  12
ENDBRANCH   9  11
ENDBRANCH   4   7
BRANCH   1  15
ATOM     15  S   UNL     1       2.834   6.696  18.505  0.00  0.00    +0.000 S 
ATOM     16  O   UNL     1       3.852   7.410  17.768  0.00  0.00    +0.000 OA
ATOM     17  O   UNL     1       1.846   5.861  17.856  0.00  0.00    +0.000 OA
BRANCH  15  18
ATOM     18  N   UNL     1       3.594   5.751  19.687  0.00  0.00    +0.000 NA
ATOM     19  H   UNL     1       4.310   6.277  20.188  0.00  0.00    +0.000 HD
BRANCH  18  20
ATOM     20  C   UNL     1       4.023   4.392  19.280  0.00  0.00    +0.000 C 
BRANCH  20  26
ATOM     21  C   UNL     1       3.467   1.551  18.431  0.00  0.00    +0.000 C 
ATOM     22  N   UNL     1       2.708   2.185  19.495  0.00  0.00    +0.000 NA
ATOM     23  C   UNL     1       1.407   2.675  19.047  0.00  0.00    +0.000 C 
ATOM     24  C   UNL     1       0.922   3.475  20.243  0.00  0.00    +0.000 C 
ATOM     25  C   UNL     1       2.186   3.874  21.000  0.00  0.00    +0.000 C 
ATOM     26  C   UNL     1       3.359   3.314  20.181  0.00  0.00    +0.000 C 
ENDBRANCH  20  26
ENDBRANCH  18  20
ENDBRANCH  15  18
ENDBRANCH   1  15
TORSDOF 7
ENDMDL
MODEL 3
REMARK VINA RESULT:      -7.1      4.475      6.502
REMARK  Name = 
REMARK  8 active torsions:
REMARK  status: ('A' for Active; 'I' for Inactive)
REMARK    1  A    between atoms: C_1  and  N_2
REMARK    2  A    between atoms: C_6  and  C_7
REMARK    3  A    between atoms: C_7  and  N_8
REMARK    4  A    between atoms: N_8  and  S_9
REMARK    5  A    between atoms: S_9  and  C_12
REMARK    6  A    between atoms: C_15  and  C_16
REMARK    7  A    between atoms: N_18  and  C_19
REMARK    8  A    between atoms: C_19  and  C_20
REMARK                            x       y       z     vdW  Elec       q    Type
REMARK                         _______ _______ _______ _____ _____    ______ ____
ROOT
ATOM      1  C   UNL     1       4.347   5.961  18.386  0.00  0.00    +0.000 A 
ATOM      2  C   UNL     1       4.396   6.825  17.294  0.00  0.00    +0.000 A 
ATOM      3  C   UNL     1       3.489   7.888  17.226  0.00  0.00    +0.000 A 
ATOM      4  C   UNL     1       2.534   8.100  18.237  0.00  0.00    +0.000 A 
ATOM      5  C   UNL     1       2.479   7.201  19.313  0.00  0.00    +0.000 A 
ATOM      6  C   UNL     1       3.376   6.128  19.381  0.00  0.00    +0.000 A 
ENDROOT
BRANCH   4   7
ATOM      7  C   UNL     1       1.644   9.298  18.104  0.00  0.00    +0.000 C 
ATOM      8  O   UNL     1       2.144  10.402  17.905  0.00  0.00    +0.000 OA
ATOM      9  N   UNL     1       0.279   9.127  18.223  0.00  0.00    +0.000 N 
ATOM     10  H   UNL     1      -0.136   8.224  18.380  0.00  0.00    +0.000 HD
BRANCH   9  11
ATOM     11  C   UNL     1      -0.604  10.272  18.157  0.00  0.00    +0.000 C 
BRANCH  11  12
ATOM     12  C   UNL     1      -1.688  10.013  17.159  0.00  0.00    +0.000 C 
ATOM     13  C   UNL     1      -3.105   9.793  17.625  0.00  0.00    +0.000 C 
ATOM     14  C   UNL     1      -2.752  11.043  16.869  0.00  0.00    +0.000 C 
ENDBRANCH  11  12
ENDBRANCH   9  11
ENDBRANCH   4   7
BRANCH   1  15
ATOM     15  S   UNL     1       5.515   4.625  18.527  0.00  0.00    +0.000 S 
ATOM     16  O   UNL     1       6.657   5.089  19.281  0.00  0.00    +0.000 OA
ATOM     17  O   UNL     1       5.636   4.052  17.203  0.00  0.00    +0.000 OA
BRANCH  15  18
ATOM     18  N   UNL     1       4.660   3.515  19.479  0.00  0.00    +0.000 NA
ATOM     19  H   UNL     1       5.288   2.923  20.023  0.00  0.00    +0.000 HD
BRANCH  18  20
ATOM     20  C   UNL     1       3.563   2.773  18.815  0.00  0.00    +0.000 C 
BRANCH  20  26
ATOM     21  C   UNL     1       0.584   2.396  18.520  0.00  0.00    +0.000 C 
ATOM     22  N   UNL     1       1.217   2.423  19.827  0.00  0.00    +0.000 NA
ATOM     23  C   UNL     1       1.085   3.717  20.493  0.00  0.00    +0.000 C 
ATOM     24  C   UNL     1       1.998   3.567  21.697  0.00  0.00    +0.000 C 
ATOM     25  C   UNL     1       3.005   2.488  21.307  0.00  0.00    +0.000 C 
ATOM     26  C   UNL     1       2.650   2.084  19.867  0.00  0.00    +0.000 C 
ENDBRANCH  20  26
ENDBRANCH  18  20
ENDBRANCH  15  18
ENDBRANCH   1  15
TORSDOF 7
ENDMDL
MODEL 4
REMARK VINA RESULT:      -7.1      4.400      7.114
REMARK  Name = 
REMARK  8 active torsions:
REMARK  status: ('A' for Active; 'I' for Inactive)
REMARK    1  A    between atoms: C_1  and  N_2
REMARK    2  A    between atoms: C_6  and  C_7
REMARK    3  A    between atoms: C_7  and  N_8
REMARK    4  A    between atoms: N_8  and  S_9
REMARK    5  A    between atoms: S_9  and  C_12
REMARK    6  A    between atoms: C_15  and  C_16
REMARK    7  A    between atoms: N_18  and  C_19
REMARK    8  A    between atoms: C_19  and  C_20
REMARK                            x       y       z     vdW  Elec       q    Type
REMARK                         _______ _______ _______ _____ _____    ______ ____
ROOT
ATOM      1  C   UNL     1       2.809   4.359  18.781  0.00  0.00    +0.000 A 
ATOM      2  C   UNL     1       2.743   5.440  17.905  0.00  0.00    +0.000 A 
ATOM      3  C   UNL     1       2.332   6.686  18.391  0.00  0.00    +0.000 A 
ATOM      4  C   UNL     1       1.986   6.866  19.743  0.00  0.00    +0.000 A 
ATOM      5  C   UNL     1       2.027   5.757  20.603  0.00  0.00    +0.000 A 
ATOM      6  C   UNL     1       2.426   4.505  20.119  0.00  0.00    +0.000 A 
ENDROOT
BRANCH   4   7
ATOM      7  C   UNL     1       1.614   8.249  20.180  0.00  0.00    +0.000 C 
ATOM      8  O   UNL     1       1.483   8.489  21.377  0.00  0.00    +0.000 OA
ATOM      9  N   UNL     1       1.413   9.217  19.216  0.00  0.00    +0.000 N 
ATOM     10  H   UNL     1       1.525   9.027  18.234  0.00  0.00    +0.000 HD
BRANCH   9  11
ATOM     11  C   UNL     1       0.995  10.549  19.601  0.00  0.00    +0.000 C 
BRANCH  11  12
ATOM     12  C   UNL     1      -0.063  11.035  18.662  0.00  0.00    +0.000 C 
ATOM     13  C   UNL     1      -0.931  10.045  17.926  0.00  0.00    +0.000 C 
ATOM     14  C   UNL     1      -1.528  10.914  18.998  0.00  0.00    +0.000 C 
ENDBRANCH  11  12
ENDBRANCH   9  11
ENDBRANCH   4   7
BRANCH   1  15
ATOM     15  S   UNL     1       3.370   2.770  18.206  0.00  0.00    +0.000 S 
ATOM     16  O   UNL     1       2.360   2.213  17.335  0.00  0.00    +0.000 OA
ATOM     17  O   UNL     1       3.865   2.070  19.371  0.00  0.00    +0.000 OA
BRANCH  15  18
ATOM     18  N   UNL     1       4.713   3.194  17.265  0.00  0.00    +0.000 NA
ATOM     19  H   UNL     1       5.185   2.373  16.889  0.00  0.00    +0.000 HD
BRANCH  18  20
ATOM     20  C   UNL     1       5.634   4.205  17.836  0.00  0.00    +0.000 C 
BRANCH  20  26
ATOM     21  C   UNL     1       6.357   7.090  17.331  0.00  0.00    +0.000 C 
ATOM     22  N   UNL     1       6.518   6.079  16.301  0.00  0.00    +0.000 NA
ATOM     23  C   UNL     1       5.426   6.082  15.329  0.00  0.00    +0.000 C 
ATOM     24  C   UNL     1       5.697   4.827  14.520  0.00  0.00    +0.000 C 
ATOM     25  C   UNL     1       6.515   3.924  15.439  0.00  0.00    +0.000 C 
ATOM     26  C   UNL     1       6.651   4.687  16.765  0.00  0.00    +0.000 C 
ENDBRANCH  20  26
ENDBRANCH  18  20
ENDBRANCH  15  18
ENDBRANCH   1  15
TORSDOF 7
ENDMDL
MODEL 5
REMARK VINA RESULT:      -7.1      4.412      7.250
REMARK  Name = 
REMARK  8 active torsions:
REMARK  status: ('A' for Active; 'I' for Inactive)
REMARK    1  A    between atoms: C_1  and  N_2
REMARK    2  A    between atoms: C_6  and  C_7
REMARK    3  A    between atoms: C_7  and  N_8
REMARK    4  A    between atoms: N_8  and  S_9
REMARK    5  A    between atoms: S_9  and  C_12
REMARK    6  A    between atoms: C_15  and  C_16
REMARK    7  A    between atoms: N_18  and  C_19
REMARK    8  A    between atoms: C_19  and  C_20
REMARK                            x       y       z     vdW  Elec       q    Type
REMARK                         _______ _______ _______ _____ _____    ______ ____
ROOT
ATOM      1  C   UNL     1       2.714   4.357  18.717  0.00  0.00    +0.000 A 
ATOM      2  C   UNL     1       2.414   4.543  20.065  0.00  0.00    +0.000 A 
ATOM      3  C   UNL     1       2.094   5.826  20.520  0.00  0.00    +0.000 A 
ATOM      4  C   UNL     1       2.068   6.927  19.645  0.00  0.00    +0.000 A 
ATOM      5  C   UNL     1       2.404   6.726  18.297  0.00  0.00    +0.000 A 
ATOM      6  C   UNL     1       2.737   5.445  17.838  0.00  0.00    +0.000 A 
ENDROOT
BRANCH   4   7
ATOM      7  C   UNL     1       1.658   8.250  20.215  0.00  0.00    +0.000 C 
ATOM      8  O   UNL     1       1.475   9.202  19.461  0.00  0.00    +0.000 OA
ATOM      9  N   UNL     1       1.509   8.365  21.583  0.00  0.00    +0.000 N 
ATOM     10  H   UNL     1       1.651   7.587  22.204  0.00  0.00    +0.000 HD
BRANCH   9  11
ATOM     11  C   UNL     1       1.171   9.644  22.171  0.00  0.00    +0.000 C 
BRANCH  11  12
ATOM     12  C   UNL     1      -0.302   9.878  22.051  0.00  0.00    +0.000 C 
ATOM     13  C   UNL     1      -1.077  10.425  23.223  0.00  0.00    +0.000 C 
ATOM     14  C   UNL     1      -0.875  11.273  21.999  0.00  0.00    +0.000 C 
ENDBRANCH  11  12
ENDBRANCH   9  11
ENDBRANCH   4   7
BRANCH   1  15
ATOM     15  S   UNL     1       3.083   2.730  18.096  0.00  0.00    +0.000 S 
ATOM     16  O   UNL     1       2.306   2.508  16.898  0.00  0.00    +0.000 OA
ATOM     17  O   UNL     1       3.028   1.839  19.235  0.00  0.00    +0.000 OA
BRANCH  15  18
ATOM     18  N   UNL     1       4.711   2.886  17.656  0.00  0.00    +0.000 NA
ATOM     19  H   UNL     1       5.263   2.087  17.965  0.00  0.00    +0.000 HD
BRANCH  18  20
ATOM     20  C   UNL     1       5.351   4.195  17.923  0.00  0.00    +0.000 C 
BRANCH  20  26
ATOM     21  C   UNL     1       6.406   6.955  17.315  0.00  0.00    +0.000 C 
ATOM     22  N   UNL     1       6.450   5.894  16.324  0.00  0.00    +0.000 NA
ATOM     23  C   UNL     1       5.368   5.987  15.347  0.00  0.00    +0.000 C 
ATOM     24  C   UNL     1       5.491   4.679  14.587  0.00  0.00    +0.000 C 
ATOM     25  C   UNL     1       6.197   3.722  15.543  0.00  0.00    +0.000 C 
ATOM     26  C   UNL     1       6.419   4.515  16.841  0.00  0.00    +0.000 C 
ENDBRANCH  20  26
ENDBRANCH  18  20
ENDBRANCH  15  18
ENDBRANCH   1  15
TORSDOF 7
ENDMDL
MODEL 6
REMARK VINA RESULT:      -7.1      4.561      7.067
REMARK  Name = 
REMARK  8 active torsions:
REMARK  status: ('A' for Active; 'I' for Inactive)
REMARK    1  A    between atoms: C_1  and  N_2
REMARK    2  A    between atoms: C_6  and  C_7
REMARK    3  A    between atoms: C_7  and  N_8
REMARK    4  A    between atoms: N_8  and  S_9
REMARK    5  A    between atoms: S_9  and  C_12
REMARK    6  A    between atoms: C_15  and  C_16
REMARK    7  A    between atoms: N_18  and  C_19
REMARK    8  A    between atoms: C_19  and  C_20
REMARK                            x       y       z     vdW  Elec       q    Type
REMARK                         _______ _______ _______ _____ _____    ______ ____
ROOT
ATOM      1  C   UNL     1       2.942   4.804  19.135  0.00  0.00    +0.000 A 
ATOM      2  C   UNL     1       2.656   5.633  20.218  0.00  0.00    +0.000 A 
ATOM      3  C   UNL     1       2.274   6.957  19.978  0.00  0.00    +0.000 A 
ATOM      4  C   UNL     1       2.171   7.463  18.670  0.00  0.00    +0.000 A 
ATOM      5  C   UNL     1       2.494   6.623  17.594  0.00  0.00    +0.000 A 
ATOM      6  C   UNL     1       2.889   5.300  17.827  0.00  0.00    +0.000 A 
ENDROOT
BRANCH   4   7
ATOM      7  C   UNL     1       1.698   8.876  18.514  0.00  0.00    +0.000 C 
ATOM      8  O   UNL     1       1.987   9.501  17.497  0.00  0.00    +0.000 OA
ATOM      9  N   UNL     1       0.958   9.443  19.531  0.00  0.00    +0.000 N 
ATOM     10  H   UNL     1       0.712   8.934  20.364  0.00  0.00    +0.000 HD
BRANCH   9  11
ATOM     11  C   UNL     1       0.534  10.825  19.438  0.00  0.00    +0.000 C 
BRANCH  11  12
ATOM     12  C   UNL     1      -0.945  10.884  19.228  0.00  0.00    +0.000 C 
ATOM     13  C   UNL     1      -1.552  12.023  18.448  0.00  0.00    +0.000 C 
ATOM     14  C   UNL     1      -1.558  10.635  17.872  0.00  0.00    +0.000 C 
ENDBRANCH  11  12
ENDBRANCH   9  11
ENDBRANCH   4   7
BRANCH   1  15
ATOM     15  S   UNL     1       3.389   3.101  19.401  0.00  0.00    +0.000 S 
ATOM     16  O   UNL     1       2.638   2.279  18.481  0.00  0.00    +0.000 OA
ATOM     17  O   UNL     1       3.359   2.894  20.833  0.00  0.00    +0.000 OA
BRANCH  15  18
ATOM     18  N   UNL     1       5.015   3.090  18.925  0.00  0.00    +0.000 NA
ATOM     19  H   UNL     1       5.530   2.324  19.360  0.00  0.00    +0.000 HD
BRANCH  18  20
ATOM     20  C   UNL     1       5.729   4.387  18.960  0.00  0.00    +0.000 C 
BRANCH  20  26
ATOM     21  C   UNL     1       7.846   6.518  18.686  0.00  0.00    +0.000 C 
ATOM     22  N   UNL     1       7.315   5.826  17.525  0.00  0.00    +0.000 NA
ATOM     23  C   UNL     1       6.303   6.606  16.816  0.00  0.00    +0.000 C 
ATOM     24  C   UNL     1       5.754   5.606  15.814  0.00  0.00    +0.000 C 
ATOM     25  C   UNL     1       6.043   4.233  16.415  0.00  0.00    +0.000 C 
ATOM     26  C   UNL     1       6.719   4.501  17.768  0.00  0.00    +0.000 C 
ENDBRANCH  20  26
ENDBRANCH  18  20
ENDBRANCH  15  18
ENDBRANCH   1  15
TORSDOF 7
ENDMDL
MODEL 7
REMARK VINA RESULT:      -7.1      6.180      8.291
REMARK  Name = 
REMARK  8 active torsions:
REMARK  status: ('A' for Active; 'I' for Inactive)
REMARK    1  A    between atoms: C_1  and  N_2
REMARK    2  A    between atoms: C_6  and  C_7
REMARK    3  A    between atoms: C_7  and  N_8
REMARK    4  A    between atoms: N_8  and  S_9
REMARK    5  A    between atoms: S_9  and  C_12
REMARK    6  A    between atoms: C_15  and  C_16
REMARK    7  A    between atoms: N_18  and  C_19
REMARK    8  A    between atoms: C_19  and  C_20
REMARK                            x       y       z     vdW  Elec       q    Type
REMARK                         _______ _______ _______ _____ _____    ______ ____
ROOT
ATOM      1  C   UNL     1       1.689   7.560  20.340  0.00  0.00    +0.000 A 
ATOM      2  C   UNL     1       1.844   6.246  20.776  0.00  0.00    +0.000 A 
ATOM      3  C   UNL     1       2.551   5.342  19.977  0.00  0.00    +0.000 A 
ATOM      4  C   UNL     1       3.109   5.734  18.747  0.00  0.00    +0.000 A 
ATOM      5  C   UNL     1       2.916   7.053  18.309  0.00  0.00    +0.000 A 
ATOM      6  C   UNL     1       2.198   7.960  19.098  0.00  0.00    +0.000 A 
ENDROOT
BRANCH   4   7
ATOM      7  C   UNL     1       3.899   4.710  17.991  0.00  0.00    +0.000 C 
ATOM      8  O   UNL     1       4.077   3.600  18.484  0.00  0.00    +0.000 OA
ATOM      9  N   UNL     1       4.419   5.051  16.758  0.00  0.00    +0.000 N 
ATOM     10  H   UNL     1       4.270   5.957  16.346  0.00  0.00    +0.000 HD
BRANCH   9  11
ATOM     11  C   UNL     1       5.235   4.105  16.027  0.00  0.00    +0.000 C 
BRANCH  11  12
ATOM     12  C   UNL     1       5.630   4.694  14.710  0.00  0.00    +0.000 C 
ATOM     13  C   UNL     1       7.087   4.790  14.334  0.00  0.00    +0.000 C 
ATOM     14  C   UNL     1       6.186   3.837  13.600  0.00  0.00    +0.000 C 
ENDBRANCH  11  12
ENDBRANCH   9  11
ENDBRANCH   4   7
BRANCH   1  15
ATOM     15  S   UNL     1       0.832   8.748  21.351  0.00  0.00    +0.000 S 
ATOM     16  O   UNL     1       1.736   9.216  22.377  0.00  0.00    +0.000 OA
ATOM     17  O   UNL     1      -0.456   8.164  21.657  0.00  0.00    +0.000 OA
BRANCH  15  18
ATOM     18  N   UNL     1       0.566  10.011  20.255  0.00  0.00    +0.000 NA
ATOM     19  H   UNL     1       0.997  10.880  20.569  0.00  0.00    +0.000 HD
BRANCH  18  20
ATOM     20  C   UNL     1      -0.818  10.177  19.752  0.00  0.00    +0.000 C 
BRANCH  20  26
ATOM     21  C   UNL     1      -1.179  13.073  18.992  0.00  0.00    +0.000 C 
ATOM     22  N   UNL     1      -1.488  12.003  18.060  0.00  0.00    +0.000 NA
ATOM     23  C   UNL     1      -2.917  11.707  17.992  0.00  0.00    +0.000 C 
ATOM     24  C   UNL     1      -2.955  10.440  17.155  0.00  0.00    +0.000 C 
ATOM     25  C   UNL     1      -1.580   9.802  17.327  0.00  0.00    +0.000 C 
ATOM     26  C   UNL     1      -0.812  10.716  18.295  0.00  0.00    +0.000 C 
ENDBRANCH  20  26
ENDBRANCH  18  20
ENDBRANCH  15  18
ENDBRANCH   1  15
TORSDOF 7
ENDMDL
MODEL 8
REMARK VINA RESULT:      -7.1      4.644      7.136
REMARK  Name = 
REMARK  8 active torsions:
REMARK  status: ('A' for Active; 'I' for Inactive)
REMARK    1  A    between atoms: C_1  and  N_2
REMARK    2  A    between atoms: C_6  and  C_7
REMARK    3  A    between atoms: C_7  and  N_8
REMARK    4  A    between atoms: N_8  and  S_9
REMARK    5  A    between atoms: S_9  and  C_12
REMARK    6  A    between atoms: C_15  and  C_16
REMARK    7  A    between atoms: N_18  and  C_19
REMARK    8  A    between atoms: C_19  and  C_20
REMARK                            x       y       z     vdW  Elec       q    Type
REMARK                         _______ _______ _______ _____ _____    ______ ____
ROOT
ATOM      1  C   UNL     1       3.096   4.796  19.069  0.00  0.00    +0.000 A 
ATOM      2  C   UNL     1       2.652   5.208  20.324  0.00  0.00    +0.000 A 
ATOM      3  C   UNL     1       2.136   6.500  20.472  0.00  0.00    +0.000 A 
ATOM      4  C   UNL     1       2.056   7.386  19.382  0.00  0.00    +0.000 A 
ATOM      5  C   UNL     1       2.539   6.964  18.133  0.00  0.00    +0.000 A 
ATOM      6  C   UNL     1       3.068   5.676  17.981  0.00  0.00    +0.000 A 
ENDROOT
BRANCH   4   7
ATOM      7  C   UNL     1       1.435   8.726  19.628  0.00  0.00    +0.000 C 
ATOM      8  O   UNL     1       1.152   9.059  20.775  0.00  0.00    +0.000 OA
ATOM      9  N   UNL     1       1.184   9.549  18.548  0.00  0.00    +0.000 N 
ATOM     10  H   UNL     1       1.420   9.283  17.606  0.00  0.00    +0.000 HD
BRANCH   9  11
ATOM     11  C   UNL     1       0.532  10.827  18.744  0.00  0.00    +0.000 C 
BRANCH  11  12
ATOM     12  C   UNL     1      -0.934  10.688  18.481  0.00  0.00    +0.000 C 
ATOM     13  C   UNL     1      -1.922  11.516  19.263  0.00  0.00    +0.000 C 
ATOM     14  C   UNL     1      -1.717  11.782  17.798  0.00  0.00    +0.000 C 
ENDBRANCH  11  12
ENDBRANCH   9  11
ENDBRANCH   4   7
BRANCH   1  15
ATOM     15  S   UNL     1       3.719   3.145  18.835  0.00  0.00    +0.000 S 
ATOM     16  O   UNL     1       3.301   2.676  17.534  0.00  0.00    +0.000 OA
ATOM     17  O   UNL     1       3.423   2.424  20.054  0.00  0.00    +0.000 OA
BRANCH  15  18
ATOM     18  N   UNL     1       5.392   3.405  18.797  0.00  0.00    +0.000 NA
ATOM     19  H   UNL     1       5.857   2.985  19.602  0.00  0.00    +0.000 HD
BRANCH  18  20
ATOM     20  C   UNL     1       5.845   4.783  18.495  0.00  0.00    +0.000 C 
BRANCH  20  26
ATOM     21  C   UNL     1       7.299   7.212  17.453  0.00  0.00    +0.000 C 
ATOM     22  N   UNL     1       6.954   6.105  16.579  0.00  0.00    +0.000 NA
ATOM     23  C   UNL     1       5.755   6.362  15.785  0.00  0.00    +0.000 C 
ATOM     24  C   UNL     1       5.480   5.012  15.149  0.00  0.00    +0.000 C 
ATOM     25  C   UNL     1       6.143   3.990  16.069  0.00  0.00    +0.000 C 
ATOM     26  C   UNL     1       6.745   4.799  17.228  0.00  0.00    +0.000 C 
ENDBRANCH  20  26
ENDBRANCH  18  20
ENDBRANCH  15  18
ENDBRANCH   1  15
TORSDOF 7
ENDMDL
MODEL 9
REMARK VINA RESULT:      -7.0      4.194      6.705
REMARK  Name = 
REMARK  8 active torsions:
REMARK  status: ('A' for Active; 'I' for Inactive)
REMARK    1  A    between atoms: C_1  and  N_2
REMARK    2  A    between atoms: C_6  and  C_7
REMARK    3  A    between atoms: C_7  and  N_8
REMARK    4  A    between atoms: N_8  and  S_9
REMARK    5  A    between atoms: S_9  and  C_12
REMARK    6  A    between atoms: C_15  and  C_16
REMARK    7  A    between atoms: N_18  and  C_19
REMARK    8  A    between atoms: C_19  and  C_20
REMARK                            x       y       z     vdW  Elec       q    Type
REMARK                         _______ _______ _______ _____ _____    ______ ____
ROOT
ATOM      1  C   UNL     1       2.818   4.383  19.013  0.00  0.00    +0.000 A 
ATOM      2  C   UNL     1       2.833   5.491  18.168  0.00  0.00    +0.000 A 
ATOM      3  C   UNL     1       2.378   6.722  18.652  0.00  0.00    +0.000 A 
ATOM      4  C   UNL     1       1.908   6.861  19.971  0.00  0.00    +0.000 A 
ATOM      5  C   UNL     1       1.870   5.727  20.796  0.00  0.00    +0.000 A 
ATOM      6  C   UNL     1       2.313   4.489  20.314  0.00  0.00    +0.000 A 
ENDROOT
BRANCH   4   7
ATOM      7  C   UNL     1       1.495   8.231  20.414  0.00  0.00    +0.000 C 
ATOM      8  O   UNL     1       1.348   8.460  21.611  0.00  0.00    +0.000 OA
ATOM      9  N   UNL     1       1.278   9.200  19.455  0.00  0.00    +0.000 N 
ATOM     10  H   UNL     1       1.403   9.020  18.473  0.00  0.00    +0.000 HD
BRANCH   9  11
ATOM     11  C   UNL     1       0.822  10.518  19.845  0.00  0.00    +0.000 C 
BRANCH  11  12
ATOM     12  C   UNL     1       1.232  11.518  18.810  0.00  0.00    +0.000 C 
ATOM     13  C   UNL     1       0.499  12.831  18.698  0.00  0.00    +0.000 C 
ATOM     14  C   UNL     1       1.919  12.806  19.190  0.00  0.00    +0.000 C 
ENDBRANCH  11  12
ENDBRANCH   9  11
ENDBRANCH   4   7
BRANCH   1  15
ATOM     15  S   UNL     1       3.431   2.812  18.444  0.00  0.00    +0.000 S 
ATOM     16  O   UNL     1       2.393   2.163  17.678  0.00  0.00    +0.000 OA
ATOM     17  O   UNL     1       4.063   2.186  19.586  0.00  0.00    +0.000 OA
BRANCH  15  18
ATOM     18  N   UNL     1       4.664   3.283  17.382  0.00  0.00    +0.000 NA
ATOM     19  H   UNL     1       4.931   2.525  16.754  0.00  0.00    +0.000 HD
BRANCH  18  20
ATOM     20  C   UNL     1       5.816   4.002  17.975  0.00  0.00    +0.000 C 
BRANCH  20  26
ATOM     21  C   UNL     1       7.716   6.286  18.498  0.00  0.00    +0.000 C 
ATOM     22  N   UNL     1       7.078   6.114  17.205  0.00  0.00    +0.000 NA
ATOM     23  C   UNL     1       5.923   6.990  17.023  0.00  0.00    +0.000 C 
ATOM     24  C   UNL     1       5.312   6.472  15.733  0.00  0.00    +0.000 C 
ATOM     25  C   UNL     1       5.780   5.024  15.618  0.00  0.00    +0.000 C 
ATOM     26  C   UNL     1       6.618   4.753  16.877  0.00  0.00    +0.000 C 
ENDBRANCH  20  26
ENDBRANCH  18  20
ENDBRANCH  15  18
ENDBRANCH   1  15
TORSDOF 7
ENDMDL
