MODEL 1
REMARK VINA RESULT:      -6.0      0.000      0.000
REMARK  Name = 
REMARK  5 active torsions:
REMARK  status: ('A' for Active; 'I' for Inactive)
REMARK    1  A    between atoms: C_5  and  C_6
REMARK    2  A    between atoms: C_6  and  C_7
REMARK    3  A    between atoms: C_7  and  N_8
REMARK    4  A    between atoms: N_8  and  C_9
REMARK    5  A    between atoms: C_9  and  C_10
REMARK                            x       y       z     vdW  Elec       q    Type
REMARK                         _______ _______ _______ _____ _____    ______ ____
ROOT
ATOM      1  N   UNL     1       3.062   2.196  19.678  0.00  0.00    +0.000 NA
ATOM      2  H   UNL     1       3.370   1.427  20.273  0.00  0.00    +0.000 HD
ENDROOT
BRANCH   1   3
ATOM      3  C   UNL     1       1.604   2.144  19.505  0.00  0.00    +0.000 C 
BRANCH   3   4
ATOM      4  C   UNL     1       0.869   3.379  20.052  0.00  0.00    +0.000 C 
BRANCH   4   9
ATOM      5  F   UNL     1       3.152   8.185  18.208  0.00  0.00    +0.000 F 
ATOM      6  C   UNL     1       2.585   7.053  18.647  0.00  0.00    +0.000 A 
ATOM      7  C   UNL     1       2.455   6.838  20.011  0.00  0.00    +0.000 A 
ATOM      8  C   UNL     1       1.879   5.652  20.468  0.00  0.00    +0.000 A 
ATOM      9  C   UNL     1       1.441   4.680  19.553  0.00  0.00    +0.000 A 
ATOM     10  C   UNL     1       1.566   4.921  18.178  0.00  0.00    +0.000 A 
ATOM     11  C   UNL     1       2.142   6.108  17.725  0.00  0.00    +0.000 A 
ENDBRANCH   4   9
ENDBRANCH   3   4
ENDBRANCH   1   3
BRANCH   1  12
ATOM     12  C   UNL     1       3.769   2.130  18.400  0.00  0.00    +0.000 C 
BRANCH  12  13
ATOM     13  C   UNL     1       4.609   3.358  18.149  0.00  0.00    +0.000 A 
ATOM     14  C   UNL     1       4.787   3.835  16.839  0.00  0.00    +0.000 A 
ATOM     15  C   UNL     1       5.511   5.003  16.601  0.00  0.00    +0.000 A 
ATOM     16  C   UNL     1       6.067   5.698  17.671  0.00  0.00    +0.000 A 
ATOM     17 BR   UNL     1       7.031   7.293  17.350  0.00  0.00    +0.000 Br
ATOM     18  C   UNL     1       5.912   5.233  18.976  0.00  0.00    +0.000 A 
ATOM     19  C   UNL     1       5.185   4.064  19.213  0.00  0.00    +0.000 A 
ENDBRANCH  12  13
ENDBRANCH   1  12
TORSDOF 5
ENDMDL
MODEL 2
REMARK VINA RESULT:      -5.8      3.028      4.820
REMARK  Name = 
REMARK  5 active torsions:
REMARK  status: ('A' for Active; 'I' for Inactive)
REMARK    1  A    between atoms: C_5  and  C_6
REMARK    2  A    between atoms: C_6  and  C_7
REMARK    3  A    between atoms: C_7  and  N_8
REMARK    4  A    between atoms: N_8  and  C_9
REMARK    5  A    between atoms: C_9  and  C_10
REMARK                            x       y       z     vdW  Elec       q    Type
REMARK                         _______ _______ _______ _____ _____    ______ ____
ROOT
ATOM      1  N   UNL     1       4.495   4.945  17.803  0.00  0.00    +0.000 NA
ATOM      2  H   UNL     1       5.508   4.947  17.919  0.00  0.00    +0.000 HD
ENDROOT
BRANCH   1   3
ATOM      3  C   UNL     1       4.102   3.904  16.843  0.00  0.00    +0.000 C 
BRANCH   3   4
ATOM      4  C   UNL     1       3.862   2.527  17.484  0.00  0.00    +0.000 C 
BRANCH   4   9
ATOM      5  F   UNL     1       0.867   2.931  22.234  0.00  0.00    +0.000 F 
ATOM      6  C   UNL     1       1.578   2.809  21.105  0.00  0.00    +0.000 A 
ATOM      7  C   UNL     1       2.955   2.661  21.177  0.00  0.00    +0.000 A 
ATOM      8  C   UNL     1       3.696   2.549  20.000  0.00  0.00    +0.000 A 
ATOM      9  C   UNL     1       3.052   2.595  18.752  0.00  0.00    +0.000 A 
ATOM     10  C   UNL     1       1.658   2.729  18.699  0.00  0.00    +0.000 A 
ATOM     11  C   UNL     1       0.921   2.839  19.878  0.00  0.00    +0.000 A 
ENDBRANCH   4   9
ENDBRANCH   3   4
ENDBRANCH   1   3
BRANCH   1  12
ATOM     12  C   UNL     1       4.054   6.275  17.382  0.00  0.00    +0.000 C 
BRANCH  12  13
ATOM     13  C   UNL     1       3.086   6.891  18.361  0.00  0.00    +0.000 A 
ATOM     14  C   UNL     1       2.729   6.198  19.530  0.00  0.00    +0.000 A 
ATOM     15  C   UNL     1       1.881   6.782  20.471  0.00  0.00    +0.000 A 
ATOM     16  C   UNL     1       1.381   8.062  20.246  0.00  0.00    +0.000 A 
ATOM     17 BR   UNL     1       0.249   8.862  21.532  0.00  0.00    +0.000 Br
ATOM     18  C   UNL     1       1.714   8.758  19.085  0.00  0.00    +0.000 A 
ATOM     19  C   UNL     1       2.564   8.173  18.145  0.00  0.00    +0.000 A 
ENDBRANCH  12  13
ENDBRANCH   1  12
TORSDOF 5
ENDMDL
MODEL 3
REMARK VINA RESULT:      -5.8      1.023      1.911
REMARK  Name = 
REMARK  5 active torsions:
REMARK  status: ('A' for Active; 'I' for Inactive)
REMARK    1  A    between atoms: C_5  and  C_6
REMARK    2  A    between atoms: C_6  and  C_7
REMARK    3  A    between atoms: C_7  and  N_8
REMARK    4  A    between atoms: N_8  and  C_9
REMARK    5  A    between atoms: C_9  and  C_10
REMARK                            x       y       z     vdW  Elec       q    Type
REMARK                         _______ _______ _______ _____ _____    ______ ____
ROOT
ATOM      1  N   UNL     1       3.295   2.571  21.130  0.00  0.00    +0.000 NA
ATOM      2  H   UNL     1       3.341   2.037  21.998  0.00  0.00    +0.000 HD
ENDROOT
BRANCH   1   3
ATOM      3  C   UNL     1       1.985   2.383  20.492  0.00  0.00    +0.000 C 
BRANCH   3   4
ATOM      4  C   UNL     1       1.043   3.588  20.641  0.00  0.00    +0.000 C 
BRANCH   4   9
ATOM      5  F   UNL     1       2.660   8.193  17.833  0.00  0.00    +0.000 F 
ATOM      6  C   UNL     1       2.300   7.087  18.500  0.00  0.00    +0.000 A 
ATOM      7  C   UNL     1       1.900   5.963  17.794  0.00  0.00    +0.000 A 
ATOM      8  C   UNL     1       1.510   4.818  18.490  0.00  0.00    +0.000 A 
ATOM      9  C   UNL     1       1.515   4.808  19.895  0.00  0.00    +0.000 A 
ATOM     10  C   UNL     1       1.937   5.948  20.591  0.00  0.00    +0.000 A 
ATOM     11  C   UNL     1       2.327   7.090  19.892  0.00  0.00    +0.000 A 
ENDBRANCH   4   9
ENDBRANCH   3   4
ENDBRANCH   1   3
BRANCH   1  12
ATOM     12  C   UNL     1       4.396   2.166  20.256  0.00  0.00    +0.000 C 
BRANCH  12  13
ATOM     13  C   UNL     1       4.601   3.129  19.113  0.00  0.00    +0.000 A 
ATOM     14  C   UNL     1       5.178   4.389  19.348  0.00  0.00    +0.000 A 
ATOM     15  C   UNL     1       5.427   5.264  18.291  0.00  0.00    +0.000 A 
ATOM     16  C   UNL     1       5.096   4.887  16.993  0.00  0.00    +0.000 A 
ATOM     17 BR   UNL     1       5.454   6.065  15.558  0.00  0.00    +0.000 Br
ATOM     18  C   UNL     1       4.511   3.646  16.743  0.00  0.00    +0.000 A 
ATOM     19  C   UNL     1       4.264   2.770  17.801  0.00  0.00    +0.000 A 
ENDBRANCH  12  13
ENDBRANCH   1  12
TORSDOF 5
ENDMDL
MODEL 4
REMARK VINA RESULT:      -5.7      2.760      5.185
REMARK  Name = 
REMARK  5 active torsions:
REMARK  status: ('A' for Active; 'I' for Inactive)
REMARK    1  A    between atoms: C_5  and  C_6
REMARK    2  A    between atoms: C_6  and  C_7
REMARK    3  A    between atoms: C_7  and  N_8
REMARK    4  A    between atoms: N_8  and  C_9
REMARK    5  A    between atoms: C_9  and  C_10
REMARK                            x       y       z     vdW  Elec       q    Type
REMARK                         _______ _______ _______ _____ _____    ______ ____
ROOT
ATOM      1  N   UNL     1       3.101   4.324  17.666  0.00  0.00    +0.000 NA
ATOM      2  H   UNL     1       2.249   3.766  17.728  0.00  0.00    +0.000 HD
ENDROOT
BRANCH   1   3
ATOM      3  C   UNL     1       4.236   3.469  17.294  0.00  0.00    +0.000 C 
BRANCH   3   4
ATOM      4  C   UNL     1       5.215   4.131  16.310  0.00  0.00    +0.000 C 
BRANCH   4   9
ATOM      5  F   UNL     1       8.613   7.816  18.873  0.00  0.00    +0.000 F 
ATOM      6  C   UNL     1       7.822   6.935  18.245  0.00  0.00    +0.000 A 
ATOM      7  C   UNL     1       6.969   7.375  17.243  0.00  0.00    +0.000 A 
ATOM      8  C   UNL     1       6.136   6.460  16.600  0.00  0.00    +0.000 A 
ATOM      9  C   UNL     1       6.155   5.105  16.970  0.00  0.00    +0.000 A 
ATOM     10  C   UNL     1       7.034   4.676  17.973  0.00  0.00    +0.000 A 
ATOM     11  C   UNL     1       7.866   5.593  18.613  0.00  0.00    +0.000 A 
ENDBRANCH   4   9
ENDBRANCH   3   4
ENDBRANCH   1   3
BRANCH   1  12
ATOM     12  C   UNL     1       3.322   5.007  18.941  0.00  0.00    +0.000 C 
BRANCH  12  13
ATOM     13  C   UNL     1       2.699   6.382  18.966  0.00  0.00    +0.000 A 
ATOM     14  C   UNL     1       2.089   6.857  20.139  0.00  0.00    +0.000 A 
ATOM     15  C   UNL     1       1.563   8.148  20.193  0.00  0.00    +0.000 A 
ATOM     16  C   UNL     1       1.640   8.969  19.072  0.00  0.00    +0.000 A 
ATOM     17 BR   UNL     1       0.946  10.726  19.152  0.00  0.00    +0.000 Br
ATOM     18  C   UNL     1       2.230   8.509  17.896  0.00  0.00    +0.000 A 
ATOM     19  C   UNL     1       2.758   7.218  17.844  0.00  0.00    +0.000 A 
ENDBRANCH  12  13
ENDBRANCH   1  12
TORSDOF 5
ENDMDL
MODEL 5
REMARK VINA RESULT:      -5.7      3.155      5.247
REMARK  Name = 
REMARK  5 active torsions:
REMARK  status: ('A' for Active; 'I' for Inactive)
REMARK    1  A    between atoms: C_5  and  C_6
REMARK    2  A    between atoms: C_6  and  C_7
REMARK    3  A    between atoms: C_7  and  N_8
REMARK    4  A    between atoms: N_8  and  C_9
REMARK    5  A    between atoms: C_9  and  C_10
REMARK                            x       y       z     vdW  Elec       q    Type
REMARK                         _______ _______ _______ _____ _____    ______ ____
ROOT
ATOM      1  N   UNL     1       4.335   6.325  18.012  0.00  0.00    +0.000 NA
ATOM      2  H   UNL     1       5.096   6.842  18.452  0.00  0.00    +0.000 HD
ENDROOT
BRANCH   1   3
ATOM      3  C   UNL     1       4.861   5.473  16.937  0.00  0.00    +0.000 C 
BRANCH   3   4
ATOM      4  C   UNL     1       4.120   4.135  16.786  0.00  0.00    +0.000 C 
BRANCH   4   9
ATOM      5  F   UNL     1       0.985   2.972  21.316  0.00  0.00    +0.000 F 
ATOM      6  C   UNL     1       1.730   3.223  20.231  0.00  0.00    +0.000 A 
ATOM      7  C   UNL     1       3.108   3.079  20.298  0.00  0.00    +0.000 A 
ATOM      8  C   UNL     1       3.883   3.356  19.173  0.00  0.00    +0.000 A 
ATOM      9  C   UNL     1       3.274   3.786  17.982  0.00  0.00    +0.000 A 
ATOM     10  C   UNL     1       1.879   3.911  17.927  0.00  0.00    +0.000 A 
ATOM     11  C   UNL     1       1.107   3.632  19.054  0.00  0.00    +0.000 A 
ENDBRANCH   4   9
ENDBRANCH   3   4
ENDBRANCH   1   3
BRANCH   1  12
ATOM     12  C   UNL     1       3.331   7.270  17.523  0.00  0.00    +0.000 C 
BRANCH  12  13
ATOM     13  C   UNL     1       2.436   7.774  18.629  0.00  0.00    +0.000 A 
ATOM     14  C   UNL     1       2.321   7.050  19.828  0.00  0.00    +0.000 A 
ATOM     15  C   UNL     1       1.544   7.537  20.879  0.00  0.00    +0.000 A 
ATOM     16  C   UNL     1       0.873   8.748  20.735  0.00  0.00    +0.000 A 
ATOM     17 BR   UNL     1      -0.163   9.417  22.169  0.00  0.00    +0.000 Br
ATOM     18  C   UNL     1       0.965   9.472  19.548  0.00  0.00    +0.000 A 
ATOM     19  C   UNL     1       1.745   8.986  18.497  0.00  0.00    +0.000 A 
ENDBRANCH  12  13
ENDBRANCH   1  12
TORSDOF 5
ENDMDL
MODEL 6
REMARK VINA RESULT:      -5.7      2.689      4.969
REMARK  Name = 
REMARK  5 active torsions:
REMARK  status: ('A' for Active; 'I' for Inactive)
REMARK    1  A    between atoms: C_5  and  C_6
REMARK    2  A    between atoms: C_6  and  C_7
REMARK    3  A    between atoms: C_7  and  N_8
REMARK    4  A    between atoms: N_8  and  C_9
REMARK    5  A    between atoms: C_9  and  C_10
REMARK                            x       y       z     vdW  Elec       q    Type
REMARK                         _______ _______ _______ _____ _____    ______ ____
ROOT
ATOM      1  N   UNL     1       3.123   4.226  17.493  0.00  0.00    +0.000 NA
ATOM      2  H   UNL     1       2.251   3.730  17.308  0.00  0.00    +0.000 HD
ENDROOT
BRANCH   1   3
ATOM      3  C   UNL     1       4.268   3.361  17.180  0.00  0.00    +0.000 C 
BRANCH   3   4
ATOM      4  C   UNL     1       5.315   4.022  16.269  0.00  0.00    +0.000 C 
BRANCH   4   9
ATOM      5  F   UNL     1       8.606   7.796  18.844  0.00  0.00    +0.000 F 
ATOM      6  C   UNL     1       7.803   6.902  18.248  0.00  0.00    +0.000 A 
ATOM      7  C   UNL     1       7.789   5.590  18.698  0.00  0.00    +0.000 A 
ATOM      8  C   UNL     1       6.965   4.658  18.067  0.00  0.00    +0.000 A 
ATOM      9  C   UNL     1       6.162   5.044  16.980  0.00  0.00    +0.000 A 
ATOM     10  C   UNL     1       6.179   6.377  16.550  0.00  0.00    +0.000 A 
ATOM     11  C   UNL     1       7.002   7.307  17.183  0.00  0.00    +0.000 A 
ENDBRANCH   4   9
ENDBRANCH   3   4
ENDBRANCH   1   3
BRANCH   1  12
ATOM     12  C   UNL     1       3.137   4.676  18.885  0.00  0.00    +0.000 C 
BRANCH  12  13
ATOM     13  C   UNL     1       2.648   6.096  19.030  0.00  0.00    +0.000 A 
ATOM     14  C   UNL     1       2.640   6.956  17.919  0.00  0.00    +0.000 A 
ATOM     15  C   UNL     1       2.135   8.251  18.028  0.00  0.00    +0.000 A 
ATOM     16  C   UNL     1       1.640   8.697  19.251  0.00  0.00    +0.000 A 
ATOM     17 BR   UNL     1       0.937  10.446  19.392  0.00  0.00    +0.000 Br
ATOM     18  C   UNL     1       1.653   7.862  20.367  0.00  0.00    +0.000 A 
ATOM     19  C   UNL     1       2.157   6.564  20.256  0.00  0.00    +0.000 A 
ENDBRANCH  12  13
ENDBRANCH   1  12
TORSDOF 5
ENDMDL
MODEL 7
REMARK VINA RESULT:      -5.6      1.063      2.063
REMARK  Name = 
REMARK  5 active torsions:
REMARK  status: ('A' for Active; 'I' for Inactive)
REMARK    1  A    between atoms: C_5  and  C_6
REMARK    2  A    between atoms: C_6  and  C_7
REMARK    3  A    between atoms: C_7  and  N_8
REMARK    4  A    between atoms: N_8  and  C_9
REMARK    5  A    between atoms: C_9  and  C_10
REMARK                            x       y       z     vdW  Elec       q    Type
REMARK                         _______ _______ _______ _____ _____    ______ ____
ROOT
ATOM      1  N   UNL     1       2.526   2.582  19.497  0.00  0.00    +0.000 NA
ATOM      2  H   UNL     1       1.963   1.742  19.627  0.00  0.00    +0.000 HD
ENDROOT
BRANCH   1   3
ATOM      3  C   UNL     1       1.656   3.764  19.422  0.00  0.00    +0.000 C 
BRANCH   3   4
ATOM      4  C   UNL     1       1.941   4.815  20.506  0.00  0.00    +0.000 C 
BRANCH   4   9
ATOM      5  F   UNL     1       1.749  10.065  18.480  0.00  0.00    +0.000 F 
ATOM      6  C   UNL     1       1.820   8.820  18.970  0.00  0.00    +0.000 A 
ATOM      7  C   UNL     1       2.303   7.796  18.169  0.00  0.00    +0.000 A 
ATOM      8  C   UNL     1       2.361   6.497  18.675  0.00  0.00    +0.000 A 
ATOM      9  C   UNL     1       1.926   6.228  19.983  0.00  0.00    +0.000 A 
ATOM     10  C   UNL     1       1.455   7.277  20.784  0.00  0.00    +0.000 A 
ATOM     11  C   UNL     1       1.400   8.574  20.275  0.00  0.00    +0.000 A 
ENDBRANCH   4   9
ENDBRANCH   3   4
ENDBRANCH   1   3
BRANCH   1  12
ATOM     12  C   UNL     1       3.351   2.430  18.299  0.00  0.00    +0.000 C 
BRANCH  12  13
ATOM     13  C   UNL     1       4.289   3.595  18.100  0.00  0.00    +0.000 A 
ATOM     14  C   UNL     1       5.111   4.027  19.154  0.00  0.00    +0.000 A 
ATOM     15  C   UNL     1       6.023   5.064  18.964  0.00  0.00    +0.000 A 
ATOM     16  C   UNL     1       6.115   5.680  17.719  0.00  0.00    +0.000 A 
ATOM     17 BR   UNL     1       7.368   7.072  17.456  0.00  0.00    +0.000 Br
ATOM     18  C   UNL     1       5.298   5.274  16.665  0.00  0.00    +0.000 A 
ATOM     19  C   UNL     1       4.386   4.234  16.856  0.00  0.00    +0.000 A 
ENDBRANCH  12  13
ENDBRANCH   1  12
TORSDOF 5
ENDMDL
MODEL 8
REMARK VINA RESULT:      -5.6      2.576      3.916
REMARK  Name = 
REMARK  5 active torsions:
REMARK  status: ('A' for Active; 'I' for Inactive)
REMARK    1  A    between atoms: C_5  and  C_6
REMARK    2  A    between atoms: C_6  and  C_7
REMARK    3  A    between atoms: C_7  and  N_8
REMARK    4  A    between atoms: N_8  and  C_9
REMARK    5  A    between atoms: C_9  and  C_10
REMARK                            x       y       z     vdW  Elec       q    Type
REMARK                         _______ _______ _______ _____ _____    ______ ____
ROOT
ATOM      1  N   UNL     1       2.910   5.872  20.018  0.00  0.00    +0.000 NA
ATOM      2  H   UNL     1       3.413   4.997  19.871  0.00  0.00    +0.000 HD
ENDROOT
BRANCH   1   3
ATOM      3  C   UNL     1       1.661   5.618  20.748  0.00  0.00    +0.000 C 
BRANCH   3   4
ATOM      4  C   UNL     1       1.472   4.150  21.163  0.00  0.00    +0.000 C 
BRANCH   4   9
ATOM      5  F   UNL     1       4.128   0.639  17.654  0.00  0.00    +0.000 F 
ATOM      6  C   UNL     1       3.485   1.454  18.502  0.00  0.00    +0.000 A 
ATOM      7  C   UNL     1       2.183   1.841  18.223  0.00  0.00    +0.000 A 
ATOM      8  C   UNL     1       1.521   2.702  19.099  0.00  0.00    +0.000 A 
ATOM      9  C   UNL     1       2.172   3.179  20.250  0.00  0.00    +0.000 A 
ATOM     10  C   UNL     1       3.482   2.764  20.522  0.00  0.00    +0.000 A 
ATOM     11  C   UNL     1       4.140   1.903  19.646  0.00  0.00    +0.000 A 
ENDBRANCH   4   9
ENDBRANCH   3   4
ENDBRANCH   1   3
BRANCH   1  12
ATOM     12  C   UNL     1       2.671   6.514  18.725  0.00  0.00    +0.000 C 
BRANCH  12  13
ATOM     13  C   UNL     1       3.689   6.106  17.689  0.00  0.00    +0.000 A 
ATOM     14  C   UNL     1       4.588   7.054  17.172  0.00  0.00    +0.000 A 
ATOM     15  C   UNL     1       5.571   6.676  16.259  0.00  0.00    +0.000 A 
ATOM     16  C   UNL     1       5.659   5.348  15.852  0.00  0.00    +0.000 A 
ATOM     17 BR   UNL     1       7.006   4.832  14.630  0.00  0.00    +0.000 Br
ATOM     18  C   UNL     1       4.768   4.396  16.344  0.00  0.00    +0.000 A 
ATOM     19  C   UNL     1       3.784   4.775  17.261  0.00  0.00    +0.000 A 
ENDBRANCH  12  13
ENDBRANCH   1  12
TORSDOF 5
ENDMDL
MODEL 9
REMARK VINA RESULT:      -5.6      1.324      2.112
REMARK  Name = 
REMARK  5 active torsions:
REMARK  status: ('A' for Active; 'I' for Inactive)
REMARK    1  A    between atoms: C_5  and  C_6
REMARK    2  A    between atoms: C_6  and  C_7
REMARK    3  A    between atoms: C_7  and  N_8
REMARK    4  A    between atoms: N_8  and  C_9
REMARK    5  A    between atoms: C_9  and  C_10
REMARK                            x       y       z     vdW  Elec       q    Type
REMARK                         _______ _______ _______ _____ _____    ______ ____
ROOT
ATOM      1  N   UNL     1       1.760   2.752  20.393  0.00  0.00    +0.000 NA
ATOM      2  H   UNL     1       1.122   2.082  20.823  0.00  0.00    +0.000 HD
ENDROOT
BRANCH   1   3
ATOM      3  C   UNL     1       1.113   4.067  20.291  0.00  0.00    +0.000 C 
BRANCH   3   4
ATOM      4  C   UNL     1       1.934   5.213  20.904  0.00  0.00    +0.000 C 
BRANCH   4   9
ATOM      5  F   UNL     1       1.953   9.973  17.897  0.00  0.00    +0.000 F 
ATOM      6  C   UNL     1       1.924   8.835  18.604  0.00  0.00    +0.000 A 
ATOM      7  C   UNL     1       1.380   8.835  19.880  0.00  0.00    +0.000 A 
ATOM      8  C   UNL     1       1.365   7.653  20.620  0.00  0.00    +0.000 A 
ATOM      9  C   UNL     1       1.904   6.473  20.080  0.00  0.00    +0.000 A 
ATOM     10  C   UNL     1       2.435   6.488  18.784  0.00  0.00    +0.000 A 
ATOM     11  C   UNL     1       2.448   7.671  18.046  0.00  0.00    +0.000 A 
ENDBRANCH   4   9
ENDBRANCH   3   4
ENDBRANCH   1   3
BRANCH   1  12
ATOM     12  C   UNL     1       2.184   2.245  19.088  0.00  0.00    +0.000 C 
BRANCH  12  13
ATOM     13  C   UNL     1       3.319   3.051  18.505  0.00  0.00    +0.000 A 
ATOM     14  C   UNL     1       4.416   3.408  19.308  0.00  0.00    +0.000 A 
ATOM     15  C   UNL     1       5.498   4.100  18.765  0.00  0.00    +0.000 A 
ATOM     16  C   UNL     1       5.487   4.445  17.417  0.00  0.00    +0.000 A 
ATOM     17 BR   UNL     1       6.964   5.365  16.676  0.00  0.00    +0.000 Br
ATOM     18  C   UNL     1       4.402   4.111  16.608  0.00  0.00    +0.000 A 
ATOM     19  C   UNL     1       3.320   3.415  17.152  0.00  0.00    +0.000 A 
ENDBRANCH  12  13
ENDBRANCH   1  12
TORSDOF 5
ENDMDL
