MODEL 1
REMARK VINA RESULT:      -8.2      0.000      0.000
REMARK  Name = 
REMARK  5 active torsions:
REMARK  status: ('A' for Active; 'I' for Inactive)
REMARK    1  A    between atoms: C_1  and  C_2
REMARK    2  A    between atoms: N_7  and  C_8
REMARK    3  A    between atoms: C_8  and  C_9
REMARK    4  A    between atoms: C_16  and  C_17
REMARK    5  A    between atoms: C_24  and  C_25
REMARK                            x       y       z     vdW  Elec       q    Type
REMARK                         _______ _______ _______ _____ _____    ______ ____
ROOT
ATOM      1  C   UNL     1       1.666   9.273  23.137  0.00  0.00    +0.000 C 
ATOM      2  C   UNL     1       0.777   9.825  22.070  0.00  0.00    +0.000 A 
ATOM      3  N   UNL     1      -0.108  10.752  22.297  0.00  0.00    +0.000 NA
ATOM      4  C   UNL     1      -0.900  11.167  21.221  0.00  0.00    +0.000 A 
ATOM      5  C   UNL     1      -1.944  12.219  21.518  0.00  0.00    +0.000 A 
ATOM      6  O   UNL     1      -2.050  12.689  22.651  0.00  0.00    +0.000 OA
ATOM      7  N   UNL     1      -2.730  12.629  20.450  0.00  0.00    +0.000 N 
ATOM      8  N   UNL     1      -2.666  12.087  19.192  0.00  0.00    +0.000 NA
ATOM      9  C   UNL     1      -1.778  11.175  18.958  0.00  0.00    +0.000 A 
ATOM     10  C   UNL     1      -0.780  10.694  19.961  0.00  0.00    +0.000 A 
ATOM     11  C   UNL     1       0.244   9.739  19.698  0.00  0.00    +0.000 A 
ATOM     12  C   UNL     1       0.817   9.105  18.623  0.00  0.00    +0.000 A 
ATOM     13  C   UNL     1       1.772   8.195  19.153  0.00  0.00    +0.000 A 
ATOM     14  N   UNL     1       1.869   8.340  20.484  0.00  0.00    +0.000 NA
ATOM     15  N   UNL     1       0.961   9.297  20.788  0.00  0.00    +0.000 N 
ENDROOT
BRANCH  13  16
ATOM     16  C   UNL     1       2.574   7.248  18.375  0.00  0.00    +0.000 A 
ATOM     17  C   UNL     1       2.312   5.874  18.420  0.00  0.00    +0.000 A 
ATOM     18  C   UNL     1       3.139   4.974  17.737  0.00  0.00    +0.000 A 
ATOM     19  C   UNL     1       4.223   5.437  16.994  0.00  0.00    +0.000 A 
ATOM     20  C   UNL     1       4.475   6.803  16.917  0.00  0.00    +0.000 A 
ATOM     21  C   UNL     1       3.654   7.703  17.600  0.00  0.00    +0.000 A 
ENDBRANCH  13  16
BRANCH   9  22
ATOM     22  C   UNL     1      -1.814  10.512  17.536  0.00  0.00    +0.000 C 
ATOM     23  C   UNL     1      -2.927   9.483  17.183  0.00  0.00    +0.000 C 
ATOM     24  C   UNL     1      -2.838  10.017  15.735  0.00  0.00    +0.000 C 
ATOM     25  C   UNL     1      -2.380  11.355  16.351  0.00  0.00    +0.000 C 
ENDBRANCH   9  22
BRANCH   7  26
ATOM     26  C   UNL     1      -3.752  13.649  20.665  0.00  0.00    +0.000 C 
BRANCH  26  27
ATOM     27  C   UNL     1      -5.095  13.078  21.060  0.00  0.00    +0.000 A 
ATOM     28  C   UNL     1      -5.873  12.373  20.130  0.00  0.00    +0.000 A 
ATOM     29  C   UNL     1      -7.094  11.811  20.507  0.00  0.00    +0.000 A 
ATOM     30  C   UNL     1      -7.555  11.954  21.814  0.00  0.00    +0.000 A 
ATOM     31  C   UNL     1      -6.804  12.674  22.741  0.00  0.00    +0.000 A 
ATOM     32  C   UNL     1      -5.584  13.239  22.366  0.00  0.00    +0.000 A 
ENDBRANCH  26  27
ENDBRANCH   7  26
TORSDOF 4
ENDMDL
MODEL 2
REMARK VINA RESULT:      -8.0      0.119      1.210
REMARK  Name = 
REMARK  5 active torsions:
REMARK  status: ('A' for Active; 'I' for Inactive)
REMARK    1  A    between atoms: C_1  and  C_2
REMARK    2  A    between atoms: N_7  and  C_8
REMARK    3  A    between atoms: C_8  and  C_9
REMARK    4  A    between atoms: C_16  and  C_17
REMARK    5  A    between atoms: C_24  and  C_25
REMARK                            x       y       z     vdW  Elec       q    Type
REMARK                         _______ _______ _______ _____ _____    ______ ____
ROOT
ATOM      1  C   UNL     1       1.554   9.258  23.273  0.00  0.00    +0.000 C 
ATOM      2  C   UNL     1       0.695   9.807  22.182  0.00  0.00    +0.000 A 
ATOM      3  N   UNL     1      -0.204  10.727  22.385  0.00  0.00    +0.000 NA
ATOM      4  C   UNL     1      -0.965  11.140  21.286  0.00  0.00    +0.000 A 
ATOM      5  C   UNL     1      -2.024  12.183  21.554  0.00  0.00    +0.000 A 
ATOM      6  O   UNL     1      -2.170  12.649  22.685  0.00  0.00    +0.000 OA
ATOM      7  N   UNL     1      -2.781  12.592  20.464  0.00  0.00    +0.000 N 
ATOM      8  N   UNL     1      -2.674  12.056  19.206  0.00  0.00    +0.000 NA
ATOM      9  C   UNL     1      -1.772  11.150  18.997  0.00  0.00    +0.000 A 
ATOM     10  C   UNL     1      -0.802  10.673  20.028  0.00  0.00    +0.000 A 
ATOM     11  C   UNL     1       0.236   9.726  19.794  0.00  0.00    +0.000 A 
ATOM     12  C   UNL     1       0.846   9.100  18.735  0.00  0.00    +0.000 A 
ATOM     13  C   UNL     1       1.791   8.196  19.291  0.00  0.00    +0.000 A 
ATOM     14  N   UNL     1       1.846   8.336  20.625  0.00  0.00    +0.000 NA
ATOM     15  N   UNL     1       0.923   9.286  20.904  0.00  0.00    +0.000 N 
ENDROOT
BRANCH  13  16
ATOM     16  C   UNL     1       2.624   7.257  18.535  0.00  0.00    +0.000 A 
ATOM     17  C   UNL     1       3.597   7.714  17.640  0.00  0.00    +0.000 A 
ATOM     18  C   UNL     1       4.327   6.807  16.864  0.00  0.00    +0.000 A 
ATOM     19  C   UNL     1       4.102   5.437  16.984  0.00  0.00    +0.000 A 
ATOM     20  C   UNL     1       3.158   4.968  17.893  0.00  0.00    +0.000 A 
ATOM     21  C   UNL     1       2.426   5.872  18.665  0.00  0.00    +0.000 A 
ENDBRANCH  13  16
BRANCH   9  22
ATOM     22  C   UNL     1      -1.759  10.493  17.572  0.00  0.00    +0.000 C 
ATOM     23  C   UNL     1      -2.858   9.463  17.179  0.00  0.00    +0.000 C 
ATOM     24  C   UNL     1      -2.722  10.002  15.736  0.00  0.00    +0.000 C 
ATOM     25  C   UNL     1      -2.287  11.339  16.372  0.00  0.00    +0.000 C 
ENDBRANCH   9  22
BRANCH   7  26
ATOM     26  C   UNL     1      -3.816  13.604  20.650  0.00  0.00    +0.000 C 
BRANCH  26  27
ATOM     27  C   UNL     1      -5.153  13.026  21.057  0.00  0.00    +0.000 A 
ATOM     28  C   UNL     1      -5.643  13.206  22.359  0.00  0.00    +0.000 A 
ATOM     29  C   UNL     1      -6.895  12.707  22.721  0.00  0.00    +0.000 A 
ATOM     30  C   UNL     1      -7.668  12.016  21.789  0.00  0.00    +0.000 A 
ATOM     31  C   UNL     1      -7.182  11.808  20.501  0.00  0.00    +0.000 A 
ATOM     32  C   UNL     1      -5.928  12.304  20.137  0.00  0.00    +0.000 A 
ENDBRANCH  26  27
ENDBRANCH   7  26
TORSDOF 4
ENDMDL
MODEL 3
REMARK VINA RESULT:      -7.7      0.949      1.310
REMARK  Name = 
REMARK  5 active torsions:
REMARK  status: ('A' for Active; 'I' for Inactive)
REMARK    1  A    between atoms: C_1  and  C_2
REMARK    2  A    between atoms: N_7  and  C_8
REMARK    3  A    between atoms: C_8  and  C_9
REMARK    4  A    between atoms: C_16  and  C_17
REMARK    5  A    between atoms: C_24  and  C_25
REMARK                            x       y       z     vdW  Elec       q    Type
REMARK                         _______ _______ _______ _____ _____    ______ ____
ROOT
ATOM      1  C   UNL     1       0.983   9.220  23.973  0.00  0.00    +0.000 C 
ATOM      2  C   UNL     1       0.289   9.874  22.823  0.00  0.00    +0.000 A 
ATOM      3  N   UNL     1      -0.544  10.863  22.971  0.00  0.00    +0.000 NA
ATOM      4  C   UNL     1      -1.151  11.374  21.818  0.00  0.00    +0.000 A 
ATOM      5  C   UNL     1      -2.139  12.499  22.019  0.00  0.00    +0.000 A 
ATOM      6  O   UNL     1      -2.360  12.942  23.147  0.00  0.00    +0.000 OA
ATOM      7  N   UNL     1      -2.743  13.004  20.875  0.00  0.00    +0.000 N 
ATOM      8  N   UNL     1      -2.554  12.498  19.615  0.00  0.00    +0.000 NA
ATOM      9  C   UNL     1      -1.716  11.522  19.462  0.00  0.00    +0.000 A 
ATOM     10  C   UNL     1      -0.901  10.932  20.566  0.00  0.00    +0.000 A 
ATOM     11  C   UNL     1       0.072   9.903  20.400  0.00  0.00    +0.000 A 
ATOM     12  C   UNL     1       0.732   9.258  19.384  0.00  0.00    +0.000 A 
ATOM     13  C   UNL     1       1.534   8.257  19.996  0.00  0.00    +0.000 A 
ATOM     14  N   UNL     1       1.464   8.353  21.333  0.00  0.00    +0.000 NA
ATOM     15  N   UNL     1       0.601   9.372  21.556  0.00  0.00    +0.000 N 
ENDROOT
BRANCH  13  16
ATOM     16  C   UNL     1       2.357   7.270  19.292  0.00  0.00    +0.000 A 
ATOM     17  C   UNL     1       3.029   7.603  18.110  0.00  0.00    +0.000 A 
ATOM     18  C   UNL     1       3.743   6.628  17.405  0.00  0.00    +0.000 A 
ATOM     19  C   UNL     1       3.804   5.319  17.877  0.00  0.00    +0.000 A 
ATOM     20  C   UNL     1       3.165   4.982  19.067  0.00  0.00    +0.000 A 
ATOM     21  C   UNL     1       2.449   5.953  19.771  0.00  0.00    +0.000 A 
ENDBRANCH  13  16
BRANCH   9  22
ATOM     22  C   UNL     1      -1.614  10.908  18.021  0.00  0.00    +0.000 C 
ATOM     23  C   UNL     1      -2.499   9.690  17.629  0.00  0.00    +0.000 C 
ATOM     24  C   UNL     1      -2.511  10.273  16.197  0.00  0.00    +0.000 C 
ATOM     25  C   UNL     1      -2.330  11.657  16.855  0.00  0.00    +0.000 C 
ENDBRANCH   9  22
BRANCH   7  26
ATOM     26  C   UNL     1      -3.702  14.098  20.997  0.00  0.00    +0.000 C 
BRANCH  26  27
ATOM     27  C   UNL     1      -5.131  13.673  20.744  0.00  0.00    +0.000 A 
ATOM     28  C   UNL     1      -5.895  14.295  19.745  0.00  0.00    +0.000 A 
ATOM     29  C   UNL     1      -7.200  13.874  19.486  0.00  0.00    +0.000 A 
ATOM     30  C   UNL     1      -7.759  12.834  20.226  0.00  0.00    +0.000 A 
ATOM     31  C   UNL     1      -7.020  12.225  21.237  0.00  0.00    +0.000 A 
ATOM     32  C   UNL     1      -5.715  12.646  21.501  0.00  0.00    +0.000 A 
ENDBRANCH  26  27
ENDBRANCH   7  26
TORSDOF 4
ENDMDL
MODEL 4
REMARK VINA RESULT:      -7.1      1.372      1.707
REMARK  Name = 
REMARK  5 active torsions:
REMARK  status: ('A' for Active; 'I' for Inactive)
REMARK    1  A    between atoms: C_1  and  C_2
REMARK    2  A    between atoms: N_7  and  C_8
REMARK    3  A    between atoms: C_8  and  C_9
REMARK    4  A    between atoms: C_16  and  C_17
REMARK    5  A    between atoms: C_24  and  C_25
REMARK                            x       y       z     vdW  Elec       q    Type
REMARK                         _______ _______ _______ _____ _____    ______ ____
ROOT
ATOM      1  C   UNL     1       0.340   9.535  23.839  0.00  0.00    +0.000 C 
ATOM      2  C   UNL     1      -0.335  10.183  22.675  0.00  0.00    +0.000 A 
ATOM      3  N   UNL     1      -1.246  11.103  22.808  0.00  0.00    +0.000 NA
ATOM      4  C   UNL     1      -1.824  11.614  21.641  0.00  0.00    +0.000 A 
ATOM      5  C   UNL     1      -2.903  12.656  21.823  0.00  0.00    +0.000 A 
ATOM      6  O   UNL     1      -3.217  13.037  22.952  0.00  0.00    +0.000 OA
ATOM      7  N   UNL     1      -3.478  13.161  20.665  0.00  0.00    +0.000 N 
ATOM      8  N   UNL     1      -3.183  12.719  19.402  0.00  0.00    +0.000 NA
ATOM      9  C   UNL     1      -2.268  11.813  19.263  0.00  0.00    +0.000 A 
ATOM     10  C   UNL     1      -1.474  11.239  20.391  0.00  0.00    +0.000 A 
ATOM     11  C   UNL     1      -0.420  10.291  20.246  0.00  0.00    +0.000 A 
ATOM     12  C   UNL     1       0.341   9.735  19.247  0.00  0.00    +0.000 A 
ATOM     13  C   UNL     1       1.180   8.771  19.870  0.00  0.00    +0.000 A 
ATOM     14  N   UNL     1       1.029   8.809  21.203  0.00  0.00    +0.000 NA
ATOM     15  N   UNL     1       0.083   9.754  21.411  0.00  0.00    +0.000 N 
ENDROOT
BRANCH  13  16
ATOM     16  C   UNL     1       2.111   7.874  19.180  0.00  0.00    +0.000 A 
ATOM     17  C   UNL     1       2.521   6.671  19.764  0.00  0.00    +0.000 A 
ATOM     18  C   UNL     1       3.474   5.866  19.130  0.00  0.00    +0.000 A 
ATOM     19  C   UNL     1       4.015   6.246  17.904  0.00  0.00    +0.000 A 
ATOM     20  C   UNL     1       3.593   7.426  17.298  0.00  0.00    +0.000 A 
ATOM     21  C   UNL     1       2.646   8.233  17.931  0.00  0.00    +0.000 A 
ENDBRANCH  13  16
BRANCH   9  22
ATOM     22  C   UNL     1      -2.041  11.265  17.810  0.00  0.00    +0.000 C 
ATOM     23  C   UNL     1      -2.250   9.753  17.506  0.00  0.00    +0.000 C 
ATOM     24  C   UNL     1      -2.710  10.191  16.097  0.00  0.00    +0.000 C 
ATOM     25  C   UNL     1      -3.160  11.513  16.752  0.00  0.00    +0.000 C 
ENDBRANCH   9  22
BRANCH   7  26
ATOM     26  C   UNL     1      -4.521  14.178  20.769  0.00  0.00    +0.000 C 
BRANCH  26  27
ATOM     27  C   UNL     1      -5.693  13.930  19.847  0.00  0.00    +0.000 A 
ATOM     28  C   UNL     1      -6.241  12.645  19.718  0.00  0.00    +0.000 A 
ATOM     29  C   UNL     1      -7.348  12.425  18.898  0.00  0.00    +0.000 A 
ATOM     30  C   UNL     1      -7.916  13.484  18.192  0.00  0.00    +0.000 A 
ATOM     31  C   UNL     1      -7.367  14.760  18.292  0.00  0.00    +0.000 A 
ATOM     32  C   UNL     1      -6.257  14.982  19.109  0.00  0.00    +0.000 A 
ENDBRANCH  26  27
ENDBRANCH   7  26
TORSDOF 4
ENDMDL
MODEL 5
REMARK VINA RESULT:      -7.0      1.486      2.529
REMARK  Name = 
REMARK  5 active torsions:
REMARK  status: ('A' for Active; 'I' for Inactive)
REMARK    1  A    between atoms: C_1  and  C_2
REMARK    2  A    between atoms: N_7  and  C_8
REMARK    3  A    between atoms: C_8  and  C_9
REMARK    4  A    between atoms: C_16  and  C_17
REMARK    5  A    between atoms: C_24  and  C_25
REMARK                            x       y       z     vdW  Elec       q    Type
REMARK                         _______ _______ _______ _____ _____    ______ ____
ROOT
ATOM      1  C   UNL     1       1.647   9.165  23.217  0.00  0.00    +0.000 C 
ATOM      2  C   UNL     1       0.792   9.770  22.152  0.00  0.00    +0.000 A 
ATOM      3  N   UNL     1      -0.066  10.720  22.389  0.00  0.00    +0.000 NA
ATOM      4  C   UNL     1      -0.829  11.185  21.313  0.00  0.00    +0.000 A 
ATOM      5  C   UNL     1      -1.841  12.264  21.620  0.00  0.00    +0.000 A 
ATOM      6  O   UNL     1      -1.948  12.712  22.762  0.00  0.00    +0.000 OA
ATOM      7  N   UNL     1      -2.599  12.724  20.552  0.00  0.00    +0.000 N 
ATOM      8  N   UNL     1      -2.536  12.210  19.283  0.00  0.00    +0.000 NA
ATOM      9  C   UNL     1      -1.675  11.274  19.039  0.00  0.00    +0.000 A 
ATOM     10  C   UNL     1      -0.707  10.738  20.043  0.00  0.00    +0.000 A 
ATOM     11  C   UNL     1       0.289   9.755  19.772  0.00  0.00    +0.000 A 
ATOM     12  C   UNL     1       0.855   9.127  18.690  0.00  0.00    +0.000 A 
ATOM     13  C   UNL     1       1.772   8.175  19.211  0.00  0.00    +0.000 A 
ATOM     14  N   UNL     1       1.856   8.286  20.546  0.00  0.00    +0.000 NA
ATOM     15  N   UNL     1       0.976   9.266  20.861  0.00  0.00    +0.000 N 
ENDROOT
BRANCH  13  16
ATOM     16  C   UNL     1       2.553   7.219  18.422  0.00  0.00    +0.000 A 
ATOM     17  C   UNL     1       2.292   5.846  18.486  0.00  0.00    +0.000 A 
ATOM     18  C   UNL     1       3.099   4.939  17.791  0.00  0.00    +0.000 A 
ATOM     19  C   UNL     1       4.164   5.393  17.017  0.00  0.00    +0.000 A 
ATOM     20  C   UNL     1       4.416   6.759  16.920  0.00  0.00    +0.000 A 
ATOM     21  C   UNL     1       3.614   7.665  17.616  0.00  0.00    +0.000 A 
ENDBRANCH  13  16
BRANCH   9  22
ATOM     22  C   UNL     1      -1.713  10.645  17.602  0.00  0.00    +0.000 C 
ATOM     23  C   UNL     1      -2.748   9.532  17.265  0.00  0.00    +0.000 C 
ATOM     24  C   UNL     1      -2.765  10.106  15.830  0.00  0.00    +0.000 C 
ATOM     25  C   UNL     1      -2.398  11.464  16.464  0.00  0.00    +0.000 C 
ENDBRANCH   9  22
BRANCH   7  26
ATOM     26  C   UNL     1      -3.590  13.773  20.777  0.00  0.00    +0.000 C 
BRANCH  26  27
ATOM     27  C   UNL     1      -2.977  15.114  21.114  0.00  0.00    +0.000 A 
ATOM     28  C   UNL     1      -1.915  15.624  20.353  0.00  0.00    +0.000 A 
ATOM     29  C   UNL     1      -1.377  16.880  20.640  0.00  0.00    +0.000 A 
ATOM     30  C   UNL     1      -1.889  17.636  21.693  0.00  0.00    +0.000 A 
ATOM     31  C   UNL     1      -2.926  17.129  22.472  0.00  0.00    +0.000 A 
ATOM     32  C   UNL     1      -3.464  15.872  22.189  0.00  0.00    +0.000 A 
ENDBRANCH  26  27
ENDBRANCH   7  26
TORSDOF 4
ENDMDL
MODEL 6
REMARK VINA RESULT:      -6.8      1.767      2.795
REMARK  Name = 
REMARK  5 active torsions:
REMARK  status: ('A' for Active; 'I' for Inactive)
REMARK    1  A    between atoms: C_1  and  C_2
REMARK    2  A    between atoms: N_7  and  C_8
REMARK    3  A    between atoms: C_8  and  C_9
REMARK    4  A    between atoms: C_16  and  C_17
REMARK    5  A    between atoms: C_24  and  C_25
REMARK                            x       y       z     vdW  Elec       q    Type
REMARK                         _______ _______ _______ _____ _____    ______ ____
ROOT
ATOM      1  C   UNL     1       0.733   9.234  24.020  0.00  0.00    +0.000 C 
ATOM      2  C   UNL     1       0.078   9.900  22.855  0.00  0.00    +0.000 A 
ATOM      3  N   UNL     1      -0.770  10.879  22.985  0.00  0.00    +0.000 NA
ATOM      4  C   UNL     1      -1.337  11.403  21.818  0.00  0.00    +0.000 A 
ATOM      5  C   UNL     1      -2.344  12.515  21.998  0.00  0.00    +0.000 A 
ATOM      6  O   UNL     1      -2.612  12.937  23.124  0.00  0.00    +0.000 OA
ATOM      7  N   UNL     1      -2.907  13.033  20.840  0.00  0.00    +0.000 N 
ATOM      8  N   UNL     1      -2.665  12.549  19.581  0.00  0.00    +0.000 NA
ATOM      9  C   UNL     1      -1.812  11.584  19.445  0.00  0.00    +0.000 A 
ATOM     10  C   UNL     1      -1.034  10.983  20.570  0.00  0.00    +0.000 A 
ATOM     11  C   UNL     1      -0.046   9.967  20.426  0.00  0.00    +0.000 A 
ATOM     12  C   UNL     1       0.660   9.344  19.426  0.00  0.00    +0.000 A 
ATOM     13  C   UNL     1       1.448   8.341  20.053  0.00  0.00    +0.000 A 
ATOM     14  N   UNL     1       1.325   8.415  21.388  0.00  0.00    +0.000 NA
ATOM     15  N   UNL     1       0.444   9.422  21.592  0.00  0.00    +0.000 N 
ENDROOT
BRANCH  13  16
ATOM     16  C   UNL     1       2.307   7.374  19.365  0.00  0.00    +0.000 A 
ATOM     17  C   UNL     1       2.946   7.702  18.164  0.00  0.00    +0.000 A 
ATOM     18  C   UNL     1       3.696   6.741  17.477  0.00  0.00    +0.000 A 
ATOM     19  C   UNL     1       3.826   5.451  17.987  0.00  0.00    +0.000 A 
ATOM     20  C   UNL     1       3.221   5.121  19.196  0.00  0.00    +0.000 A 
ATOM     21  C   UNL     1       2.469   6.078  19.881  0.00  0.00    +0.000 A 
ENDBRANCH  13  16
BRANCH   9  22
ATOM     22  C   UNL     1      -1.648  10.994  18.000  0.00  0.00    +0.000 C 
ATOM     23  C   UNL     1      -2.415   9.703  17.593  0.00  0.00    +0.000 C 
ATOM     24  C   UNL     1      -2.476  10.295  16.166  0.00  0.00    +0.000 C 
ATOM     25  C   UNL     1      -2.426  11.683  16.836  0.00  0.00    +0.000 C 
ENDBRANCH   9  22
BRANCH   7  26
ATOM     26  C   UNL     1      -3.882  14.116  20.942  0.00  0.00    +0.000 C 
BRANCH  26  27
ATOM     27  C   UNL     1      -3.260  15.451  21.284  0.00  0.00    +0.000 A 
ATOM     28  C   UNL     1      -2.154  15.929  20.565  0.00  0.00    +0.000 A 
ATOM     29  C   UNL     1      -1.606  17.180  20.855  0.00  0.00    +0.000 A 
ATOM     30  C   UNL     1      -2.152  17.963  21.871  0.00  0.00    +0.000 A 
ATOM     31  C   UNL     1      -3.234  17.489  22.609  0.00  0.00    +0.000 A 
ATOM     32  C   UNL     1      -3.782  16.237  22.323  0.00  0.00    +0.000 A 
ENDBRANCH  26  27
ENDBRANCH   7  26
TORSDOF 4
ENDMDL
MODEL 7
REMARK VINA RESULT:      -6.8      1.671      2.671
REMARK  Name = 
REMARK  5 active torsions:
REMARK  status: ('A' for Active; 'I' for Inactive)
REMARK    1  A    between atoms: C_1  and  C_2
REMARK    2  A    between atoms: N_7  and  C_8
REMARK    3  A    between atoms: C_8  and  C_9
REMARK    4  A    between atoms: C_16  and  C_17
REMARK    5  A    between atoms: C_24  and  C_25
REMARK                            x       y       z     vdW  Elec       q    Type
REMARK                         _______ _______ _______ _____ _____    ______ ____
ROOT
ATOM      1  C   UNL     1       0.807   9.256  23.909  0.00  0.00    +0.000 C 
ATOM      2  C   UNL     1       0.099   9.918  22.773  0.00  0.00    +0.000 A 
ATOM      3  N   UNL     1      -0.783  10.860  22.942  0.00  0.00    +0.000 NA
ATOM      4  C   UNL     1      -1.397  11.383  21.799  0.00  0.00    +0.000 A 
ATOM      5  C   UNL     1      -2.441  12.452  22.023  0.00  0.00    +0.000 A 
ATOM      6  O   UNL     1      -2.698  12.844  23.162  0.00  0.00    +0.000 OA
ATOM      7  N   UNL     1      -3.052  12.969  20.889  0.00  0.00    +0.000 N 
ATOM      8  N   UNL     1      -2.822  12.517  19.615  0.00  0.00    +0.000 NA
ATOM      9  C   UNL     1      -1.937  11.588  19.441  0.00  0.00    +0.000 A 
ATOM     10  C   UNL     1      -1.110  10.997  20.536  0.00  0.00    +0.000 A 
ATOM     11  C   UNL     1      -0.087  10.023  20.349  0.00  0.00    +0.000 A 
ATOM     12  C   UNL     1       0.617   9.446  19.321  0.00  0.00    +0.000 A 
ATOM     13  C   UNL     1       1.458   8.463  19.911  0.00  0.00    +0.000 A 
ATOM     14  N   UNL     1       1.365   8.508  21.249  0.00  0.00    +0.000 NA
ATOM     15  N   UNL     1       0.452   9.476  21.493  0.00  0.00    +0.000 N 
ENDROOT
BRANCH  13  16
ATOM     16  C   UNL     1       2.337   7.542  19.185  0.00  0.00    +0.000 A 
ATOM     17  C   UNL     1       2.611   6.263  19.683  0.00  0.00    +0.000 A 
ATOM     18  C   UNL     1       3.517   5.427  19.021  0.00  0.00    +0.000 A 
ATOM     19  C   UNL     1       4.145   5.852  17.852  0.00  0.00    +0.000 A 
ATOM     20  C   UNL     1       3.857   7.109  17.331  0.00  0.00    +0.000 A 
ATOM     21  C   UNL     1       2.957   7.947  17.991  0.00  0.00    +0.000 A 
ENDBRANCH  13  16
BRANCH   9  22
ATOM     22  C   UNL     1      -1.785  11.031  17.981  0.00  0.00    +0.000 C 
ATOM     23  C   UNL     1      -2.472   9.693  17.583  0.00  0.00    +0.000 C 
ATOM     24  C   UNL     1      -2.630  10.297  16.169  0.00  0.00    +0.000 C 
ATOM     25  C   UNL     1      -2.655  11.677  16.858  0.00  0.00    +0.000 C 
ENDBRANCH   9  22
BRANCH   7  26
ATOM     26  C   UNL     1      -4.064  14.011  21.033  0.00  0.00    +0.000 C 
BRANCH  26  27
ATOM     27  C   UNL     1      -3.535  15.402  20.764  0.00  0.00    +0.000 A 
ATOM     28  C   UNL     1      -2.162  15.674  20.860  0.00  0.00    +0.000 A 
ATOM     29  C   UNL     1      -1.670  16.948  20.571  0.00  0.00    +0.000 A 
ATOM     30  C   UNL     1      -2.544  17.965  20.191  0.00  0.00    +0.000 A 
ATOM     31  C   UNL     1      -3.912  17.714  20.116  0.00  0.00    +0.000 A 
ATOM     32  C   UNL     1      -4.407  16.441  20.407  0.00  0.00    +0.000 A 
ENDBRANCH  26  27
ENDBRANCH   7  26
TORSDOF 4
ENDMDL
MODEL 8
REMARK VINA RESULT:      -6.7      2.109      8.434
REMARK  Name = 
REMARK  5 active torsions:
REMARK  status: ('A' for Active; 'I' for Inactive)
REMARK    1  A    between atoms: C_1  and  C_2
REMARK    2  A    between atoms: N_7  and  C_8
REMARK    3  A    between atoms: C_8  and  C_9
REMARK    4  A    between atoms: C_16  and  C_17
REMARK    5  A    between atoms: C_24  and  C_25
REMARK                            x       y       z     vdW  Elec       q    Type
REMARK                         _______ _______ _______ _____ _____    ______ ____
ROOT
ATOM      1  C   UNL     1      -0.228  15.413  22.638  0.00  0.00    +0.000 C 
ATOM      2  C   UNL     1      -0.498  14.279  21.705  0.00  0.00    +0.000 A 
ATOM      3  N   UNL     1       0.445  13.646  21.069  0.00  0.00    +0.000 NA
ATOM      4  C   UNL     1       0.062  12.618  20.201  0.00  0.00    +0.000 A 
ATOM      5  C   UNL     1       1.173  11.922  19.450  0.00  0.00    +0.000 A 
ATOM      6  O   UNL     1       2.347  12.244  19.632  0.00  0.00    +0.000 OA
ATOM      7  N   UNL     1       0.792  10.903  18.587  0.00  0.00    +0.000 N 
ATOM      8  N   UNL     1      -0.509  10.558  18.327  0.00  0.00    +0.000 NA
ATOM      9  C   UNL     1      -1.450  11.176  18.966  0.00  0.00    +0.000 A 
ATOM     10  C   UNL     1      -1.215  12.220  20.009  0.00  0.00    +0.000 A 
ATOM     11  C   UNL     1      -2.238  12.861  20.766  0.00  0.00    +0.000 A 
ATOM     12  C   UNL     1      -3.582  12.725  21.011  0.00  0.00    +0.000 A 
ATOM     13  C   UNL     1      -3.951  13.815  21.847  0.00  0.00    +0.000 A 
ATOM     14  N   UNL     1      -2.867  14.525  22.197  0.00  0.00    +0.000 NA
ATOM     15  N   UNL     1      -1.841  13.914  21.560  0.00  0.00    +0.000 N 
ENDROOT
BRANCH  13  16
ATOM     16  C   UNL     1      -5.309  14.121  22.303  0.00  0.00    +0.000 A 
ATOM     17  C   UNL     1      -5.530  14.974  23.390  0.00  0.00    +0.000 A 
ATOM     18  C   UNL     1      -6.828  15.191  23.866  0.00  0.00    +0.000 A 
ATOM     19  C   UNL     1      -7.916  14.571  23.255  0.00  0.00    +0.000 A 
ATOM     20  C   UNL     1      -7.712  13.745  22.154  0.00  0.00    +0.000 A 
ATOM     21  C   UNL     1      -6.417  13.524  21.680  0.00  0.00    +0.000 A 
ENDBRANCH  13  16
BRANCH   9  22
ATOM     22  C   UNL     1      -2.923  10.819  18.559  0.00  0.00    +0.000 C 
ATOM     23  C   UNL     1      -3.663  11.673  17.488  0.00  0.00    +0.000 C 
ATOM     24  C   UNL     1      -4.393  10.371  17.083  0.00  0.00    +0.000 C 
ATOM     25  C   UNL     1      -3.143   9.620  17.586  0.00  0.00    +0.000 C 
ENDBRANCH   9  22
BRANCH   7  26
ATOM     26  C   UNL     1       1.816  10.182  17.836  0.00  0.00    +0.000 C 
BRANCH  26  27
ATOM     27  C   UNL     1       2.116   8.810  18.397  0.00  0.00    +0.000 A 
ATOM     28  C   UNL     1       2.870   7.886  17.658  0.00  0.00    +0.000 A 
ATOM     29  C   UNL     1       3.181   6.635  18.193  0.00  0.00    +0.000 A 
ATOM     30  C   UNL     1       2.736   6.291  19.469  0.00  0.00    +0.000 A 
ATOM     31  C   UNL     1       1.967   7.190  20.202  0.00  0.00    +0.000 A 
ATOM     32  C   UNL     1       1.651   8.441  19.668  0.00  0.00    +0.000 A 
ENDBRANCH  26  27
ENDBRANCH   7  26
TORSDOF 4
ENDMDL
MODEL 9
REMARK VINA RESULT:      -6.6      7.386     11.798
REMARK  Name = 
REMARK  5 active torsions:
REMARK  status: ('A' for Active; 'I' for Inactive)
REMARK    1  A    between atoms: C_1  and  C_2
REMARK    2  A    between atoms: N_7  and  C_8
REMARK    3  A    between atoms: C_8  and  C_9
REMARK    4  A    between atoms: C_16  and  C_17
REMARK    5  A    between atoms: C_24  and  C_25
REMARK                            x       y       z     vdW  Elec       q    Type
REMARK                         _______ _______ _______ _____ _____    ______ ____
ROOT
ATOM      1  C   UNL     1       3.121  16.393  17.480  0.00  0.00    +0.000 C 
ATOM      2  C   UNL     1       4.106  15.925  18.501  0.00  0.00    +0.000 A 
ATOM      3  N   UNL     1       5.393  16.054  18.352  0.00  0.00    +0.000 NA
ATOM      4  C   UNL     1       6.214  15.551  19.367  0.00  0.00    +0.000 A 
ATOM      5  C   UNL     1       7.705  15.683  19.155  0.00  0.00    +0.000 A 
ATOM      6  O   UNL     1       8.145  16.234  18.146  0.00  0.00    +0.000 OA
ATOM      7  N   UNL     1       8.519  15.182  20.162  0.00  0.00    +0.000 N 
ATOM      8  N   UNL     1       8.058  14.520  21.270  0.00  0.00    +0.000 NA
ATOM      9  C   UNL     1       6.778  14.401  21.428  0.00  0.00    +0.000 A 
ATOM     10  C   UNL     1       5.758  14.975  20.500  0.00  0.00    +0.000 A 
ATOM     11  C   UNL     1       4.348  14.907  20.697  0.00  0.00    +0.000 A 
ATOM     12  C   UNL     1       3.456  14.562  21.683  0.00  0.00    +0.000 A 
ATOM     13  C   UNL     1       2.159  14.684  21.114  0.00  0.00    +0.000 A 
ATOM     14  N   UNL     1       2.238  15.190  19.873  0.00  0.00    +0.000 NA
ATOM     15  N   UNL     1       3.564  15.346  19.653  0.00  0.00    +0.000 N 
ENDROOT
BRANCH  13  16
ATOM     16  C   UNL     1       0.898  14.344  21.778  0.00  0.00    +0.000 A 
ATOM     17  C   UNL     1       0.269  15.251  22.638  0.00  0.00    +0.000 A 
ATOM     18  C   UNL     1      -0.891  14.881  23.329  0.00  0.00    +0.000 A 
ATOM     19  C   UNL     1      -1.438  13.612  23.158  0.00  0.00    +0.000 A 
ATOM     20  C   UNL     1      -0.839  12.712  22.282  0.00  0.00    +0.000 A 
ATOM     21  C   UNL     1       0.320  13.077  21.594  0.00  0.00    +0.000 A 
ENDBRANCH  13  16
BRANCH   9  22
ATOM     22  C   UNL     1       6.302  13.546  22.656  0.00  0.00    +0.000 C 
ATOM     23  C   UNL     1       7.116  12.294  23.095  0.00  0.00    +0.000 C 
ATOM     24  C   UNL     1       6.670  12.621  24.539  0.00  0.00    +0.000 C 
ATOM     25  C   UNL     1       6.595  14.094  24.086  0.00  0.00    +0.000 C 
ENDBRANCH   9  22
BRANCH   7  26
ATOM     26  C   UNL     1       9.969  15.285  20.025  0.00  0.00    +0.000 C 
BRANCH  26  27
ATOM     27  C   UNL     1      10.612  14.022  19.497  0.00  0.00    +0.000 A 
ATOM     28  C   UNL     1      11.026  13.010  20.376  0.00  0.00    +0.000 A 
ATOM     29  C   UNL     1      11.583  11.828  19.885  0.00  0.00    +0.000 A 
ATOM     30  C   UNL     1      11.739  11.646  18.512  0.00  0.00    +0.000 A 
ATOM     31  C   UNL     1      11.355  12.654  17.630  0.00  0.00    +0.000 A 
ATOM     32  C   UNL     1      10.801  13.839  18.119  0.00  0.00    +0.000 A 
ENDBRANCH  26  27
ENDBRANCH   7  26
TORSDOF 4
ENDMDL
