MODEL 1
REMARK VINA RESULT:      -7.8      0.000      0.000
REMARK  Name = 
REMARK  9 active torsions:
REMARK  status: ('A' for Active; 'I' for Inactive)
REMARK    1  A    between atoms: C_1  and  C_2
REMARK    2  A    between atoms: N_4  and  C_5
REMARK    3  A    between atoms: N_4  and  C_6
REMARK    4  A    between atoms: C_6  and  C_7
REMARK    5  A    between atoms: C_12  and  N_13
REMARK    6  A    between atoms: N_16  and  C_17
REMARK    7  A    between atoms: N_16  and  C_18
REMARK    8  A    between atoms: C_18  and  C_19
REMARK    9  A    between atoms: C_19  and  C_20
REMARK                            x       y       z     vdW  Elec       q    Type
REMARK                         _______ _______ _______ _____ _____    ______ ____
ROOT
ATOM      1  N   UNL     1       2.505   7.203  18.836  0.00  0.00    +0.000 N 
ATOM      2  C   UNL     1       2.054   8.437  18.390  0.00  0.00    +0.000 C 
ATOM      3  O   UNL     1       2.239   8.822  17.232  0.00  0.00    +0.000 OA
ATOM      4  N   UNL     1       1.345   9.224  19.299  0.00  0.00    +0.000 N 
ATOM      5  C   UNL     1       1.028   8.867  20.677  0.00  0.00    +0.000 C 
ATOM      6  H   UNL     1       1.931   6.741  19.524  0.00  0.00    +0.000 HD
ENDROOT
BRANCH   1  12
ATOM      7  C   UNL     1       2.988   5.035  17.681  0.00  0.00    +0.000 A 
ATOM      8  C   UNL     1       3.850   4.316  16.825  0.00  0.00    +0.000 A 
ATOM      9  C   UNL     1       5.050   4.860  16.374  0.00  0.00    +0.000 A 
ATOM     10  C   UNL     1       5.399   6.151  16.749  0.00  0.00    +0.000 A 
ATOM     11  C   UNL     1       4.526   6.907  17.532  0.00  0.00    +0.000 A 
ATOM     12  C   UNL     1       3.316   6.371  18.006  0.00  0.00    +0.000 A 
BRANCH   7  13
ATOM     13  C   UNL     1       1.740   4.306  18.137  0.00  0.00    +0.000 C 
BRANCH  13  17
ATOM     14  C   UNL     1       1.756   2.914  21.704  0.00  0.00    +0.000 C 
ATOM     15  C   UNL     1       1.702   3.882  20.548  0.00  0.00    +0.000 C 
ATOM     16  O   UNL     1       1.460   5.080  20.765  0.00  0.00    +0.000 OA
ATOM     17  N   UNL     1       1.914   3.381  19.270  0.00  0.00    +0.000 N 
ATOM     18  C   UNL     1       2.066   1.961  18.966  0.00  0.00    +0.000 C 
ENDBRANCH  13  17
ENDBRANCH   7  13
ENDBRANCH   1  12
BRANCH   4  19
ATOM     19  C   UNL     1       0.689  10.431  18.745  0.00  0.00    +0.000 C 
BRANCH  19  20
ATOM     20  C   UNL     1      -0.739  10.763  19.211  0.00  0.00    +0.000 C 
BRANCH  20  21
ATOM     21  C   UNL     1      -1.796  10.615  18.151  0.00  0.00    +0.000 A 
ATOM     22  C   UNL     1      -1.794   9.839  17.007  0.00  0.00    +0.000 A 
ATOM     23  C   UNL     1      -2.985   9.994  16.243  0.00  0.00    +0.000 A 
ATOM     24  C   UNL     1      -3.871  10.863  16.836  0.00  0.00    +0.000 A 
ATOM     25  S   UNL     1      -3.270  11.482  18.310  0.00  0.00    +0.000 S 
ENDBRANCH  20  21
ENDBRANCH  19  20
ENDBRANCH   4  19
TORSDOF 6
ENDMDL
MODEL 2
REMARK VINA RESULT:      -7.3      1.883      2.434
REMARK  Name = 
REMARK  9 active torsions:
REMARK  status: ('A' for Active; 'I' for Inactive)
REMARK    1  A    between atoms: C_1  and  C_2
REMARK    2  A    between atoms: N_4  and  C_5
REMARK    3  A    between atoms: N_4  and  C_6
REMARK    4  A    between atoms: C_6  and  C_7
REMARK    5  A    between atoms: C_12  and  N_13
REMARK    6  A    between atoms: N_16  and  C_17
REMARK    7  A    between atoms: N_16  and  C_18
REMARK    8  A    between atoms: C_18  and  C_19
REMARK    9  A    between atoms: C_19  and  C_20
REMARK                            x       y       z     vdW  Elec       q    Type
REMARK                         _______ _______ _______ _____ _____    ______ ____
ROOT
ATOM      1  N   UNL     1       2.695   6.849  19.139  0.00  0.00    +0.000 N 
ATOM      2  C   UNL     1       2.048   8.034  18.819  0.00  0.00    +0.000 C 
ATOM      3  O   UNL     1       2.002   8.464  17.663  0.00  0.00    +0.000 OA
ATOM      4  N   UNL     1       1.412   8.715  19.860  0.00  0.00    +0.000 N 
ATOM      5  C   UNL     1       1.360   8.292  21.254  0.00  0.00    +0.000 C 
ATOM      6  H   UNL     1       2.292   6.310  19.888  0.00  0.00    +0.000 HD
ENDROOT
BRANCH   1  12
ATOM      7  C   UNL     1       3.075   4.866  17.658  0.00  0.00    +0.000 A 
ATOM      8  C   UNL     1       3.880   4.266  16.668  0.00  0.00    +0.000 A 
ATOM      9  C   UNL     1       5.073   4.849  16.245  0.00  0.00    +0.000 A 
ATOM     10  C   UNL     1       5.469   6.064  16.787  0.00  0.00    +0.000 A 
ATOM     11  C   UNL     1       4.649   6.712  17.713  0.00  0.00    +0.000 A 
ATOM     12  C   UNL     1       3.449   6.134  18.159  0.00  0.00    +0.000 A 
BRANCH   7  13
ATOM     13  C   UNL     1       1.830   4.101  18.061  0.00  0.00    +0.000 C 
BRANCH  13  17
ATOM     14  C   UNL     1       1.528   2.695  21.610  0.00  0.00    +0.000 C 
ATOM     15  C   UNL     1       1.498   3.654  20.445  0.00  0.00    +0.000 C 
ATOM     16  O   UNL     1       1.042   4.797  20.606  0.00  0.00    +0.000 OA
ATOM     17  N   UNL     1       1.975   3.204  19.220  0.00  0.00    +0.000 N 
ATOM     18  C   UNL     1       2.390   1.827  18.963  0.00  0.00    +0.000 C 
ENDBRANCH  13  17
ENDBRANCH   7  13
ENDBRANCH   1  12
BRANCH   4  19
ATOM     19  C   UNL     1       0.549   9.852  19.464  0.00  0.00    +0.000 C 
BRANCH  19  20
ATOM     20  C   UNL     1       0.713  11.186  20.212  0.00  0.00    +0.000 C 
BRANCH  20  21
ATOM     21  C   UNL     1      -0.419  11.528  21.142  0.00  0.00    +0.000 A 
ATOM     22  C   UNL     1      -0.614  11.168  22.461  0.00  0.00    +0.000 A 
ATOM     23  C   UNL     1      -1.833  11.679  22.990  0.00  0.00    +0.000 A 
ATOM     24  C   UNL     1      -2.520  12.434  22.069  0.00  0.00    +0.000 A 
ATOM     25  S   UNL     1      -1.694  12.530  20.576  0.00  0.00    +0.000 S 
ENDBRANCH  20  21
ENDBRANCH  19  20
ENDBRANCH   4  19
TORSDOF 6
ENDMDL
MODEL 3
REMARK VINA RESULT:      -7.2      1.340      1.869
REMARK  Name = 
REMARK  9 active torsions:
REMARK  status: ('A' for Active; 'I' for Inactive)
REMARK    1  A    between atoms: C_1  and  C_2
REMARK    2  A    between atoms: N_4  and  C_5
REMARK    3  A    between atoms: N_4  and  C_6
REMARK    4  A    between atoms: C_6  and  C_7
REMARK    5  A    between atoms: C_12  and  N_13
REMARK    6  A    between atoms: N_16  and  C_17
REMARK    7  A    between atoms: N_16  and  C_18
REMARK    8  A    between atoms: C_18  and  C_19
REMARK    9  A    between atoms: C_19  and  C_20
REMARK                            x       y       z     vdW  Elec       q    Type
REMARK                         _______ _______ _______ _____ _____    ______ ____
ROOT
ATOM      1  N   UNL     1       2.596   6.994  18.878  0.00  0.00    +0.000 N 
ATOM      2  C   UNL     1       2.162   8.243  18.458  0.00  0.00    +0.000 C 
ATOM      3  O   UNL     1       2.339   8.644  17.304  0.00  0.00    +0.000 OA
ATOM      4  N   UNL     1       1.478   9.028  19.389  0.00  0.00    +0.000 N 
ATOM      5  C   UNL     1       1.172   8.653  20.764  0.00  0.00    +0.000 C 
ATOM      6  H   UNL     1       2.023   6.532  19.566  0.00  0.00    +0.000 HD
ENDROOT
BRANCH   1  12
ATOM      7  C   UNL     1       3.004   4.855  17.643  0.00  0.00    +0.000 A 
ATOM      8  C   UNL     1       3.846   4.135  16.770  0.00  0.00    +0.000 A 
ATOM      9  C   UNL     1       5.073   4.646  16.353  0.00  0.00    +0.000 A 
ATOM     10  C   UNL     1       5.470   5.905  16.782  0.00  0.00    +0.000 A 
ATOM     11  C   UNL     1       4.619   6.666  17.585  0.00  0.00    +0.000 A 
ATOM     12  C   UNL     1       3.382   6.162  18.025  0.00  0.00    +0.000 A 
BRANCH   7  13
ATOM     13  C   UNL     1       1.722   4.162  18.058  0.00  0.00    +0.000 C 
BRANCH  13  17
ATOM     14  C   UNL     1       1.442   2.772  21.615  0.00  0.00    +0.000 C 
ATOM     15  C   UNL     1       1.456   3.737  20.454  0.00  0.00    +0.000 C 
ATOM     16  O   UNL     1       1.126   4.919  20.638  0.00  0.00    +0.000 OA
ATOM     17  N   UNL     1       1.827   3.248  19.207  0.00  0.00    +0.000 N 
ATOM     18  C   UNL     1       2.089   1.838  18.930  0.00  0.00    +0.000 C 
ENDBRANCH  13  17
ENDBRANCH   7  13
ENDBRANCH   1  12
BRANCH   4  19
ATOM     19  C   UNL     1       0.836  10.255  18.863  0.00  0.00    +0.000 C 
BRANCH  19  20
ATOM     20  C   UNL     1      -0.699  10.287  18.760  0.00  0.00    +0.000 C 
BRANCH  20  21
ATOM     21  C   UNL     1      -1.358  11.389  19.544  0.00  0.00    +0.000 A 
ATOM     22  C   UNL     1      -2.592  11.983  19.361  0.00  0.00    +0.000 A 
ATOM     23  C   UNL     1      -2.844  13.016  20.308  0.00  0.00    +0.000 A 
ATOM     24  C   UNL     1      -1.808  13.163  21.201  0.00  0.00    +0.000 A 
ATOM     25  S   UNL     1      -0.542  12.056  20.900  0.00  0.00    +0.000 S 
ENDBRANCH  20  21
ENDBRANCH  19  20
ENDBRANCH   4  19
TORSDOF 6
ENDMDL
MODEL 4
REMARK VINA RESULT:      -7.2      0.887      1.087
REMARK  Name = 
REMARK  9 active torsions:
REMARK  status: ('A' for Active; 'I' for Inactive)
REMARK    1  A    between atoms: C_1  and  C_2
REMARK    2  A    between atoms: N_4  and  C_5
REMARK    3  A    between atoms: N_4  and  C_6
REMARK    4  A    between atoms: C_6  and  C_7
REMARK    5  A    between atoms: C_12  and  N_13
REMARK    6  A    between atoms: N_16  and  C_17
REMARK    7  A    between atoms: N_16  and  C_18
REMARK    8  A    between atoms: C_18  and  C_19
REMARK    9  A    between atoms: C_19  and  C_20
REMARK                            x       y       z     vdW  Elec       q    Type
REMARK                         _______ _______ _______ _____ _____    ______ ____
ROOT
ATOM      1  N   UNL     1       2.955   6.870  18.698  0.00  0.00    +0.000 N 
ATOM      2  C   UNL     1       2.390   8.081  18.326  0.00  0.00    +0.000 C 
ATOM      3  O   UNL     1       2.490   8.526  17.178  0.00  0.00    +0.000 OA
ATOM      4  N   UNL     1       1.665   8.773  19.298  0.00  0.00    +0.000 N 
ATOM      5  C   UNL     1       1.440   8.336  20.670  0.00  0.00    +0.000 C 
ATOM      6  H   UNL     1       2.451   6.337  19.388  0.00  0.00    +0.000 HD
ENDROOT
BRANCH   1  12
ATOM      7  C   UNL     1       3.552   4.795  17.431  0.00  0.00    +0.000 A 
ATOM      8  C   UNL     1       4.427   4.181  16.509  0.00  0.00    +0.000 A 
ATOM      9  C   UNL     1       5.558   4.837  16.030  0.00  0.00    +0.000 A 
ATOM     10  C   UNL     1       5.821   6.136  16.443  0.00  0.00    +0.000 A 
ATOM     11  C   UNL     1       4.929   6.788  17.295  0.00  0.00    +0.000 A 
ATOM     12  C   UNL     1       3.789   6.139  17.798  0.00  0.00    +0.000 A 
BRANCH   7  13
ATOM     13  C   UNL     1       2.388   3.951  17.911  0.00  0.00    +0.000 C 
BRANCH  13  17
ATOM     14  C   UNL     1       1.919   2.976  21.583  0.00  0.00    +0.000 C 
ATOM     15  C   UNL     1       1.829   3.739  20.284  0.00  0.00    +0.000 C 
ATOM     16  O   UNL     1       1.093   4.735  20.211  0.00  0.00    +0.000 OA
ATOM     17  N   UNL     1       2.574   3.276  19.206  0.00  0.00    +0.000 N 
ATOM     18  C   UNL     1       3.341   2.034  19.219  0.00  0.00    +0.000 C 
ENDBRANCH  13  17
ENDBRANCH   7  13
ENDBRANCH   1  12
BRANCH   4  19
ATOM     19  C   UNL     1       0.892   9.945  18.825  0.00  0.00    +0.000 C 
BRANCH  19  20
ATOM     20  C   UNL     1      -0.368  10.352  19.609  0.00  0.00    +0.000 C 
BRANCH  20  21
ATOM     21  C   UNL     1      -1.544  10.734  18.754  0.00  0.00    +0.000 A 
ATOM     22  C   UNL     1      -2.551  11.648  18.998  0.00  0.00    +0.000 A 
ATOM     23  C   UNL     1      -3.503  11.705  17.941  0.00  0.00    +0.000 A 
ATOM     24  C   UNL     1      -3.183  10.852  16.910  0.00  0.00    +0.000 A 
ATOM     25  S   UNL     1      -1.738   9.994  17.216  0.00  0.00    +0.000 S 
ENDBRANCH  20  21
ENDBRANCH  19  20
ENDBRANCH   4  19
TORSDOF 6
ENDMDL
MODEL 5
REMARK VINA RESULT:      -7.1      0.889      1.125
REMARK  Name = 
REMARK  9 active torsions:
REMARK  status: ('A' for Active; 'I' for Inactive)
REMARK    1  A    between atoms: C_1  and  C_2
REMARK    2  A    between atoms: N_4  and  C_5
REMARK    3  A    between atoms: N_4  and  C_6
REMARK    4  A    between atoms: C_6  and  C_7
REMARK    5  A    between atoms: C_12  and  N_13
REMARK    6  A    between atoms: N_16  and  C_17
REMARK    7  A    between atoms: N_16  and  C_18
REMARK    8  A    between atoms: C_18  and  C_19
REMARK    9  A    between atoms: C_19  and  C_20
REMARK                            x       y       z     vdW  Elec       q    Type
REMARK                         _______ _______ _______ _____ _____    ______ ____
ROOT
ATOM      1  N   UNL     1       2.425   7.249  18.852  0.00  0.00    +0.000 N 
ATOM      2  C   UNL     1       2.018   8.494  18.395  0.00  0.00    +0.000 C 
ATOM      3  O   UNL     1       2.227   8.867  17.237  0.00  0.00    +0.000 OA
ATOM      4  N   UNL     1       1.323   9.308  19.292  0.00  0.00    +0.000 N 
ATOM      5  C   UNL     1       0.979   8.967  20.667  0.00  0.00    +0.000 C 
ATOM      6  H   UNL     1       1.829   6.809  19.536  0.00  0.00    +0.000 HD
ENDROOT
BRANCH   1  12
ATOM      7  C   UNL     1       2.913   5.028  17.806  0.00  0.00    +0.000 A 
ATOM      8  C   UNL     1       3.754   4.279  16.956  0.00  0.00    +0.000 A 
ATOM      9  C   UNL     1       4.918   4.823  16.417  0.00  0.00    +0.000 A 
ATOM     10  C   UNL     1       5.248   6.142  16.698  0.00  0.00    +0.000 A 
ATOM     11  C   UNL     1       4.392   6.923  17.475  0.00  0.00    +0.000 A 
ATOM     12  C   UNL     1       3.219   6.388  18.036  0.00  0.00    +0.000 A 
BRANCH   7  13
ATOM     13  C   UNL     1       1.707   4.298  18.364  0.00  0.00    +0.000 C 
BRANCH  13  17
ATOM     14  C   UNL     1       2.525   2.401  21.587  0.00  0.00    +0.000 C 
ATOM     15  C   UNL     1       2.339   2.718  20.123  0.00  0.00    +0.000 C 
ATOM     16  O   UNL     1       2.704   1.896  19.269  0.00  0.00    +0.000 OA
ATOM     17  N   UNL     1       1.773   3.943  19.791  0.00  0.00    +0.000 N 
ATOM     18  C   UNL     1       1.459   4.986  20.763  0.00  0.00    +0.000 C 
ENDBRANCH  13  17
ENDBRANCH   7  13
ENDBRANCH   1  12
BRANCH   4  19
ATOM     19  C   UNL     1       0.711  10.531  18.724  0.00  0.00    +0.000 C 
BRANCH  19  20
ATOM     20  C   UNL     1      -0.716  10.904  19.164  0.00  0.00    +0.000 C 
BRANCH  20  21
ATOM     21  C   UNL     1      -1.775  10.672  18.122  0.00  0.00    +0.000 A 
ATOM     22  C   UNL     1      -1.756   9.844  17.015  0.00  0.00    +0.000 A 
ATOM     23  C   UNL     1      -2.956   9.924  16.254  0.00  0.00    +0.000 A 
ATOM     24  C   UNL     1      -3.867  10.789  16.815  0.00  0.00    +0.000 A 
ATOM     25  S   UNL     1      -3.275  11.496  18.254  0.00  0.00    +0.000 S 
ENDBRANCH  20  21
ENDBRANCH  19  20
ENDBRANCH   4  19
TORSDOF 6
ENDMDL
MODEL 6
REMARK VINA RESULT:      -7.1      1.965      2.410
REMARK  Name = 
REMARK  9 active torsions:
REMARK  status: ('A' for Active; 'I' for Inactive)
REMARK    1  A    between atoms: C_1  and  C_2
REMARK    2  A    between atoms: N_4  and  C_5
REMARK    3  A    between atoms: N_4  and  C_6
REMARK    4  A    between atoms: C_6  and  C_7
REMARK    5  A    between atoms: C_12  and  N_13
REMARK    6  A    between atoms: N_16  and  C_17
REMARK    7  A    between atoms: N_16  and  C_18
REMARK    8  A    between atoms: C_18  and  C_19
REMARK    9  A    between atoms: C_19  and  C_20
REMARK                            x       y       z     vdW  Elec       q    Type
REMARK                         _______ _______ _______ _____ _____    ______ ____
ROOT
ATOM      1  N   UNL     1       2.794   6.858  18.871  0.00  0.00    +0.000 N 
ATOM      2  C   UNL     1       2.248   8.067  18.466  0.00  0.00    +0.000 C 
ATOM      3  O   UNL     1       2.339   8.470  17.302  0.00  0.00    +0.000 OA
ATOM      4  N   UNL     1       1.552   8.806  19.424  0.00  0.00    +0.000 N 
ATOM      5  C   UNL     1       1.340   8.421  20.814  0.00  0.00    +0.000 C 
ATOM      6  H   UNL     1       2.291   6.360  19.587  0.00  0.00    +0.000 HD
ENDROOT
BRANCH   1  12
ATOM      7  C   UNL     1       3.259   4.776  17.561  0.00  0.00    +0.000 A 
ATOM      8  C   UNL     1       4.117   4.112  16.659  0.00  0.00    +0.000 A 
ATOM      9  C   UNL     1       5.324   4.674  16.252  0.00  0.00    +0.000 A 
ATOM     10  C   UNL     1       5.685   5.930  16.722  0.00  0.00    +0.000 A 
ATOM     11  C   UNL     1       4.817   6.636  17.555  0.00  0.00    +0.000 A 
ATOM     12  C   UNL     1       3.600   6.080  17.985  0.00  0.00    +0.000 A 
BRANCH   7  13
ATOM     13  C   UNL     1       2.001   4.029  17.959  0.00  0.00    +0.000 C 
BRANCH  13  17
ATOM     14  C   UNL     1       1.573   2.788  21.556  0.00  0.00    +0.000 C 
ATOM     15  C   UNL     1       1.582   3.692  20.347  0.00  0.00    +0.000 C 
ATOM     16  O   UNL     1       1.115   4.838  20.438  0.00  0.00    +0.000 OA
ATOM     17  N   UNL     1       2.107   3.188  19.163  0.00  0.00    +0.000 N 
ATOM     18  C   UNL     1       2.538   1.805  18.987  0.00  0.00    +0.000 C 
ENDBRANCH  13  17
ENDBRANCH   7  13
ENDBRANCH   1  12
BRANCH   4  19
ATOM     19  C   UNL     1       0.795   9.977  18.923  0.00  0.00    +0.000 C 
BRANCH  19  20
ATOM     20  C   UNL     1       0.091  10.883  19.948  0.00  0.00    +0.000 C 
BRANCH  20  21
ATOM     21  C   UNL     1       0.192  12.355  19.660  0.00  0.00    +0.000 A 
ATOM     22  C   UNL     1      -0.546  13.135  18.790  0.00  0.00    +0.000 A 
ATOM     23  C   UNL     1      -0.125  14.495  18.787  0.00  0.00    +0.000 A 
ATOM     24  C   UNL     1       0.904  14.720  19.672  0.00  0.00    +0.000 A 
ATOM     25  S   UNL     1       1.353  13.297  20.505  0.00  0.00    +0.000 S 
ENDBRANCH  20  21
ENDBRANCH  19  20
ENDBRANCH   4  19
TORSDOF 6
ENDMDL
MODEL 7
REMARK VINA RESULT:      -7.0      3.879      7.605
REMARK  Name = 
REMARK  9 active torsions:
REMARK  status: ('A' for Active; 'I' for Inactive)
REMARK    1  A    between atoms: C_1  and  C_2
REMARK    2  A    between atoms: N_4  and  C_5
REMARK    3  A    between atoms: N_4  and  C_6
REMARK    4  A    between atoms: C_6  and  C_7
REMARK    5  A    between atoms: C_12  and  N_13
REMARK    6  A    between atoms: N_16  and  C_17
REMARK    7  A    between atoms: N_16  and  C_18
REMARK    8  A    between atoms: C_18  and  C_19
REMARK    9  A    between atoms: C_19  and  C_20
REMARK                            x       y       z     vdW  Elec       q    Type
REMARK                         _______ _______ _______ _____ _____    ______ ____
ROOT
ATOM      1  N   UNL     1       4.731   4.808  19.495  0.00  0.00    +0.000 N 
ATOM      2  C   UNL     1       5.388   4.380  18.350  0.00  0.00    +0.000 C 
ATOM      3  O   UNL     1       4.825   3.698  17.488  0.00  0.00    +0.000 OA
ATOM      4  N   UNL     1       6.715   4.782  18.187  0.00  0.00    +0.000 N 
ATOM      5  C   UNL     1       7.476   5.617  19.109  0.00  0.00    +0.000 C 
ATOM      6  H   UNL     1       5.008   5.706  19.857  0.00  0.00    +0.000 HD
ENDROOT
BRANCH   1  12
ATOM      7  C   UNL     1       2.360   5.244  20.167  0.00  0.00    +0.000 A 
ATOM      8  C   UNL     1       1.078   4.704  20.406  0.00  0.00    +0.000 A 
ATOM      9  C   UNL     1       0.847   3.331  20.367  0.00  0.00    +0.000 A 
ATOM     10  C   UNL     1       1.893   2.470  20.059  0.00  0.00    +0.000 A 
ATOM     11  C   UNL     1       3.150   2.989  19.746  0.00  0.00    +0.000 A 
ATOM     12  C   UNL     1       3.405   4.370  19.791  0.00  0.00    +0.000 A 
BRANCH   7  13
ATOM     13  C   UNL     1       2.483   6.750  20.290  0.00  0.00    +0.000 C 
BRANCH  13  17
ATOM     14  C   UNL     1       1.334   9.556  17.953  0.00  0.00    +0.000 C 
ATOM     15  C   UNL     1       1.498   8.698  19.184  0.00  0.00    +0.000 C 
ATOM     16  O   UNL     1       1.002   9.071  20.258  0.00  0.00    +0.000 OA
ATOM     17  N   UNL     1       2.223   7.519  19.062  0.00  0.00    +0.000 N 
ATOM     18  C   UNL     1       2.933   7.120  17.850  0.00  0.00    +0.000 C 
ENDBRANCH  13  17
ENDBRANCH   7  13
ENDBRANCH   1  12
BRANCH   4  19
ATOM     19  C   UNL     1       7.325   4.503  16.866  0.00  0.00    +0.000 C 
BRANCH  19  20
ATOM     20  C   UNL     1       7.017   5.462  15.704  0.00  0.00    +0.000 C 
BRANCH  20  21
ATOM     21  C   UNL     1       6.816   4.792  14.373  0.00  0.00    +0.000 A 
ATOM     22  C   UNL     1       5.872   3.859  13.989  0.00  0.00    +0.000 A 
ATOM     23  C   UNL     1       6.030   3.448  12.636  0.00  0.00    +0.000 A 
ATOM     24  C   UNL     1       7.073   4.097  12.017  0.00  0.00    +0.000 A 
ATOM     25  S   UNL     1       7.852   5.199  13.065  0.00  0.00    +0.000 S 
ENDBRANCH  20  21
ENDBRANCH  19  20
ENDBRANCH   4  19
TORSDOF 6
ENDMDL
MODEL 8
REMARK VINA RESULT:      -7.0      1.915      2.686
REMARK  Name = 
REMARK  9 active torsions:
REMARK  status: ('A' for Active; 'I' for Inactive)
REMARK    1  A    between atoms: C_1  and  C_2
REMARK    2  A    between atoms: N_4  and  C_5
REMARK    3  A    between atoms: N_4  and  C_6
REMARK    4  A    between atoms: C_6  and  C_7
REMARK    5  A    between atoms: C_12  and  N_13
REMARK    6  A    between atoms: N_16  and  C_17
REMARK    7  A    between atoms: N_16  and  C_18
REMARK    8  A    between atoms: C_18  and  C_19
REMARK    9  A    between atoms: C_19  and  C_20
REMARK                            x       y       z     vdW  Elec       q    Type
REMARK                         _______ _______ _______ _____ _____    ______ ____
ROOT
ATOM      1  N   UNL     1       2.754   6.899  18.908  0.00  0.00    +0.000 N 
ATOM      2  C   UNL     1       2.157   8.099  18.548  0.00  0.00    +0.000 C 
ATOM      3  O   UNL     1       2.174   8.515  17.386  0.00  0.00    +0.000 OA
ATOM      4  N   UNL     1       1.497   8.811  19.552  0.00  0.00    +0.000 N 
ATOM      5  C   UNL     1       1.372   8.407  20.947  0.00  0.00    +0.000 C 
ATOM      6  H   UNL     1       2.303   6.382  19.646  0.00  0.00    +0.000 HD
ENDROOT
BRANCH   1  12
ATOM      7  C   UNL     1       3.184   4.849  17.538  0.00  0.00    +0.000 A 
ATOM      8  C   UNL     1       4.007   4.215  16.583  0.00  0.00    +0.000 A 
ATOM      9  C   UNL     1       5.187   4.802  16.132  0.00  0.00    +0.000 A 
ATOM     10  C   UNL     1       5.553   6.053  16.609  0.00  0.00    +0.000 A 
ATOM     11  C   UNL     1       4.715   6.731  17.496  0.00  0.00    +0.000 A 
ATOM     12  C   UNL     1       3.527   6.150  17.971  0.00  0.00    +0.000 A 
BRANCH   7  13
ATOM     13  C   UNL     1       1.957   4.077  17.980  0.00  0.00    +0.000 C 
BRANCH  13  17
ATOM     14  C   UNL     1       1.649   2.808  21.579  0.00  0.00    +0.000 C 
ATOM     15  C   UNL     1       1.595   3.715  20.373  0.00  0.00    +0.000 C 
ATOM     16  O   UNL     1       1.078   4.838  20.476  0.00  0.00    +0.000 OA
ATOM     17  N   UNL     1       2.121   3.238  19.179  0.00  0.00    +0.000 N 
ATOM     18  C   UNL     1       2.612   1.876  18.990  0.00  0.00    +0.000 C 
ENDBRANCH  13  17
ENDBRANCH   7  13
ENDBRANCH   1  12
BRANCH   4  19
ATOM     19  C   UNL     1       0.686   9.968  19.106  0.00  0.00    +0.000 C 
BRANCH  19  20
ATOM     20  C   UNL     1       1.279  11.378  19.265  0.00  0.00    +0.000 C 
BRANCH  20  21
ATOM     21  C   UNL     1       0.673  12.194  20.373  0.00  0.00    +0.000 A 
ATOM     22  C   UNL     1       0.971  13.478  20.786  0.00  0.00    +0.000 A 
ATOM     23  C   UNL     1       0.181  13.890  21.897  0.00  0.00    +0.000 A 
ATOM     24  C   UNL     1      -0.714  12.919  22.283  0.00  0.00    +0.000 A 
ATOM     25  S   UNL     1      -0.603  11.522  21.306  0.00  0.00    +0.000 S 
ENDBRANCH  20  21
ENDBRANCH  19  20
ENDBRANCH   4  19
TORSDOF 6
ENDMDL
MODEL 9
REMARK VINA RESULT:      -7.0      3.845      7.666
REMARK  Name = 
REMARK  9 active torsions:
REMARK  status: ('A' for Active; 'I' for Inactive)
REMARK    1  A    between atoms: C_1  and  C_2
REMARK    2  A    between atoms: N_4  and  C_5
REMARK    3  A    between atoms: N_4  and  C_6
REMARK    4  A    between atoms: C_6  and  C_7
REMARK    5  A    between atoms: C_12  and  N_13
REMARK    6  A    between atoms: N_16  and  C_17
REMARK    7  A    between atoms: N_16  and  C_18
REMARK    8  A    between atoms: C_18  and  C_19
REMARK    9  A    between atoms: C_19  and  C_20
REMARK                            x       y       z     vdW  Elec       q    Type
REMARK                         _______ _______ _______ _____ _____    ______ ____
ROOT
ATOM      1  N   UNL     1       4.879   4.937  19.463  0.00  0.00    +0.000 N 
ATOM      2  C   UNL     1       5.502   4.467  18.316  0.00  0.00    +0.000 C 
ATOM      3  O   UNL     1       4.905   3.781  17.481  0.00  0.00    +0.000 OA
ATOM      4  N   UNL     1       6.836   4.829  18.120  0.00  0.00    +0.000 N 
ATOM      5  C   UNL     1       7.636   5.664  19.008  0.00  0.00    +0.000 C 
ATOM      6  H   UNL     1       5.186   5.836  19.799  0.00  0.00    +0.000 HD
ENDROOT
BRANCH   1  12
ATOM      7  C   UNL     1       2.399   5.271  19.408  0.00  0.00    +0.000 A 
ATOM      8  C   UNL     1       1.129   4.770  19.764  0.00  0.00    +0.000 A 
ATOM      9  C   UNL     1       0.989   3.632  20.555  0.00  0.00    +0.000 A 
ATOM     10  C   UNL     1       2.122   2.956  20.984  0.00  0.00    +0.000 A 
ATOM     11  C   UNL     1       3.386   3.391  20.582  0.00  0.00    +0.000 A 
ATOM     12  C   UNL     1       3.547   4.543  19.793  0.00  0.00    +0.000 A 
BRANCH   7  13
ATOM     13  C   UNL     1       2.408   6.545  18.586  0.00  0.00    +0.000 C 
BRANCH  13  17
ATOM     14  C   UNL     1       1.202  10.121  19.227  0.00  0.00    +0.000 C 
ATOM     15  C   UNL     1       1.743   8.899  18.526  0.00  0.00    +0.000 C 
ATOM     16  O   UNL     1       1.929   8.932  17.300  0.00  0.00    +0.000 OA
ATOM     17  N   UNL     1       1.997   7.769  19.293  0.00  0.00    +0.000 N 
ATOM     18  C   UNL     1       1.662   7.653  20.710  0.00  0.00    +0.000 C 
ENDBRANCH  13  17
ENDBRANCH   7  13
ENDBRANCH   1  12
BRANCH   4  19
ATOM     19  C   UNL     1       7.413   4.503  16.795  0.00  0.00    +0.000 C 
BRANCH  19  20
ATOM     20  C   UNL     1       7.133   5.459  15.623  0.00  0.00    +0.000 C 
BRANCH  20  21
ATOM     21  C   UNL     1       6.865   4.780  14.309  0.00  0.00    +0.000 A 
ATOM     22  C   UNL     1       5.888   3.862  13.974  0.00  0.00    +0.000 A 
ATOM     23  C   UNL     1       5.984   3.434  12.619  0.00  0.00    +0.000 A 
ATOM     24  C   UNL     1       7.014   4.056  11.952  0.00  0.00    +0.000 A 
ATOM     25  S   UNL     1       7.855   5.153  12.956  0.00  0.00    +0.000 S 
ENDBRANCH  20  21
ENDBRANCH  19  20
ENDBRANCH   4  19
TORSDOF 6
ENDMDL
