MODEL 1
REMARK VINA RESULT:      -7.1      0.000      0.000
REMARK  Name = 
REMARK  10 active torsions:
REMARK  status: ('A' for Active; 'I' for Inactive)
REMARK    1  A    between atoms: C_1  and  C_2
REMARK    2  A    between atoms: C_2  and  O_3
REMARK    3  A    between atoms: O_3  and  C_4
REMARK    4  A    between atoms: C_4  and  C_5
REMARK    5  A    between atoms: C_5  and  O_6
REMARK    6  A    between atoms: O_6  and  C_7
REMARK    7  A    between atoms: C_7  and  C_8
REMARK    8  A    between atoms: C_12  and  C_13
REMARK    9  A    between atoms: C_13  and  N_14
REMARK   10  A    between atoms: C_19  and  N_20
REMARK                            x       y       z     vdW  Elec       q    Type
REMARK                         _______ _______ _______ _____ _____    ______ ____
ROOT
ATOM      1  C   UNL     1       2.976   5.714  18.905  0.00  0.00    +0.000 C 
ENDROOT
BRANCH   1   2
ATOM      2  N   UNL     1       4.182   5.639  19.717  0.00  0.00    +0.000 N 
ATOM      3  C   UNL     1       5.346   5.371  18.975  0.00  0.00    +0.000 A 
ATOM      4  C   UNL     1       6.577   5.261  19.634  0.00  0.00    +0.000 A 
ATOM      5  N   UNL     1       7.744   4.949  19.012  0.00  0.00    +0.000 NA
ATOM      6  C   UNL     1       7.647   4.765  17.676  0.00  0.00    +0.000 A 
ATOM      7  C   UNL     1       6.447   4.903  16.991  0.00  0.00    +0.000 A 
ATOM      8  N   UNL     1       5.285   5.221  17.633  0.00  0.00    +0.000 NA
ATOM      9  H   UNL     1       4.087   4.944  20.452  0.00  0.00    +0.000 HD
BRANCH   7  10
ATOM     10  N   UNL     1       6.425   4.689  15.590  0.00  0.00    +0.000 N 
ATOM     11  C   UNL     1       5.469   3.984  14.886  0.00  0.00    +0.000 A 
ATOM     12  C   UNL     1       5.841   4.008  13.565  0.00  0.00    +0.000 A 
ATOM     13  C   UNL     1       7.040   4.738  13.552  0.00  0.00    +0.000 A 
ATOM     14  N   UNL     1       7.398   5.161  14.766  0.00  0.00    +0.000 NA
ENDBRANCH   7  10
ENDBRANCH   1   2
BRANCH   1  19
ATOM     15  C   UNL     1       1.285   8.968  20.012  0.00  0.00    +0.000 A 
ATOM     16  C   UNL     1       1.347   9.712  18.827  0.00  0.00    +0.000 A 
ATOM     17  C   UNL     1       1.957   9.180  17.691  0.00  0.00    +0.000 A 
ATOM     18  C   UNL     1       2.497   7.896  17.721  0.00  0.00    +0.000 A 
ATOM     19  C   UNL     1       2.441   7.129  18.892  0.00  0.00    +0.000 A 
ATOM     20  C   UNL     1       1.854   7.685  20.040  0.00  0.00    +0.000 A 
BRANCH  15  21
ATOM     21  C   UNL     1       0.557   9.510  21.215  0.00  0.00    +0.000 C 
BRANCH  21  22
ATOM     22  O   UNL     1      -0.688  10.074  20.812  0.00  0.00    +0.000 OA
BRANCH  22  23
ATOM     23  C   UNL     1      -0.725  11.473  21.092  0.00  0.00    +0.000 C 
BRANCH  23  24
ATOM     24  C   UNL     1      -1.776  12.140  20.215  0.00  0.00    +0.000 C 
BRANCH  24  25
ATOM     25  O   UNL     1      -1.438  11.935  18.844  0.00  0.00    +0.000 OA
BRANCH  25  27
ATOM     26  C   UNL     1      -1.937  10.112  17.389  0.00  0.00    +0.000 C 
ATOM     27  C   UNL     1      -2.501  11.308  18.131  0.00  0.00    +0.000 C 
ENDBRANCH  25  27
ENDBRANCH  24  25
ENDBRANCH  23  24
ENDBRANCH  22  23
ENDBRANCH  21  22
ENDBRANCH  15  21
ENDBRANCH   1  19
TORSDOF 9
ENDMDL
MODEL 2
REMARK VINA RESULT:      -7.0      4.152      8.900
REMARK  Name = 
REMARK  10 active torsions:
REMARK  status: ('A' for Active; 'I' for Inactive)
REMARK    1  A    between atoms: C_1  and  C_2
REMARK    2  A    between atoms: C_2  and  O_3
REMARK    3  A    between atoms: O_3  and  C_4
REMARK    4  A    between atoms: C_4  and  C_5
REMARK    5  A    between atoms: C_5  and  O_6
REMARK    6  A    between atoms: O_6  and  C_7
REMARK    7  A    between atoms: C_7  and  C_8
REMARK    8  A    between atoms: C_12  and  C_13
REMARK    9  A    between atoms: C_13  and  N_14
REMARK   10  A    between atoms: C_19  and  N_20
REMARK                            x       y       z     vdW  Elec       q    Type
REMARK                         _______ _______ _______ _____ _____    ______ ____
ROOT
ATOM      1  C   UNL     1       2.053   7.385  19.857  0.00  0.00    +0.000 C 
ENDROOT
BRANCH   1   2
ATOM      2  N   UNL     1       1.932   7.793  21.250  0.00  0.00    +0.000 N 
ATOM      3  C   UNL     1       1.001   8.827  21.456  0.00  0.00    +0.000 A 
ATOM      4  C   UNL     1       0.795   9.323  22.749  0.00  0.00    +0.000 A 
ATOM      5  N   UNL     1      -0.038  10.356  23.039  0.00  0.00    +0.000 NA
ATOM      6  C   UNL     1      -0.691  10.879  21.977  0.00  0.00    +0.000 A 
ATOM      7  C   UNL     1      -0.534  10.383  20.689  0.00  0.00    +0.000 A 
ATOM      8  N   UNL     1       0.306   9.341  20.417  0.00  0.00    +0.000 NA
ATOM      9  H   UNL     1       2.832   8.072  21.629  0.00  0.00    +0.000 HD
BRANCH   7  10
ATOM     10  N   UNL     1      -1.249  10.988  19.625  0.00  0.00    +0.000 N 
ATOM     11  C   UNL     1      -2.242  11.939  19.745  0.00  0.00    +0.000 A 
ATOM     12  C   UNL     1      -2.672  12.234  18.475  0.00  0.00    +0.000 A 
ATOM     13  C   UNL     1      -1.899  11.412  17.642  0.00  0.00    +0.000 A 
ATOM     14  N   UNL     1      -1.031  10.661  18.324  0.00  0.00    +0.000 NA
ENDBRANCH   7  10
ENDBRANCH   1   2
BRANCH   1  19
ATOM     15  C   UNL     1       3.857   4.243  18.613  0.00  0.00    +0.000 A 
ATOM     16  C   UNL     1       3.419   3.300  19.552  0.00  0.00    +0.000 A 
ATOM     17  C   UNL     1       2.575   3.682  20.593  0.00  0.00    +0.000 A 
ATOM     18  C   UNL     1       2.147   5.004  20.702  0.00  0.00    +0.000 A 
ATOM     19  C   UNL     1       2.565   5.964  19.771  0.00  0.00    +0.000 A 
ATOM     20  C   UNL     1       3.441   5.578  18.744  0.00  0.00    +0.000 A 
BRANCH  15  21
ATOM     21  C   UNL     1       4.704   3.816  17.442  0.00  0.00    +0.000 C 
BRANCH  21  22
ATOM     22  O   UNL     1       4.564   4.753  16.378  0.00  0.00    +0.000 OA
BRANCH  22  23
ATOM     23  C   UNL     1       5.723   4.751  15.545  0.00  0.00    +0.000 C 
BRANCH  23  24
ATOM     24  C   UNL     1       6.971   4.876  16.407  0.00  0.00    +0.000 C 
BRANCH  24  25
ATOM     25  O   UNL     1       7.486   6.203  16.294  0.00  0.00    +0.000 OA
BRANCH  25  27
ATOM     26  C   UNL     1       7.605   5.900  18.657  0.00  0.00    +0.000 C 
ATOM     27  C   UNL     1       7.411   6.900  17.535  0.00  0.00    +0.000 C 
ENDBRANCH  25  27
ENDBRANCH  24  25
ENDBRANCH  23  24
ENDBRANCH  22  23
ENDBRANCH  21  22
ENDBRANCH  15  21
ENDBRANCH   1  19
TORSDOF 9
ENDMDL
MODEL 3
REMARK VINA RESULT:      -7.0      4.427      8.894
REMARK  Name = 
REMARK  10 active torsions:
REMARK  status: ('A' for Active; 'I' for Inactive)
REMARK    1  A    between atoms: C_1  and  C_2
REMARK    2  A    between atoms: C_2  and  O_3
REMARK    3  A    between atoms: O_3  and  C_4
REMARK    4  A    between atoms: C_4  and  C_5
REMARK    5  A    between atoms: C_5  and  O_6
REMARK    6  A    between atoms: O_6  and  C_7
REMARK    7  A    between atoms: C_7  and  C_8
REMARK    8  A    between atoms: C_12  and  C_13
REMARK    9  A    between atoms: C_13  and  N_14
REMARK   10  A    between atoms: C_19  and  N_20
REMARK                            x       y       z     vdW  Elec       q    Type
REMARK                         _______ _______ _______ _____ _____    ______ ____
ROOT
ATOM      1  C   UNL     1       2.056   7.462  20.172  0.00  0.00    +0.000 C 
ENDROOT
BRANCH   1   2
ATOM      2  N   UNL     1       1.639   7.718  21.544  0.00  0.00    +0.000 N 
ATOM      3  C   UNL     1       0.889   8.898  21.695  0.00  0.00    +0.000 A 
ATOM      4  C   UNL     1       0.434   9.271  22.966  0.00  0.00    +0.000 A 
ATOM      5  N   UNL     1      -0.247  10.418  23.219  0.00  0.00    +0.000 NA
ATOM      6  C   UNL     1      -0.485  11.193  22.137  0.00  0.00    +0.000 A 
ATOM      7  C   UNL     1      -0.078  10.830  20.859  0.00  0.00    +0.000 A 
ATOM      8  N   UNL     1       0.603   9.671  20.623  0.00  0.00    +0.000 NA
ATOM      9  H   UNL     1       2.440   7.748  22.170  0.00  0.00    +0.000 HD
BRANCH   7  10
ATOM     10  N   UNL     1      -0.359  11.698  19.774  0.00  0.00    +0.000 N 
ATOM     11  C   UNL     1       0.148  12.968  19.590  0.00  0.00    +0.000 A 
ATOM     12  C   UNL     1      -0.396  13.455  18.428  0.00  0.00    +0.000 A 
ATOM     13  C   UNL     1      -1.231  12.424  17.972  0.00  0.00    +0.000 A 
ATOM     14  N   UNL     1      -1.211  11.355  18.771  0.00  0.00    +0.000 NA
ENDBRANCH   7  10
ENDBRANCH   1   2
BRANCH   1  19
ATOM     15  C   UNL     1       3.073   4.073  18.702  0.00  0.00    +0.000 A 
ATOM     16  C   UNL     1       2.183   3.221  19.369  0.00  0.00    +0.000 A 
ATOM     17  C   UNL     1       1.285   3.732  20.306  0.00  0.00    +0.000 A 
ATOM     18  C   UNL     1       1.256   5.098  20.578  0.00  0.00    +0.000 A 
ATOM     19  C   UNL     1       2.131   5.972  19.919  0.00  0.00    +0.000 A 
ATOM     20  C   UNL     1       3.053   5.446  19.001  0.00  0.00    +0.000 A 
BRANCH  15  21
ATOM     21  C   UNL     1       3.987   3.535  17.633  0.00  0.00    +0.000 C 
BRANCH  21  22
ATOM     22  O   UNL     1       5.167   4.330  17.562  0.00  0.00    +0.000 OA
BRANCH  22  23
ATOM     23  C   UNL     1       5.720   4.301  16.246  0.00  0.00    +0.000 C 
BRANCH  23  24
ATOM     24  C   UNL     1       7.189   4.695  16.302  0.00  0.00    +0.000 C 
BRANCH  24  25
ATOM     25  O   UNL     1       7.289   6.118  16.349  0.00  0.00    +0.000 OA
BRANCH  25  27
ATOM     26  C   UNL     1       7.748   8.078  17.630  0.00  0.00    +0.000 C 
ATOM     27  C   UNL     1       7.497   6.584  17.680  0.00  0.00    +0.000 C 
ENDBRANCH  25  27
ENDBRANCH  24  25
ENDBRANCH  23  24
ENDBRANCH  22  23
ENDBRANCH  21  22
ENDBRANCH  15  21
ENDBRANCH   1  19
TORSDOF 9
ENDMDL
MODEL 4
REMARK VINA RESULT:      -7.0      4.521      8.996
REMARK  Name = 
REMARK  10 active torsions:
REMARK  status: ('A' for Active; 'I' for Inactive)
REMARK    1  A    between atoms: C_1  and  C_2
REMARK    2  A    between atoms: C_2  and  O_3
REMARK    3  A    between atoms: O_3  and  C_4
REMARK    4  A    between atoms: C_4  and  C_5
REMARK    5  A    between atoms: C_5  and  O_6
REMARK    6  A    between atoms: O_6  and  C_7
REMARK    7  A    between atoms: C_7  and  C_8
REMARK    8  A    between atoms: C_12  and  C_13
REMARK    9  A    between atoms: C_13  and  N_14
REMARK   10  A    between atoms: C_19  and  N_20
REMARK                            x       y       z     vdW  Elec       q    Type
REMARK                         _______ _______ _______ _____ _____    ______ ____
ROOT
ATOM      1  C   UNL     1       1.906   7.593  20.247  0.00  0.00    +0.000 C 
ENDROOT
BRANCH   1   2
ATOM      2  N   UNL     1       1.406   7.816  21.597  0.00  0.00    +0.000 N 
ATOM      3  C   UNL     1       0.745   9.047  21.758  0.00  0.00    +0.000 A 
ATOM      4  C   UNL     1       0.224   9.393  23.011  0.00  0.00    +0.000 A 
ATOM      5  N   UNL     1      -0.378  10.581  23.278  0.00  0.00    +0.000 NA
ATOM      6  C   UNL     1      -0.466  11.426  22.226  0.00  0.00    +0.000 A 
ATOM      7  C   UNL     1       0.009  11.094  20.964  0.00  0.00    +0.000 A 
ATOM      8  N   UNL     1       0.609   9.894  20.714  0.00  0.00    +0.000 NA
ATOM      9  H   UNL     1       2.154   7.745  22.281  0.00  0.00    +0.000 HD
BRANCH   7  10
ATOM     10  N   UNL     1      -0.114  12.036  19.912  0.00  0.00    +0.000 N 
ATOM     11  C   UNL     1       0.554  13.240  19.810  0.00  0.00    +0.000 A 
ATOM     12  C   UNL     1       0.127  13.841  18.652  0.00  0.00    +0.000 A 
ATOM     13  C   UNL     1      -0.808  12.943  18.114  0.00  0.00    +0.000 A 
ATOM     14  N   UNL     1      -0.956  11.847  18.861  0.00  0.00    +0.000 NA
ENDBRANCH   7  10
ENDBRANCH   1   2
BRANCH   1  19
ATOM     15  C   UNL     1       3.890   4.503  19.157  0.00  0.00    +0.000 A 
ATOM     16  C   UNL     1       3.092   3.480  19.685  0.00  0.00    +0.000 A 
ATOM     17  C   UNL     1       1.942   3.786  20.412  0.00  0.00    +0.000 A 
ATOM     18  C   UNL     1       1.568   5.114  20.608  0.00  0.00    +0.000 A 
ATOM     19  C   UNL     1       2.346   6.155  20.084  0.00  0.00    +0.000 A 
ATOM     20  C   UNL     1       3.519   5.839  19.380  0.00  0.00    +0.000 A 
BRANCH  15  21
ATOM     21  C   UNL     1       5.087   4.172  18.304  0.00  0.00    +0.000 C 
BRANCH  21  22
ATOM     22  O   UNL     1       6.280   4.328  19.067  0.00  0.00    +0.000 OA
BRANCH  22  23
ATOM     23  C   UNL     1       7.217   5.158  18.380  0.00  0.00    +0.000 C 
BRANCH  23  24
ATOM     24  C   UNL     1       6.725   5.416  16.963  0.00  0.00    +0.000 C 
BRANCH  24  25
ATOM     25  O   UNL     1       7.635   4.822  16.037  0.00  0.00    +0.000 OA
BRANCH  25  27
ATOM     26  C   UNL     1       5.586   5.087  14.844  0.00  0.00    +0.000 C 
ATOM     27  C   UNL     1       7.022   4.607  14.768  0.00  0.00    +0.000 C 
ENDBRANCH  25  27
ENDBRANCH  24  25
ENDBRANCH  23  24
ENDBRANCH  22  23
ENDBRANCH  21  22
ENDBRANCH  15  21
ENDBRANCH   1  19
TORSDOF 9
ENDMDL
MODEL 5
REMARK VINA RESULT:      -7.0      1.570      2.215
REMARK  Name = 
REMARK  10 active torsions:
REMARK  status: ('A' for Active; 'I' for Inactive)
REMARK    1  A    between atoms: C_1  and  C_2
REMARK    2  A    between atoms: C_2  and  O_3
REMARK    3  A    between atoms: O_3  and  C_4
REMARK    4  A    between atoms: C_4  and  C_5
REMARK    5  A    between atoms: C_5  and  O_6
REMARK    6  A    between atoms: O_6  and  C_7
REMARK    7  A    between atoms: C_7  and  C_8
REMARK    8  A    between atoms: C_12  and  C_13
REMARK    9  A    between atoms: C_13  and  N_14
REMARK   10  A    between atoms: C_19  and  N_20
REMARK                            x       y       z     vdW  Elec       q    Type
REMARK                         _______ _______ _______ _____ _____    ______ ____
ROOT
ATOM      1  C   UNL     1       3.070   6.001  18.643  0.00  0.00    +0.000 C 
ENDROOT
BRANCH   1   2
ATOM      2  N   UNL     1       4.230   5.863  19.513  0.00  0.00    +0.000 N 
ATOM      3  C   UNL     1       5.406   5.499  18.832  0.00  0.00    +0.000 A 
ATOM      4  C   UNL     1       6.594   5.320  19.551  0.00  0.00    +0.000 A 
ATOM      5  N   UNL     1       7.764   4.916  18.991  0.00  0.00    +0.000 NA
ATOM      6  C   UNL     1       7.717   4.709  17.656  0.00  0.00    +0.000 A 
ATOM      7  C   UNL     1       6.562   4.914  16.912  0.00  0.00    +0.000 A 
ATOM      8  N   UNL     1       5.396   5.324  17.492  0.00  0.00    +0.000 NA
ATOM      9  H   UNL     1       4.053   5.192  20.256  0.00  0.00    +0.000 HD
BRANCH   7  10
ATOM     10  N   UNL     1       6.589   4.670  15.516  0.00  0.00    +0.000 N 
ATOM     11  C   UNL     1       5.808   3.762  14.829  0.00  0.00    +0.000 A 
ATOM     12  C   UNL     1       6.170   3.838  13.507  0.00  0.00    +0.000 A 
ATOM     13  C   UNL     1       7.184   4.808  13.476  0.00  0.00    +0.000 A 
ATOM     14  N   UNL     1       7.440   5.323  14.680  0.00  0.00    +0.000 NA
ENDBRANCH   7  10
ENDBRANCH   1   2
BRANCH   1  19
ATOM     15  C   UNL     1       0.943   8.738  20.273  0.00  0.00    +0.000 A 
ATOM     16  C   UNL     1       1.019   9.743  19.300  0.00  0.00    +0.000 A 
ATOM     17  C   UNL     1       1.774   9.551  18.144  0.00  0.00    +0.000 A 
ATOM     18  C   UNL     1       2.450   8.349  17.940  0.00  0.00    +0.000 A 
ATOM     19  C   UNL     1       2.384   7.326  18.895  0.00  0.00    +0.000 A 
ATOM     20  C   UNL     1       1.647   7.541  20.071  0.00  0.00    +0.000 A 
BRANCH  15  21
ATOM     21  C   UNL     1       0.063   8.914  21.484  0.00  0.00    +0.000 C 
BRANCH  21  22
ATOM     22  O   UNL     1       0.472  10.067  22.214  0.00  0.00    +0.000 OA
BRANCH  22  23
ATOM     23  C   UNL     1      -0.490  10.402  23.214  0.00  0.00    +0.000 C 
BRANCH  23  24
ATOM     24  C   UNL     1      -1.129  11.742  22.878  0.00  0.00    +0.000 C 
BRANCH  24  25
ATOM     25  O   UNL     1      -2.549  11.614  22.950  0.00  0.00    +0.000 OA
BRANCH  25  27
ATOM     26  C   UNL     1      -4.031  12.720  24.457  0.00  0.00    +0.000 C 
ATOM     27  C   UNL     1      -3.174  12.867  23.214  0.00  0.00    +0.000 C 
ENDBRANCH  25  27
ENDBRANCH  24  25
ENDBRANCH  23  24
ENDBRANCH  22  23
ENDBRANCH  21  22
ENDBRANCH  15  21
ENDBRANCH   1  19
TORSDOF 9
ENDMDL
MODEL 6
REMARK VINA RESULT:      -6.9      4.292      8.939
REMARK  Name = 
REMARK  10 active torsions:
REMARK  status: ('A' for Active; 'I' for Inactive)
REMARK    1  A    between atoms: C_1  and  C_2
REMARK    2  A    between atoms: C_2  and  O_3
REMARK    3  A    between atoms: O_3  and  C_4
REMARK    4  A    between atoms: C_4  and  C_5
REMARK    5  A    between atoms: C_5  and  O_6
REMARK    6  A    between atoms: O_6  and  C_7
REMARK    7  A    between atoms: C_7  and  C_8
REMARK    8  A    between atoms: C_12  and  C_13
REMARK    9  A    between atoms: C_13  and  N_14
REMARK   10  A    between atoms: C_19  and  N_20
REMARK                            x       y       z     vdW  Elec       q    Type
REMARK                         _______ _______ _______ _____ _____    ______ ____
ROOT
ATOM      1  C   UNL     1       1.766   7.031  19.999  0.00  0.00    +0.000 C 
ENDROOT
BRANCH   1   2
ATOM      2  N   UNL     1       1.776   7.644  21.320  0.00  0.00    +0.000 N 
ATOM      3  C   UNL     1       0.948   8.776  21.422  0.00  0.00    +0.000 A 
ATOM      4  C   UNL     1       0.873   9.470  22.636  0.00  0.00    +0.000 A 
ATOM      5  N   UNL     1       0.147  10.604  22.816  0.00  0.00    +0.000 NA
ATOM      6  C   UNL     1      -0.535  11.025  21.727  0.00  0.00    +0.000 A 
ATOM      7  C   UNL     1      -0.508  10.336  20.521  0.00  0.00    +0.000 A 
ATOM      8  N   UNL     1       0.225   9.195  20.360  0.00  0.00    +0.000 NA
ATOM      9  H   UNL     1       2.720   7.894  21.600  0.00  0.00    +0.000 HD
BRANCH   7  10
ATOM     10  N   UNL     1      -1.246  10.843  19.422  0.00  0.00    +0.000 N 
ATOM     11  C   UNL     1      -2.192  11.846  19.465  0.00  0.00    +0.000 A 
ATOM     12  C   UNL     1      -2.668  12.008  18.188  0.00  0.00    +0.000 A 
ATOM     13  C   UNL     1      -1.967  11.057  17.430  0.00  0.00    +0.000 A 
ATOM     14  N   UNL     1      -1.100  10.354  18.161  0.00  0.00    +0.000 NA
ENDBRANCH   7  10
ENDBRANCH   1   2
BRANCH   1  19
ATOM     15  C   UNL     1       4.295   4.221  19.376  0.00  0.00    +0.000 A 
ATOM     16  C   UNL     1       3.668   3.154  20.031  0.00  0.00    +0.000 A 
ATOM     17  C   UNL     1       2.456   3.347  20.694  0.00  0.00    +0.000 A 
ATOM     18  C   UNL     1       1.851   4.602  20.698  0.00  0.00    +0.000 A 
ATOM     19  C   UNL     1       2.455   5.684  20.043  0.00  0.00    +0.000 A 
ATOM     20  C   UNL     1       3.690   5.489  19.406  0.00  0.00    +0.000 A 
BRANCH  15  21
ATOM     21  C   UNL     1       5.563   3.996  18.593  0.00  0.00    +0.000 C 
BRANCH  21  22
ATOM     22  O   UNL     1       6.629   4.738  19.177  0.00  0.00    +0.000 OA
BRANCH  22  23
ATOM     23  C   UNL     1       7.414   5.377  18.171  0.00  0.00    +0.000 C 
BRANCH  23  24
ATOM     24  C   UNL     1       7.264   4.627  16.855  0.00  0.00    +0.000 C 
BRANCH  24  25
ATOM     25  O   UNL     1       7.402   5.549  15.774  0.00  0.00    +0.000 OA
BRANCH  25  27
ATOM     26  C   UNL     1       5.852   3.997  14.836  0.00  0.00    +0.000 C 
ATOM     27  C   UNL     1       6.971   4.977  14.541  0.00  0.00    +0.000 C 
ENDBRANCH  25  27
ENDBRANCH  24  25
ENDBRANCH  23  24
ENDBRANCH  22  23
ENDBRANCH  21  22
ENDBRANCH  15  21
ENDBRANCH   1  19
TORSDOF 9
ENDMDL
MODEL 7
REMARK VINA RESULT:      -6.8      4.058      8.932
REMARK  Name = 
REMARK  10 active torsions:
REMARK  status: ('A' for Active; 'I' for Inactive)
REMARK    1  A    between atoms: C_1  and  C_2
REMARK    2  A    between atoms: C_2  and  O_3
REMARK    3  A    between atoms: O_3  and  C_4
REMARK    4  A    between atoms: C_4  and  C_5
REMARK    5  A    between atoms: C_5  and  O_6
REMARK    6  A    between atoms: O_6  and  C_7
REMARK    7  A    between atoms: C_7  and  C_8
REMARK    8  A    between atoms: C_12  and  C_13
REMARK    9  A    between atoms: C_13  and  N_14
REMARK   10  A    between atoms: C_19  and  N_20
REMARK                            x       y       z     vdW  Elec       q    Type
REMARK                         _______ _______ _______ _____ _____    ______ ____
ROOT
ATOM      1  C   UNL     1       1.941   6.552  20.115  0.00  0.00    +0.000 C 
ENDROOT
BRANCH   1   2
ATOM      2  N   UNL     1       2.275   7.405  18.982  0.00  0.00    +0.000 N 
ATOM      3  C   UNL     1       1.810   8.726  19.114  0.00  0.00    +0.000 A 
ATOM      4  C   UNL     1       2.052   9.649  18.089  0.00  0.00    +0.000 A 
ATOM      5  N   UNL     1       1.596  10.928  18.100  0.00  0.00    +0.000 NA
ATOM      6  C   UNL     1       0.890  11.274  19.200  0.00  0.00    +0.000 A 
ATOM      7  C   UNL     1       0.666  10.390  20.248  0.00  0.00    +0.000 A 
ATOM      8  N   UNL     1       1.136   9.108  20.221  0.00  0.00    +0.000 NA
ATOM      9  H   UNL     1       1.924   7.012  18.113  0.00  0.00    +0.000 HD
BRANCH   7  10
ATOM     10  N   UNL     1      -0.089  10.824  21.366  0.00  0.00    +0.000 N 
ATOM     11  C   UNL     1      -0.447  12.126  21.656  0.00  0.00    +0.000 A 
ATOM     12  C   UNL     1      -1.153  12.097  22.832  0.00  0.00    +0.000 A 
ATOM     13  C   UNL     1      -1.170  10.743  23.199  0.00  0.00    +0.000 A 
ATOM     14  N   UNL     1      -0.539   9.964  22.318  0.00  0.00    +0.000 NA
ENDBRANCH   7  10
ENDBRANCH   1   2
BRANCH   1  19
ATOM     15  C   UNL     1       3.158   3.326  18.446  0.00  0.00    +0.000 A 
ATOM     16  C   UNL     1       2.204   2.413  18.914  0.00  0.00    +0.000 A 
ATOM     17  C   UNL     1       1.196   2.829  19.783  0.00  0.00    +0.000 A 
ATOM     18  C   UNL     1       1.121   4.161  20.184  0.00  0.00    +0.000 A 
ATOM     19  C   UNL     1       2.060   5.095  19.725  0.00  0.00    +0.000 A 
ATOM     20  C   UNL     1       3.090   4.661  18.875  0.00  0.00    +0.000 A 
BRANCH  15  21
ATOM     21  C   UNL     1       4.198   2.895  17.445  0.00  0.00    +0.000 C 
BRANCH  21  22
ATOM     22  O   UNL     1       4.620   4.017  16.674  0.00  0.00    +0.000 OA
BRANCH  22  23
ATOM     23  C   UNL     1       6.004   4.290  16.891  0.00  0.00    +0.000 C 
BRANCH  23  24
ATOM     24  C   UNL     1       6.599   4.926  15.642  0.00  0.00    +0.000 C 
BRANCH  24  25
ATOM     25  O   UNL     1       7.344   6.084  16.019  0.00  0.00    +0.000 OA
BRANCH  25  27
ATOM     26  C   UNL     1       7.765   7.799  17.623  0.00  0.00    +0.000 C 
ATOM     27  C   UNL     1       7.001   6.522  17.331  0.00  0.00    +0.000 C 
ENDBRANCH  25  27
ENDBRANCH  24  25
ENDBRANCH  23  24
ENDBRANCH  22  23
ENDBRANCH  21  22
ENDBRANCH  15  21
ENDBRANCH   1  19
TORSDOF 9
ENDMDL
MODEL 8
REMARK VINA RESULT:      -6.8      1.800      3.386
REMARK  Name = 
REMARK  10 active torsions:
REMARK  status: ('A' for Active; 'I' for Inactive)
REMARK    1  A    between atoms: C_1  and  C_2
REMARK    2  A    between atoms: C_2  and  O_3
REMARK    3  A    between atoms: O_3  and  C_4
REMARK    4  A    between atoms: C_4  and  C_5
REMARK    5  A    between atoms: C_5  and  O_6
REMARK    6  A    between atoms: O_6  and  C_7
REMARK    7  A    between atoms: C_7  and  C_8
REMARK    8  A    between atoms: C_12  and  C_13
REMARK    9  A    between atoms: C_13  and  N_14
REMARK   10  A    between atoms: C_19  and  N_20
REMARK                            x       y       z     vdW  Elec       q    Type
REMARK                         _______ _______ _______ _____ _____    ______ ____
ROOT
ATOM      1  C   UNL     1       2.087   7.373  20.045  0.00  0.00    +0.000 C 
ENDROOT
BRANCH   1   2
ATOM      2  N   UNL     1       1.815   6.133  20.758  0.00  0.00    +0.000 N 
ATOM      3  C   UNL     1       2.639   5.063  20.363  0.00  0.00    +0.000 A 
ATOM      4  C   UNL     1       2.475   3.808  20.962  0.00  0.00    +0.000 A 
ATOM      5  N   UNL     1       3.182   2.703  20.608  0.00  0.00    +0.000 NA
ATOM      6  C   UNL     1       4.094   2.897  19.629  0.00  0.00    +0.000 A 
ATOM      7  C   UNL     1       4.302   4.139  19.043  0.00  0.00    +0.000 A 
ATOM      8  N   UNL     1       3.584   5.240  19.414  0.00  0.00    +0.000 NA
ATOM      9  H   UNL     1       0.841   5.860  20.660  0.00  0.00    +0.000 HD
BRANCH   7  10
ATOM     10  N   UNL     1       5.273   4.263  18.017  0.00  0.00    +0.000 N 
ATOM     11  C   UNL     1       6.553   4.760  18.159  0.00  0.00    +0.000 A 
ATOM     12  C   UNL     1       7.141   4.717  16.919  0.00  0.00    +0.000 A 
ATOM     13  C   UNL     1       6.149   4.191  16.078  0.00  0.00    +0.000 A 
ATOM     14  N   UNL     1       5.020   3.906  16.730  0.00  0.00    +0.000 NA
ENDBRANCH   7  10
ENDBRANCH   1   2
BRANCH   1  19
ATOM     15  C   UNL     1       0.152  10.661  20.395  0.00  0.00    +0.000 A 
ATOM     16  C   UNL     1      -0.123  10.658  21.768  0.00  0.00    +0.000 A 
ATOM     17  C   UNL     1       0.284   9.590  22.567  0.00  0.00    +0.000 A 
ATOM     18  C   UNL     1       0.983   8.522  22.008  0.00  0.00    +0.000 A 
ATOM     19  C   UNL     1       1.277   8.505  20.638  0.00  0.00    +0.000 A 
ATOM     20  C   UNL     1       0.835   9.569  19.835  0.00  0.00    +0.000 A 
BRANCH  15  21
ATOM     21  C   UNL     1      -0.217  11.850  19.546  0.00  0.00    +0.000 C 
BRANCH  21  22
ATOM     22  O   UNL     1      -1.581  11.753  19.147  0.00  0.00    +0.000 OA
BRANCH  22  23
ATOM     23  C   UNL     1      -1.699  11.819  17.726  0.00  0.00    +0.000 C 
BRANCH  23  24
ATOM     24  C   UNL     1      -2.099  10.453  17.185  0.00  0.00    +0.000 C 
BRANCH  24  25
ATOM     25  O   UNL     1      -3.520  10.398  17.063  0.00  0.00    +0.000 OA
BRANCH  25  27
ATOM     26  C   UNL     1      -2.998  10.126  14.751  0.00  0.00    +0.000 C 
ATOM     27  C   UNL     1      -3.946  10.758  15.751  0.00  0.00    +0.000 C 
ENDBRANCH  25  27
ENDBRANCH  24  25
ENDBRANCH  23  24
ENDBRANCH  22  23
ENDBRANCH  21  22
ENDBRANCH  15  21
ENDBRANCH   1  19
TORSDOF 9
ENDMDL
MODEL 9
REMARK VINA RESULT:      -6.7      4.316      8.832
REMARK  Name = 
REMARK  10 active torsions:
REMARK  status: ('A' for Active; 'I' for Inactive)
REMARK    1  A    between atoms: C_1  and  C_2
REMARK    2  A    between atoms: C_2  and  O_3
REMARK    3  A    between atoms: O_3  and  C_4
REMARK    4  A    between atoms: C_4  and  C_5
REMARK    5  A    between atoms: C_5  and  O_6
REMARK    6  A    between atoms: O_6  and  C_7
REMARK    7  A    between atoms: C_7  and  C_8
REMARK    8  A    between atoms: C_12  and  C_13
REMARK    9  A    between atoms: C_13  and  N_14
REMARK   10  A    between atoms: C_19  and  N_20
REMARK                            x       y       z     vdW  Elec       q    Type
REMARK                         _______ _______ _______ _____ _____    ______ ____
ROOT
ATOM      1  C   UNL     1       2.103   7.585  19.959  0.00  0.00    +0.000 C 
ENDROOT
BRANCH   1   2
ATOM      2  N   UNL     1       1.347   7.645  21.202  0.00  0.00    +0.000 N 
ATOM      3  C   UNL     1       0.710   8.881  21.416  0.00  0.00    +0.000 A 
ATOM      4  C   UNL     1      -0.042   9.078  22.582  0.00  0.00    +0.000 A 
ATOM      5  N   UNL     1      -0.645  10.252  22.903  0.00  0.00    +0.000 NA
ATOM      6  C   UNL     1      -0.489  11.242  21.995  0.00  0.00    +0.000 A 
ATOM      7  C   UNL     1       0.220  11.063  20.815  0.00  0.00    +0.000 A 
ATOM      8  N   UNL     1       0.817   9.874  20.507  0.00  0.00    +0.000 NA
ATOM      9  H   UNL     1       1.938   7.431  22.001  0.00  0.00    +0.000 HD
BRANCH   7  10
ATOM     10  N   UNL     1       0.345  12.151  19.914  0.00  0.00    +0.000 N 
ATOM     11  C   UNL     1      -0.588  13.145  19.699  0.00  0.00    +0.000 A 
ATOM     12  C   UNL     1      -0.074  13.980  18.739  0.00  0.00    +0.000 A 
ATOM     13  C   UNL     1       1.170  13.418  18.414  0.00  0.00    +0.000 A 
ATOM     14  N   UNL     1       1.437  12.318  19.122  0.00  0.00    +0.000 NA
ENDBRANCH   7  10
ENDBRANCH   1   2
BRANCH   1  19
ATOM     15  C   UNL     1       3.572   4.511  18.208  0.00  0.00    +0.000 A 
ATOM     16  C   UNL     1       3.284   3.513  19.147  0.00  0.00    +0.000 A 
ATOM     17  C   UNL     1       2.650   3.833  20.347  0.00  0.00    +0.000 A 
ATOM     18  C   UNL     1       2.284   5.151  20.616  0.00  0.00    +0.000 A 
ATOM     19  C   UNL     1       2.554   6.167  19.690  0.00  0.00    +0.000 A 
ATOM     20  C   UNL     1       3.222   5.840  18.499  0.00  0.00    +0.000 A 
BRANCH  15  21
ATOM     21  C   UNL     1       4.184   4.154  16.878  0.00  0.00    +0.000 C 
BRANCH  21  22
ATOM     22  O   UNL     1       4.673   5.330  16.240  0.00  0.00    +0.000 OA
BRANCH  22  23
ATOM     23  C   UNL     1       5.903   5.068  15.565  0.00  0.00    +0.000 C 
BRANCH  23  24
ATOM     24  C   UNL     1       7.052   5.120  16.562  0.00  0.00    +0.000 C 
BRANCH  24  25
ATOM     25  O   UNL     1       7.516   6.466  16.668  0.00  0.00    +0.000 OA
BRANCH  25  27
ATOM     26  C   UNL     1       7.217   5.712  18.912  0.00  0.00    +0.000 C 
ATOM     27  C   UNL     1       7.676   6.857  18.029  0.00  0.00    +0.000 C 
ENDBRANCH  25  27
ENDBRANCH  24  25
ENDBRANCH  23  24
ENDBRANCH  22  23
ENDBRANCH  21  22
ENDBRANCH  15  21
ENDBRANCH   1  19
TORSDOF 9
ENDMDL
