MODEL 1
REMARK VINA RESULT:      -8.0      0.000      0.000
REMARK  Name = 
REMARK  6 active torsions:
REMARK  status: ('A' for Active; 'I' for Inactive)
REMARK    1  A    between atoms: C_1  and  C_2
REMARK    2  A    between atoms: C_4  and  C_5
REMARK    3  A    between atoms: C_4  and  C_6
REMARK    4  A    between atoms: C_8  and  C_10
REMARK    5  A    between atoms: C_10  and  N_11
REMARK    6  A    between atoms: C_25  and  C_26
REMARK                            x       y       z     vdW  Elec       q    Type
REMARK                         _______ _______ _______ _____ _____    ______ ____
ROOT
ATOM      1  C   UNL     1      -3.497  13.422  21.600  0.00  0.00    +0.000 C 
ATOM      2  C   UNL     1      -2.591  12.544  20.783  0.00  0.00    +0.000 C 
ATOM      3  C   UNL     1      -1.411  12.164  21.263  0.00  0.00    +0.000 C 
ATOM      4  C   UNL     1      -0.381  11.295  20.584  0.00  0.00    +0.000 C 
ATOM      5  C   UNL     1      -0.297  10.082  21.539  0.00  0.00    +0.000 C 
ATOM      6  C   UNL     1       0.842  12.248  20.554  0.00  0.00    +0.000 C 
ATOM      7  N   UNL     1      -0.762  10.831  19.209  0.00  0.00    +0.000 N 
ATOM      8  C   UNL     1       0.075   9.930  18.483  0.00  0.00    +0.000 C 
ATOM      9  O   UNL     1      -0.285   9.362  17.448  0.00  0.00    +0.000 OA
ATOM     10  C   UNL     1      -2.092  11.239  18.689  0.00  0.00    +0.000 A 
ATOM     11  C   UNL     1      -2.574  10.862  17.416  0.00  0.00    +0.000 A 
ATOM     12  C   UNL     1      -3.840  11.242  16.926  0.00  0.00    +0.000 A 
ATOM     13  C   UNL     1      -4.682  12.035  17.688  0.00  0.00    +0.000 A 
ATOM     14  C   UNL     1      -6.035  12.462  17.206  0.00  0.00    +0.000 C 
ATOM     15  C   UNL     1      -4.231  12.437  18.941  0.00  0.00    +0.000 A 
ATOM     16  C   UNL     1      -2.963  12.061  19.450  0.00  0.00    +0.000 A 
ENDROOT
BRANCH   8  17
ATOM     17  C   UNL     1       1.534   9.616  18.947  0.00  0.00    +0.000 C 
BRANCH  17  18
ATOM     18  N   UNL     1       1.915   8.215  18.993  0.00  0.00    +0.000 N 
ATOM     19  C   UNL     1       2.661   7.559  18.060  0.00  0.00    +0.000 C 
ATOM     20  O   UNL     1       3.324   7.972  17.137  0.00  0.00    +0.000 OA
ATOM     21  C   UNL     1       2.683   6.174  18.506  0.00  0.00    +0.000 A 
ATOM     22  C   UNL     1       2.720   5.009  17.779  0.00  0.00    +0.000 A 
ATOM     23  C   UNL     1       2.607   3.815  18.495  0.00  0.00    +0.000 A 
ATOM     24  C   UNL     1       2.566   3.813  19.907  0.00  0.00    +0.000 A 
ATOM     25  C   UNL     1       2.471   5.011  20.617  0.00  0.00    +0.000 A 
ATOM     26  C   UNL     1       2.426   6.164  19.860  0.00  0.00    +0.000 A 
ATOM     27  C   UNL     1       1.863   7.478  20.155  0.00  0.00    +0.000 C 
ATOM     28  O   UNL     1       1.364   7.771  21.229  0.00  0.00    +0.000 OA
ENDBRANCH  17  18
ENDBRANCH   8  17
TORSDOF 2
ENDMDL
MODEL 2
REMARK VINA RESULT:      -8.0      3.694      8.387
REMARK  Name = 
REMARK  6 active torsions:
REMARK  status: ('A' for Active; 'I' for Inactive)
REMARK    1  A    between atoms: C_1  and  C_2
REMARK    2  A    between atoms: C_4  and  C_5
REMARK    3  A    between atoms: C_4  and  C_6
REMARK    4  A    between atoms: C_8  and  C_10
REMARK    5  A    between atoms: C_10  and  N_11
REMARK    6  A    between atoms: C_25  and  C_26
REMARK                            x       y       z     vdW  Elec       q    Type
REMARK                         _______ _______ _______ _____ _____    ______ ____
ROOT
ATOM      1  C   UNL     1       1.191   9.186  17.828  0.00  0.00    +0.000 C 
ATOM      2  C   UNL     1       0.338  10.004  18.755  0.00  0.00    +0.000 C 
ATOM      3  C   UNL     1       0.787  10.340  19.961  0.00  0.00    +0.000 C 
ATOM      4  C   UNL     1       0.069  11.147  21.016  0.00  0.00    +0.000 C 
ATOM      5  C   UNL     1       0.996  12.375  21.173  0.00  0.00    +0.000 C 
ATOM      6  C   UNL     1       0.038  10.138  22.193  0.00  0.00    +0.000 C 
ATOM      7  N   UNL     1      -1.307  11.598  20.629  0.00  0.00    +0.000 N 
ATOM      8  C   UNL     1      -2.069  12.444  21.491  0.00  0.00    +0.000 C 
ATOM      9  O   UNL     1      -3.109  13.006  21.136  0.00  0.00    +0.000 OA
ATOM     10  C   UNL     1      -1.793  11.240  19.271  0.00  0.00    +0.000 A 
ATOM     11  C   UNL     1      -3.065  11.612  18.783  0.00  0.00    +0.000 A 
ATOM     12  C   UNL     1      -3.522  11.279  17.491  0.00  0.00    +0.000 A 
ATOM     13  C   UNL     1      -2.728  10.542  16.629  0.00  0.00    +0.000 A 
ATOM     14  C   UNL     1      -3.175  10.167  15.249  0.00  0.00    +0.000 C 
ATOM     15  C   UNL     1      -1.474  10.146  17.086  0.00  0.00    +0.000 A 
ATOM     16  C   UNL     1      -0.998  10.476  18.380  0.00  0.00    +0.000 A 
ENDROOT
BRANCH   8  17
ATOM     17  C   UNL     1      -1.640  12.702  22.972  0.00  0.00    +0.000 C 
BRANCH  17  18
ATOM     18  N   UNL     1      -2.201  13.874  23.618  0.00  0.00    +0.000 N 
ATOM     19  C   UNL     1      -3.435  13.957  24.191  0.00  0.00    +0.000 C 
ATOM     20  O   UNL     1      -4.238  13.099  24.479  0.00  0.00    +0.000 OA
ATOM     21  C   UNL     1      -3.563  15.346  24.607  0.00  0.00    +0.000 A 
ATOM     22  C   UNL     1      -4.671  16.154  24.670  0.00  0.00    +0.000 A 
ATOM     23  C   UNL     1      -4.455  17.495  24.996  0.00  0.00    +0.000 A 
ATOM     24  C   UNL     1      -3.170  17.962  25.347  0.00  0.00    +0.000 A 
ATOM     25  C   UNL     1      -2.053  17.134  25.219  0.00  0.00    +0.000 A 
ATOM     26  C   UNL     1      -2.292  15.862  24.741  0.00  0.00    +0.000 A 
ATOM     27  C   UNL     1      -1.420  14.929  24.034  0.00  0.00    +0.000 C 
ATOM     28  O   UNL     1      -0.242  15.150  23.804  0.00  0.00    +0.000 OA
ENDBRANCH  17  18
ENDBRANCH   8  17
TORSDOF 2
ENDMDL
MODEL 3
REMARK VINA RESULT:      -7.9      1.114      1.290
REMARK  Name = 
REMARK  6 active torsions:
REMARK  status: ('A' for Active; 'I' for Inactive)
REMARK    1  A    between atoms: C_1  and  C_2
REMARK    2  A    between atoms: C_4  and  C_5
REMARK    3  A    between atoms: C_4  and  C_6
REMARK    4  A    between atoms: C_8  and  C_10
REMARK    5  A    between atoms: C_10  and  N_11
REMARK    6  A    between atoms: C_25  and  C_26
REMARK                            x       y       z     vdW  Elec       q    Type
REMARK                         _______ _______ _______ _____ _____    ______ ____
ROOT
ATOM      1  C   UNL     1      -4.188  14.448  22.093  0.00  0.00    +0.000 C 
ATOM      2  C   UNL     1      -3.333  13.511  21.287  0.00  0.00    +0.000 C 
ATOM      3  C   UNL     1      -2.091  13.235  21.673  0.00  0.00    +0.000 C 
ATOM      4  C   UNL     1      -1.098  12.328  20.989  0.00  0.00    +0.000 C 
ATOM      5  C   UNL     1      -0.852  11.244  22.064  0.00  0.00    +0.000 C 
ATOM      6  C   UNL     1       0.066  13.315  20.712  0.00  0.00    +0.000 C 
ATOM      7  N   UNL     1      -1.600  11.688  19.729  0.00  0.00    +0.000 N 
ATOM      8  C   UNL     1      -0.802  10.736  19.024  0.00  0.00    +0.000 C 
ATOM      9  O   UNL     1      -1.242  10.034  18.109  0.00  0.00    +0.000 OA
ATOM     10  C   UNL     1      -2.997  11.981  19.317  0.00  0.00    +0.000 A 
ATOM     11  C   UNL     1      -3.592  11.434  18.159  0.00  0.00    +0.000 A 
ATOM     12  C   UNL     1      -4.920  11.706  17.773  0.00  0.00    +0.000 A 
ATOM     13  C   UNL     1      -5.715  12.554  18.526  0.00  0.00    +0.000 A 
ATOM     14  C   UNL     1      -7.131  12.870  18.152  0.00  0.00    +0.000 C 
ATOM     15  C   UNL     1      -5.153  13.122  19.666  0.00  0.00    +0.000 A 
ATOM     16  C   UNL     1      -3.821  12.856  20.070  0.00  0.00    +0.000 A 
ENDROOT
BRANCH   8  17
ATOM     17  C   UNL     1       0.712  10.533  19.355  0.00  0.00    +0.000 C 
BRANCH  17  18
ATOM     18  N   UNL     1       1.214   9.172  19.299  0.00  0.00    +0.000 N 
ATOM     19  C   UNL     1       1.846   8.597  18.237  0.00  0.00    +0.000 C 
ATOM     20  O   UNL     1       2.307   9.079  17.228  0.00  0.00    +0.000 OA
ATOM     21  C   UNL     1       2.062   7.214  18.635  0.00  0.00    +0.000 A 
ATOM     22  C   UNL     1       2.076   6.066  17.881  0.00  0.00    +0.000 A 
ATOM     23  C   UNL     1       2.189   4.858  18.573  0.00  0.00    +0.000 A 
ATOM     24  C   UNL     1       2.386   4.835  19.971  0.00  0.00    +0.000 A 
ATOM     25  C   UNL     1       2.310   6.011  20.720  0.00  0.00    +0.000 A 
ATOM     26  C   UNL     1       2.039   7.164  20.012  0.00  0.00    +0.000 A 
ATOM     27  C   UNL     1       1.422   8.419  20.432  0.00  0.00    +0.000 C 
ATOM     28  O   UNL     1       1.088   8.653  21.583  0.00  0.00    +0.000 OA
ENDBRANCH  17  18
ENDBRANCH   8  17
TORSDOF 2
ENDMDL
MODEL 4
REMARK VINA RESULT:      -7.9      1.037      1.109
REMARK  Name = 
REMARK  6 active torsions:
REMARK  status: ('A' for Active; 'I' for Inactive)
REMARK    1  A    between atoms: C_1  and  C_2
REMARK    2  A    between atoms: C_4  and  C_5
REMARK    3  A    between atoms: C_4  and  C_6
REMARK    4  A    between atoms: C_8  and  C_10
REMARK    5  A    between atoms: C_10  and  N_11
REMARK    6  A    between atoms: C_25  and  C_26
REMARK                            x       y       z     vdW  Elec       q    Type
REMARK                         _______ _______ _______ _____ _____    ______ ____
ROOT
ATOM      1  C   UNL     1      -2.388  13.429  20.840  0.00  0.00    +0.000 C 
ATOM      2  C   UNL     1      -1.607  12.372  20.112  0.00  0.00    +0.000 C 
ATOM      3  C   UNL     1      -0.371  12.067  20.496  0.00  0.00    +0.000 C 
ATOM      4  C   UNL     1       0.554  11.044  19.881  0.00  0.00    +0.000 C 
ATOM      5  C   UNL     1       0.771  10.056  21.052  0.00  0.00    +0.000 C 
ATOM      6  C   UNL     1       1.760  11.933  19.483  0.00  0.00    +0.000 C 
ATOM      7  N   UNL     1      -0.016  10.313  18.702  0.00  0.00    +0.000 N 
ATOM      8  C   UNL     1       0.711   9.256  18.076  0.00  0.00    +0.000 C 
ATOM      9  O   UNL     1       0.209   8.493  17.245  0.00  0.00    +0.000 OA
ATOM     10  C   UNL     1      -1.406  10.643  18.294  0.00  0.00    +0.000 A 
ATOM     11  C   UNL     1      -2.061  10.021  17.208  0.00  0.00    +0.000 A 
ATOM     12  C   UNL     1      -3.383  10.327  16.827  0.00  0.00    +0.000 A 
ATOM     13  C   UNL     1      -4.111  11.287  17.511  0.00  0.00    +0.000 A 
ATOM     14  C   UNL     1      -5.518  11.644  17.140  0.00  0.00    +0.000 C 
ATOM     15  C   UNL     1      -3.489  11.930  18.577  0.00  0.00    +0.000 A 
ATOM     16  C   UNL     1      -2.162  11.631  18.976  0.00  0.00    +0.000 A 
ENDROOT
BRANCH   8  17
ATOM     17  C   UNL     1       2.220   9.002  18.392  0.00  0.00    +0.000 C 
BRANCH  17  18
ATOM     18  N   UNL     1       2.644   7.616  18.476  0.00  0.00    +0.000 N 
ATOM     19  C   UNL     1       3.572   7.014  17.680  0.00  0.00    +0.000 C 
ATOM     20  O   UNL     1       4.373   7.477  16.901  0.00  0.00    +0.000 OA
ATOM     21  C   UNL     1       3.571   5.618  18.093  0.00  0.00    +0.000 A 
ATOM     22  C   UNL     1       3.785   4.477  17.360  0.00  0.00    +0.000 A 
ATOM     23  C   UNL     1       3.595   3.260  18.018  0.00  0.00    +0.000 A 
ATOM     24  C   UNL     1       3.300   3.216  19.399  0.00  0.00    +0.000 A 
ATOM     25  C   UNL     1       3.030   4.390  20.105  0.00  0.00    +0.000 A 
ATOM     26  C   UNL     1       3.075   5.561  19.378  0.00  0.00    +0.000 A 
ATOM     27  C   UNL     1       2.414   6.845  19.593  0.00  0.00    +0.000 C 
ATOM     28  O   UNL     1       1.718   7.089  20.566  0.00  0.00    +0.000 OA
ENDBRANCH  17  18
ENDBRANCH   8  17
TORSDOF 2
ENDMDL
MODEL 5
REMARK VINA RESULT:      -7.8      1.099      2.016
REMARK  Name = 
REMARK  6 active torsions:
REMARK  status: ('A' for Active; 'I' for Inactive)
REMARK    1  A    between atoms: C_1  and  C_2
REMARK    2  A    between atoms: C_4  and  C_5
REMARK    3  A    between atoms: C_4  and  C_6
REMARK    4  A    between atoms: C_8  and  C_10
REMARK    5  A    between atoms: C_10  and  N_11
REMARK    6  A    between atoms: C_25  and  C_26
REMARK                            x       y       z     vdW  Elec       q    Type
REMARK                         _______ _______ _______ _____ _____    ______ ____
ROOT
ATOM      1  C   UNL     1      -4.090  14.073  22.248  0.00  0.00    +0.000 C 
ATOM      2  C   UNL     1      -3.172  13.207  21.431  0.00  0.00    +0.000 C 
ATOM      3  C   UNL     1      -1.939  12.946  21.857  0.00  0.00    +0.000 C 
ATOM      4  C   UNL     1      -0.889  12.108  21.169  0.00  0.00    +0.000 C 
ATOM      5  C   UNL     1      -0.657  10.972  22.193  0.00  0.00    +0.000 C 
ATOM      6  C   UNL     1       0.254  13.142  21.000  0.00  0.00    +0.000 C 
ATOM      7  N   UNL     1      -1.316  11.525  19.855  0.00  0.00    +0.000 N 
ATOM      8  C   UNL     1      -0.459  10.639  19.135  0.00  0.00    +0.000 C 
ATOM      9  O   UNL     1      -0.837   9.976  18.164  0.00  0.00    +0.000 OA
ATOM     10  C   UNL     1      -2.702  11.801  19.397  0.00  0.00    +0.000 A 
ATOM     11  C   UNL     1      -3.229  11.304  18.185  0.00  0.00    +0.000 A 
ATOM     12  C   UNL     1      -4.548  11.558  17.755  0.00  0.00    +0.000 A 
ATOM     13  C   UNL     1      -5.400  12.339  18.518  0.00  0.00    +0.000 A 
ATOM     14  C   UNL     1      -6.808  12.635  18.099  0.00  0.00    +0.000 C 
ATOM     15  C   UNL     1      -4.906  12.858  19.711  0.00  0.00    +0.000 A 
ATOM     16  C   UNL     1      -3.585  12.608  20.159  0.00  0.00    +0.000 A 
ENDROOT
BRANCH   8  17
ATOM     17  C   UNL     1       1.045  10.461  19.522  0.00  0.00    +0.000 C 
BRANCH  17  18
ATOM     18  N   UNL     1       1.600   9.127  19.383  0.00  0.00    +0.000 N 
ATOM     19  C   UNL     1       1.393   8.082  20.234  0.00  0.00    +0.000 C 
ATOM     20  O   UNL     1       0.598   7.934  21.133  0.00  0.00    +0.000 OA
ATOM     21  C   UNL     1       2.230   7.009  19.720  0.00  0.00    +0.000 A 
ATOM     22  C   UNL     1       2.898   6.010  20.385  0.00  0.00    +0.000 A 
ATOM     23  C   UNL     1       3.731   5.191  19.619  0.00  0.00    +0.000 A 
ATOM     24  C   UNL     1       3.792   5.323  18.214  0.00  0.00    +0.000 A 
ATOM     25  C   UNL     1       3.149   6.383  17.571  0.00  0.00    +0.000 A 
ATOM     26  C   UNL     1       2.465   7.262  18.386  0.00  0.00    +0.000 A 
ATOM     27  C   UNL     1       2.114   8.666  18.192  0.00  0.00    +0.000 C 
ATOM     28  O   UNL     1       2.351   9.284  17.167  0.00  0.00    +0.000 OA
ENDBRANCH  17  18
ENDBRANCH   8  17
TORSDOF 2
ENDMDL
MODEL 6
REMARK VINA RESULT:      -7.6      2.792      8.469
REMARK  Name = 
REMARK  6 active torsions:
REMARK  status: ('A' for Active; 'I' for Inactive)
REMARK    1  A    between atoms: C_1  and  C_2
REMARK    2  A    between atoms: C_4  and  C_5
REMARK    3  A    between atoms: C_4  and  C_6
REMARK    4  A    between atoms: C_8  and  C_10
REMARK    5  A    between atoms: C_10  and  N_11
REMARK    6  A    between atoms: C_25  and  C_26
REMARK                            x       y       z     vdW  Elec       q    Type
REMARK                         _______ _______ _______ _____ _____    ______ ____
ROOT
ATOM      1  C   UNL     1       3.776   1.395  18.187  0.00  0.00    +0.000 C 
ATOM      2  C   UNL     1       3.463   2.846  18.416  0.00  0.00    +0.000 C 
ATOM      3  C   UNL     1       2.654   3.211  19.406  0.00  0.00    +0.000 C 
ATOM      4  C   UNL     1       2.229   4.611  19.776  0.00  0.00    +0.000 C 
ATOM      5  C   UNL     1       2.790   4.755  21.210  0.00  0.00    +0.000 C 
ATOM      6  C   UNL     1       0.688   4.503  19.635  0.00  0.00    +0.000 C 
ATOM      7  N   UNL     1       2.796   5.689  18.900  0.00  0.00    +0.000 N 
ATOM      8  C   UNL     1       2.552   7.067  19.185  0.00  0.00    +0.000 C 
ATOM      9  O   UNL     1       3.157   7.987  18.627  0.00  0.00    +0.000 OA
ATOM     10  C   UNL     1       3.719   5.276  17.811  0.00  0.00    +0.000 A 
ATOM     11  C   UNL     1       4.326   6.192  16.924  0.00  0.00    +0.000 A 
ATOM     12  C   UNL     1       5.208   5.801  15.896  0.00  0.00    +0.000 A 
ATOM     13  C   UNL     1       5.513   4.465  15.698  0.00  0.00    +0.000 A 
ATOM     14  C   UNL     1       6.444   4.006  14.618  0.00  0.00    +0.000 C 
ATOM     15  C   UNL     1       4.918   3.535  16.545  0.00  0.00    +0.000 A 
ATOM     16  C   UNL     1       4.033   3.911  17.586  0.00  0.00    +0.000 A 
ENDROOT
BRANCH   8  17
ATOM     17  C   UNL     1       1.472   7.508  20.224  0.00  0.00    +0.000 C 
BRANCH  17  18
ATOM     18  N   UNL     1       1.084   8.907  20.205  0.00  0.00    +0.000 N 
ATOM     19  C   UNL     1       0.703   9.616  19.105  0.00  0.00    +0.000 C 
ATOM     20  O   UNL     1       0.410   9.256  17.988  0.00  0.00    +0.000 OA
ATOM     21  C   UNL     1       0.511  10.976  19.584  0.00  0.00    +0.000 A 
ATOM     22  C   UNL     1       0.719  12.177  18.950  0.00  0.00    +0.000 A 
ATOM     23  C   UNL     1       0.560  13.332  19.720  0.00  0.00    +0.000 A 
ATOM     24  C   UNL     1       0.105  13.261  21.055  0.00  0.00    +0.000 A 
ATOM     25  C   UNL     1      -0.041  12.028  21.692  0.00  0.00    +0.000 A 
ATOM     26  C   UNL     1       0.279  10.915  20.941  0.00  0.00    +0.000 A 
ATOM     27  C   UNL     1       0.718   9.583  21.347  0.00  0.00    +0.000 C 
ATOM     28  O   UNL     1       0.813   9.232  22.512  0.00  0.00    +0.000 OA
ENDBRANCH  17  18
ENDBRANCH   8  17
TORSDOF 2
ENDMDL
MODEL 7
REMARK VINA RESULT:      -7.5      1.554      7.386
REMARK  Name = 
REMARK  6 active torsions:
REMARK  status: ('A' for Active; 'I' for Inactive)
REMARK    1  A    between atoms: C_1  and  C_2
REMARK    2  A    between atoms: C_4  and  C_5
REMARK    3  A    between atoms: C_4  and  C_6
REMARK    4  A    between atoms: C_8  and  C_10
REMARK    5  A    between atoms: C_10  and  N_11
REMARK    6  A    between atoms: C_25  and  C_26
REMARK                            x       y       z     vdW  Elec       q    Type
REMARK                         _______ _______ _______ _____ _____    ______ ____
ROOT
ATOM      1  C   UNL     1       2.037   4.776  21.195  0.00  0.00    +0.000 C 
ATOM      2  C   UNL     1       1.859   6.157  20.630  0.00  0.00    +0.000 C 
ATOM      3  C   UNL     1       1.127   7.059  21.277  0.00  0.00    +0.000 C 
ATOM      4  C   UNL     1       0.839   8.480  20.856  0.00  0.00    +0.000 C 
ATOM      5  C   UNL     1       1.471   9.295  22.009  0.00  0.00    +0.000 C 
ATOM      6  C   UNL     1      -0.710   8.461  20.780  0.00  0.00    +0.000 C 
ATOM      7  N   UNL     1       1.458   8.884  19.552  0.00  0.00    +0.000 N 
ATOM      8  C   UNL     1       1.345  10.224  19.072  0.00  0.00    +0.000 C 
ATOM      9  O   UNL     1       2.001  10.657  18.120  0.00  0.00    +0.000 OA
ATOM     10  C   UNL     1       2.294   7.879  18.846  0.00  0.00    +0.000 A 
ATOM     11  C   UNL     1       2.940   8.136  17.616  0.00  0.00    +0.000 A 
ATOM     12  C   UNL     1       3.740   7.185  16.951  0.00  0.00    +0.000 A 
ATOM     13  C   UNL     1       3.921   5.919  17.483  0.00  0.00    +0.000 A 
ATOM     14  C   UNL     1       4.763   4.879  16.810  0.00  0.00    +0.000 C 
ATOM     15  C   UNL     1       3.286   5.628  18.687  0.00  0.00    +0.000 A 
ATOM     16  C   UNL     1       2.481   6.574  19.370  0.00  0.00    +0.000 A 
ENDROOT
BRANCH   8  17
ATOM     17  C   UNL     1       0.352  11.243  19.719  0.00  0.00    +0.000 C 
BRANCH  17  18
ATOM     18  N   UNL     1      -0.982  11.302  19.149  0.00  0.00    +0.000 N 
ATOM     19  C   UNL     1      -1.427  10.584  18.079  0.00  0.00    +0.000 C 
ATOM     20  O   UNL     1      -0.946   9.638  17.500  0.00  0.00    +0.000 OA
ATOM     21  C   UNL     1      -2.780  11.064  17.843  0.00  0.00    +0.000 A 
ATOM     22  C   UNL     1      -3.481  11.200  16.669  0.00  0.00    +0.000 A 
ATOM     23  C   UNL     1      -4.734  11.812  16.749  0.00  0.00    +0.000 A 
ATOM     24  C   UNL     1      -5.290  12.173  17.996  0.00  0.00    +0.000 A 
ATOM     25  C   UNL     1      -4.534  12.078  19.166  0.00  0.00    +0.000 A 
ATOM     26  C   UNL     1      -3.242  11.615  19.019  0.00  0.00    +0.000 A 
ATOM     27  C   UNL     1      -2.052  11.828  19.837  0.00  0.00    +0.000 C 
ATOM     28  O   UNL     1      -2.059  12.453  20.886  0.00  0.00    +0.000 OA
ENDBRANCH  17  18
ENDBRANCH   8  17
TORSDOF 2
ENDMDL
MODEL 8
REMARK VINA RESULT:      -7.5      0.601      1.734
REMARK  Name = 
REMARK  6 active torsions:
REMARK  status: ('A' for Active; 'I' for Inactive)
REMARK    1  A    between atoms: C_1  and  C_2
REMARK    2  A    between atoms: C_4  and  C_5
REMARK    3  A    between atoms: C_4  and  C_6
REMARK    4  A    between atoms: C_8  and  C_10
REMARK    5  A    between atoms: C_10  and  N_11
REMARK    6  A    between atoms: C_25  and  C_26
REMARK                            x       y       z     vdW  Elec       q    Type
REMARK                         _______ _______ _______ _____ _____    ______ ____
ROOT
ATOM      1  C   UNL     1      -3.433  13.471  21.824  0.00  0.00    +0.000 C 
ATOM      2  C   UNL     1      -2.510  12.577  21.045  0.00  0.00    +0.000 C 
ATOM      3  C   UNL     1      -1.336  12.216  21.555  0.00  0.00    +0.000 C 
ATOM      4  C   UNL     1      -0.290  11.336  20.915  0.00  0.00    +0.000 C 
ATOM      5  C   UNL     1      -0.215  10.148  21.903  0.00  0.00    +0.000 C 
ATOM      6  C   UNL     1       0.928  12.295  20.881  0.00  0.00    +0.000 C 
ATOM      7  N   UNL     1      -0.645  10.834  19.547  0.00  0.00    +0.000 N 
ATOM      8  C   UNL     1       0.209   9.919  18.859  0.00  0.00    +0.000 C 
ATOM      9  O   UNL     1      -0.132   9.322  17.833  0.00  0.00    +0.000 OA
ATOM     10  C   UNL     1      -1.969  11.221  18.995  0.00  0.00    +0.000 A 
ATOM     11  C   UNL     1      -2.427  10.808  17.724  0.00  0.00    +0.000 A 
ATOM     12  C   UNL     1      -3.687  11.168  17.204  0.00  0.00    +0.000 A 
ATOM     13  C   UNL     1      -4.546  11.975  17.930  0.00  0.00    +0.000 A 
ATOM     14  C   UNL     1      -5.893  12.382  17.415  0.00  0.00    +0.000 C 
ATOM     15  C   UNL     1      -4.118  12.413  19.180  0.00  0.00    +0.000 A 
ATOM     16  C   UNL     1      -2.857  12.057  19.720  0.00  0.00    +0.000 A 
ENDROOT
BRANCH   8  17
ATOM     17  C   UNL     1       1.661   9.625  19.355  0.00  0.00    +0.000 C 
BRANCH  17  18
ATOM     18  N   UNL     1       2.136   8.262  19.206  0.00  0.00    +0.000 N 
ATOM     19  C   UNL     1       1.878   7.228  20.057  0.00  0.00    +0.000 C 
ATOM     20  O   UNL     1       1.085   7.123  20.965  0.00  0.00    +0.000 OA
ATOM     21  C   UNL     1       2.646   6.109  19.530  0.00  0.00    +0.000 A 
ATOM     22  C   UNL     1       3.262   5.071  20.185  0.00  0.00    +0.000 A 
ATOM     23  C   UNL     1       4.037   4.207  19.408  0.00  0.00    +0.000 A 
ATOM     24  C   UNL     1       4.091   4.341  18.003  0.00  0.00    +0.000 A 
ATOM     25  C   UNL     1       3.503   5.438  17.370  0.00  0.00    +0.000 A 
ATOM     26  C   UNL     1       2.881   6.353  18.194  0.00  0.00    +0.000 A 
ATOM     27  C   UNL     1       2.610   7.775  18.008  0.00  0.00    +0.000 C 
ATOM     28  O   UNL     1       2.870   8.382  16.982  0.00  0.00    +0.000 OA
ENDBRANCH  17  18
ENDBRANCH   8  17
TORSDOF 2
ENDMDL
MODEL 9
REMARK VINA RESULT:      -7.5      2.407      8.542
REMARK  Name = 
REMARK  6 active torsions:
REMARK  status: ('A' for Active; 'I' for Inactive)
REMARK    1  A    between atoms: C_1  and  C_2
REMARK    2  A    between atoms: C_4  and  C_5
REMARK    3  A    between atoms: C_4  and  C_6
REMARK    4  A    between atoms: C_8  and  C_10
REMARK    5  A    between atoms: C_10  and  N_11
REMARK    6  A    between atoms: C_25  and  C_26
REMARK                            x       y       z     vdW  Elec       q    Type
REMARK                         _______ _______ _______ _____ _____    ______ ____
ROOT
ATOM      1  C   UNL     1       3.707   1.404  18.172  0.00  0.00    +0.000 C 
ATOM      2  C   UNL     1       3.367   2.831  18.499  0.00  0.00    +0.000 C 
ATOM      3  C   UNL     1       2.554   3.112  19.513  0.00  0.00    +0.000 C 
ATOM      4  C   UNL     1       2.103   4.476  19.976  0.00  0.00    +0.000 C 
ATOM      5  C   UNL     1       2.666   4.534  21.416  0.00  0.00    +0.000 C 
ATOM      6  C   UNL     1       0.565   4.348  19.831  0.00  0.00    +0.000 C 
ATOM      7  N   UNL     1       2.647   5.621  19.174  0.00  0.00    +0.000 N 
ATOM      8  C   UNL     1       2.378   6.972  19.552  0.00  0.00    +0.000 C 
ATOM      9  O   UNL     1       2.964   7.939  19.056  0.00  0.00    +0.000 OA
ATOM     10  C   UNL     1       3.574   5.301  18.058  0.00  0.00    +0.000 A 
ATOM     11  C   UNL     1       4.162   6.286  17.234  0.00  0.00    +0.000 A 
ATOM     12  C   UNL     1       5.048   5.982  16.180  0.00  0.00    +0.000 A 
ATOM     13  C   UNL     1       5.377   4.668  15.892  0.00  0.00    +0.000 A 
ATOM     14  C   UNL     1       6.314   4.300  14.782  0.00  0.00    +0.000 C 
ATOM     15  C   UNL     1       4.802   3.671  16.676  0.00  0.00    +0.000 A 
ATOM     16  C   UNL     1       3.913   3.960  17.741  0.00  0.00    +0.000 A 
ENDROOT
BRANCH   8  17
ATOM     17  C   UNL     1       1.293   7.321  20.620  0.00  0.00    +0.000 C 
BRANCH  17  18
ATOM     18  N   UNL     1       0.872   8.709  20.691  0.00  0.00    +0.000 N 
ATOM     19  C   UNL     1       1.038   9.541  21.758  0.00  0.00    +0.000 C 
ATOM     20  O   UNL     1       1.705   9.427  22.760  0.00  0.00    +0.000 OA
ATOM     21  C   UNL     1       0.372  10.777  21.376  0.00  0.00    +0.000 A 
ATOM     22  C   UNL     1      -0.303  11.695  22.143  0.00  0.00    +0.000 A 
ATOM     23  C   UNL     1      -0.949  12.731  21.465  0.00  0.00    +0.000 A 
ATOM     24  C   UNL     1      -0.818  12.879  20.067  0.00  0.00    +0.000 A 
ATOM     25  C   UNL     1      -0.176  11.902  19.305  0.00  0.00    +0.000 A 
ATOM     26  C   UNL     1       0.311  10.813  19.999  0.00  0.00    +0.000 A 
ATOM     27  C   UNL     1       0.573   9.444  19.566  0.00  0.00    +0.000 C 
ATOM     28  O   UNL     1       0.437   9.064  18.414  0.00  0.00    +0.000 OA
ENDBRANCH  17  18
ENDBRANCH   8  17
TORSDOF 2
ENDMDL
