MODEL 1
REMARK VINA RESULT:      -7.2      0.000      0.000
REMARK  Name = 
REMARK  5 active torsions:
REMARK  status: ('A' for Active; 'I' for Inactive)
REMARK    1  A    between atoms: C_1  and  C_2
REMARK    2  A    between atoms: C_2  and  C_3
REMARK    3  A    between atoms: C_3  and  C_4
REMARK    4  A    between atoms: N_6  and  C_7
REMARK    5  A    between atoms: C_10  and  C_11
REMARK                            x       y       z     vdW  Elec       q    Type
REMARK                         _______ _______ _______ _____ _____    ______ ____
ROOT
ATOM      1  C   UNL     1       4.013   4.716  17.565  0.00  0.00    +0.000 A 
ATOM      2  C   UNL     1       4.356   5.921  16.948  0.00  0.00    +0.000 A 
ATOM      3  C   UNL     1       5.203   5.934  15.832  0.00  0.00    +0.000 A 
ATOM      4  C   UNL     1       5.730   4.742  15.323  0.00  0.00    +0.000 A 
ATOM      5  C   UNL     1       5.450   3.548  15.992  0.00  0.00    +0.000 A 
ATOM      6  C   UNL     1       4.568   3.529  17.078  0.00  0.00    +0.000 A 
ENDROOT
BRANCH   4   7
ATOM      7  C   UNL     1       6.685   4.820  14.184  0.00  0.00    +0.000 C 
ATOM      8  O   UNL     1       7.705   5.492  14.339  0.00  0.00    +0.000 OA
ATOM      9  N   UNL     1       6.448   4.124  13.011  0.00  0.00    +0.000 N 
ATOM     10  C   UNL     1       5.247   3.486  12.503  0.00  0.00    +0.000 C 
ATOM     11  C   UNL     1       5.826   2.272  11.796  0.00  0.00    +0.000 C 
ATOM     12  C   UNL     1       7.061   2.853  11.109  0.00  0.00    +0.000 C 
ATOM     13  C   UNL     1       7.519   3.979  12.038  0.00  0.00    +0.000 C 
ENDBRANCH   4   7
BRANCH   1  16
ATOM     14  C   UNL     1       1.868   4.193  18.730  0.00  0.00    +0.000 C 
ATOM     15  O   UNL     1       1.259   3.647  17.818  0.00  0.00    +0.000 OA
ATOM     16  N   UNL     1       3.178   4.625  18.697  0.00  0.00    +0.000 N 
ATOM     17  H   UNL     1       3.592   4.902  19.579  0.00  0.00    +0.000 HD
BRANCH  14  18
ATOM     18  C   UNL     1       1.188   4.448  20.062  0.00  0.00    +0.000 C 
BRANCH  18  20
ATOM     19  C   UNL     1       2.355   2.801  21.608  0.00  0.00    +0.000 C 
ATOM     20  C   UNL     1       1.055   3.188  20.916  0.00  0.00    +0.000 C 
ENDBRANCH  18  20
ENDBRANCH  14  18
ENDBRANCH   1  16
TORSDOF 4
ENDMDL
MODEL 2
REMARK VINA RESULT:      -7.1      3.450      7.557
REMARK  Name = 
REMARK  5 active torsions:
REMARK  status: ('A' for Active; 'I' for Inactive)
REMARK    1  A    between atoms: C_1  and  C_2
REMARK    2  A    between atoms: C_2  and  C_3
REMARK    3  A    between atoms: C_3  and  C_4
REMARK    4  A    between atoms: N_6  and  C_7
REMARK    5  A    between atoms: C_10  and  C_11
REMARK                            x       y       z     vdW  Elec       q    Type
REMARK                         _______ _______ _______ _____ _____    ______ ____
ROOT
ATOM      1  C   UNL     1       5.580   6.668  17.282  0.00  0.00    +0.000 A 
ATOM      2  C   UNL     1       5.803   5.290  17.315  0.00  0.00    +0.000 A 
ATOM      3  C   UNL     1       4.747   4.402  17.556  0.00  0.00    +0.000 A 
ATOM      4  C   UNL     1       3.451   4.880  17.781  0.00  0.00    +0.000 A 
ATOM      5  C   UNL     1       3.246   6.262  17.828  0.00  0.00    +0.000 A 
ATOM      6  C   UNL     1       4.293   7.147  17.542  0.00  0.00    +0.000 A 
ENDROOT
BRANCH   4   7
ATOM      7  C   UNL     1       2.382   3.899  18.107  0.00  0.00    +0.000 C 
ATOM      8  O   UNL     1       1.942   3.207  17.189  0.00  0.00    +0.000 OA
ATOM      9  N   UNL     1       1.932   3.745  19.408  0.00  0.00    +0.000 N 
ATOM     10  C   UNL     1       2.103   4.578  20.584  0.00  0.00    +0.000 C 
ATOM     11  C   UNL     1       2.216   3.533  21.681  0.00  0.00    +0.000 C 
ATOM     12  C   UNL     1       1.148   2.519  21.276  0.00  0.00    +0.000 C 
ATOM     13  C   UNL     1       1.111   2.594  19.749  0.00  0.00    +0.000 C 
ENDBRANCH   4   7
BRANCH   1  16
ATOM     14  C   UNL     1       7.733   7.812  17.816  0.00  0.00    +0.000 C 
ATOM     15  O   UNL     1       8.150   7.077  18.701  0.00  0.00    +0.000 OA
ATOM     16  N   UNL     1       6.594   7.621  17.060  0.00  0.00    +0.000 N 
ATOM     17  H   UNL     1       6.471   8.223  16.254  0.00  0.00    +0.000 HD
BRANCH  14  18
ATOM     18  C   UNL     1       8.489   9.075  17.447  0.00  0.00    +0.000 C 
BRANCH  18  20
ATOM     19  C   UNL     1       9.424  11.273  18.320  0.00  0.00    +0.000 C 
ATOM     20  C   UNL     1       8.967   9.862  18.666  0.00  0.00    +0.000 C 
ENDBRANCH  18  20
ENDBRANCH  14  18
ENDBRANCH   1  16
TORSDOF 4
ENDMDL
MODEL 3
REMARK VINA RESULT:      -7.0      0.209      1.121
REMARK  Name = 
REMARK  5 active torsions:
REMARK  status: ('A' for Active; 'I' for Inactive)
REMARK    1  A    between atoms: C_1  and  C_2
REMARK    2  A    between atoms: C_2  and  C_3
REMARK    3  A    between atoms: C_3  and  C_4
REMARK    4  A    between atoms: N_6  and  C_7
REMARK    5  A    between atoms: C_10  and  C_11
REMARK                            x       y       z     vdW  Elec       q    Type
REMARK                         _______ _______ _______ _____ _____    ______ ____
ROOT
ATOM      1  C   UNL     1       4.235   4.709  17.542  0.00  0.00    +0.000 A 
ATOM      2  C   UNL     1       4.869   3.570  17.041  0.00  0.00    +0.000 A 
ATOM      3  C   UNL     1       5.731   3.661  15.941  0.00  0.00    +0.000 A 
ATOM      4  C   UNL     1       5.964   4.891  15.316  0.00  0.00    +0.000 A 
ATOM      5  C   UNL     1       5.266   6.014  15.770  0.00  0.00    +0.000 A 
ATOM      6  C   UNL     1       4.439   5.932  16.897  0.00  0.00    +0.000 A 
ENDROOT
BRANCH   4   7
ATOM      7  C   UNL     1       6.828   4.919  14.106  0.00  0.00    +0.000 C 
ATOM      8  O   UNL     1       7.850   5.604  14.150  0.00  0.00    +0.000 OA
ATOM      9  N   UNL     1       6.511   4.164  12.990  0.00  0.00    +0.000 N 
ATOM     10  C   UNL     1       5.282   3.494  12.607  0.00  0.00    +0.000 C 
ATOM     11  C   UNL     1       5.817   2.249  11.918  0.00  0.00    +0.000 C 
ATOM     12  C   UNL     1       6.990   2.804  11.112  0.00  0.00    +0.000 C 
ATOM     13  C   UNL     1       7.506   3.977  11.946  0.00  0.00    +0.000 C 
ENDBRANCH   4   7
BRANCH   1  16
ATOM     14  C   UNL     1       2.029   4.277  18.627  0.00  0.00    +0.000 C 
ATOM     15  O   UNL     1       1.459   3.684  17.719  0.00  0.00    +0.000 OA
ATOM     16  N   UNL     1       3.345   4.693  18.635  0.00  0.00    +0.000 N 
ATOM     17  H   UNL     1       3.718   5.017  19.519  0.00  0.00    +0.000 HD
BRANCH  14  18
ATOM     18  C   UNL     1       1.287   4.617  19.906  0.00  0.00    +0.000 C 
BRANCH  18  20
ATOM     19  C   UNL     1       2.127   2.868  21.550  0.00  0.00    +0.000 C 
ATOM     20  C   UNL     1       0.944   3.385  20.743  0.00  0.00    +0.000 C 
ENDBRANCH  18  20
ENDBRANCH  14  18
ENDBRANCH   1  16
TORSDOF 4
ENDMDL
MODEL 4
REMARK VINA RESULT:      -6.8      1.178      1.252
REMARK  Name = 
REMARK  5 active torsions:
REMARK  status: ('A' for Active; 'I' for Inactive)
REMARK    1  A    between atoms: C_1  and  C_2
REMARK    2  A    between atoms: C_2  and  C_3
REMARK    3  A    between atoms: C_3  and  C_4
REMARK    4  A    between atoms: N_6  and  C_7
REMARK    5  A    between atoms: C_10  and  C_11
REMARK                            x       y       z     vdW  Elec       q    Type
REMARK                         _______ _______ _______ _____ _____    ______ ____
ROOT
ATOM      1  C   UNL     1       3.801   5.349  17.385  0.00  0.00    +0.000 A 
ATOM      2  C   UNL     1       4.432   6.437  16.779  0.00  0.00    +0.000 A 
ATOM      3  C   UNL     1       5.335   6.241  15.727  0.00  0.00    +0.000 A 
ATOM      4  C   UNL     1       5.631   4.951  15.272  0.00  0.00    +0.000 A 
ATOM      5  C   UNL     1       5.060   3.861  15.934  0.00  0.00    +0.000 A 
ATOM      6  C   UNL     1       4.123   4.059  16.955  0.00  0.00    +0.000 A 
ENDROOT
BRANCH   4   7
ATOM      7  C   UNL     1       6.654   4.795  14.204  0.00  0.00    +0.000 C 
ATOM      8  O   UNL     1       7.767   5.282  14.403  0.00  0.00    +0.000 OA
ATOM      9  N   UNL     1       6.371   4.088  13.047  0.00  0.00    +0.000 N 
ATOM     10  C   UNL     1       5.109   3.646  12.482  0.00  0.00    +0.000 C 
ATOM     11  C   UNL     1       5.503   2.311  11.871  0.00  0.00    +0.000 C 
ATOM     12  C   UNL     1       6.863   2.625  11.252  0.00  0.00    +0.000 C 
ATOM     13  C   UNL     1       7.457   3.701  12.161  0.00  0.00    +0.000 C 
ENDBRANCH   4   7
BRANCH   1  16
ATOM     14  C   UNL     1       3.111   5.113  19.773  0.00  0.00    +0.000 C 
ATOM     15  O   UNL     1       4.184   4.803  20.274  0.00  0.00    +0.000 OA
ATOM     16  N   UNL     1       2.892   5.467  18.457  0.00  0.00    +0.000 N 
ATOM     17  H   UNL     1       1.986   5.861  18.232  0.00  0.00    +0.000 HD
BRANCH  14  18
ATOM     18  C   UNL     1       1.850   5.144  20.617  0.00  0.00    +0.000 C 
BRANCH  18  20
ATOM     19  C   UNL     1       0.838   2.980  19.747  0.00  0.00    +0.000 C 
ATOM     20  C   UNL     1       1.331   3.750  20.964  0.00  0.00    +0.000 C 
ENDBRANCH  18  20
ENDBRANCH  14  18
ENDBRANCH   1  16
TORSDOF 4
ENDMDL
MODEL 5
REMARK VINA RESULT:      -6.7      1.316      7.486
REMARK  Name = 
REMARK  5 active torsions:
REMARK  status: ('A' for Active; 'I' for Inactive)
REMARK    1  A    between atoms: C_1  and  C_2
REMARK    2  A    between atoms: C_2  and  C_3
REMARK    3  A    between atoms: C_3  and  C_4
REMARK    4  A    between atoms: N_6  and  C_7
REMARK    5  A    between atoms: C_10  and  C_11
REMARK                            x       y       z     vdW  Elec       q    Type
REMARK                         _______ _______ _______ _____ _____    ______ ____
ROOT
ATOM      1  C   UNL     1       5.352   4.628  15.464  0.00  0.00    +0.000 A 
ATOM      2  C   UNL     1       5.125   5.932  15.908  0.00  0.00    +0.000 A 
ATOM      3  C   UNL     1       4.506   6.167  17.142  0.00  0.00    +0.000 A 
ATOM      4  C   UNL     1       4.092   5.100  17.947  0.00  0.00    +0.000 A 
ATOM      5  C   UNL     1       4.248   3.798  17.463  0.00  0.00    +0.000 A 
ATOM      6  C   UNL     1       4.908   3.562  16.251  0.00  0.00    +0.000 A 
ENDROOT
BRANCH   4   7
ATOM      7  C   UNL     1       3.372   5.405  19.212  0.00  0.00    +0.000 C 
ATOM      8  O   UNL     1       3.107   6.584  19.448  0.00  0.00    +0.000 OA
ATOM      9  N   UNL     1       2.978   4.390  20.068  0.00  0.00    +0.000 N 
ATOM     10  C   UNL     1       3.370   2.995  20.140  0.00  0.00    +0.000 C 
ATOM     11  C   UNL     1       2.065   2.335  20.554  0.00  0.00    +0.000 C 
ATOM     12  C   UNL     1       1.521   3.313  21.593  0.00  0.00    +0.000 C 
ATOM     13  C   UNL     1       2.032   4.680  21.134  0.00  0.00    +0.000 C 
ENDBRANCH   4   7
BRANCH   1  16
ATOM     14  C   UNL     1       7.133   4.832  13.727  0.00  0.00    +0.000 C 
ATOM     15  O   UNL     1       7.947   5.515  14.336  0.00  0.00    +0.000 OA
ATOM     16  N   UNL     1       5.956   4.315  14.230  0.00  0.00    +0.000 N 
ATOM     17  H   UNL     1       5.474   3.631  13.658  0.00  0.00    +0.000 HD
BRANCH  14  18
ATOM     18  C   UNL     1       7.373   4.468  12.273  0.00  0.00    +0.000 C 
BRANCH  18  20
ATOM     19  C   UNL     1       7.331   2.164  11.200  0.00  0.00    +0.000 C 
ATOM     20  C   UNL     1       6.513   3.297  11.802  0.00  0.00    +0.000 C 
ENDBRANCH  18  20
ENDBRANCH  14  18
ENDBRANCH   1  16
TORSDOF 4
ENDMDL
MODEL 6
REMARK VINA RESULT:      -6.7      1.571      7.499
REMARK  Name = 
REMARK  5 active torsions:
REMARK  status: ('A' for Active; 'I' for Inactive)
REMARK    1  A    between atoms: C_1  and  C_2
REMARK    2  A    between atoms: C_2  and  C_3
REMARK    3  A    between atoms: C_3  and  C_4
REMARK    4  A    between atoms: N_6  and  C_7
REMARK    5  A    between atoms: C_10  and  C_11
REMARK                            x       y       z     vdW  Elec       q    Type
REMARK                         _______ _______ _______ _____ _____    ______ ____
ROOT
ATOM      1  C   UNL     1       5.833   3.943  15.553  0.00  0.00    +0.000 A 
ATOM      2  C   UNL     1       6.602   4.247  16.678  0.00  0.00    +0.000 A 
ATOM      3  C   UNL     1       5.990   4.504  17.911  0.00  0.00    +0.000 A 
ATOM      4  C   UNL     1       4.597   4.473  18.036  0.00  0.00    +0.000 A 
ATOM      5  C   UNL     1       3.828   4.249  16.891  0.00  0.00    +0.000 A 
ATOM      6  C   UNL     1       4.440   3.948  15.669  0.00  0.00    +0.000 A 
ENDROOT
BRANCH   4   7
ATOM      7  C   UNL     1       3.996   4.828  19.350  0.00  0.00    +0.000 C 
ATOM      8  O   UNL     1       4.191   5.966  19.778  0.00  0.00    +0.000 OA
ATOM      9  N   UNL     1       3.211   3.920  20.040  0.00  0.00    +0.000 N 
ATOM     10  C   UNL     1       3.039   2.488  19.878  0.00  0.00    +0.000 C 
ATOM     11  C   UNL     1       1.566   2.321  20.211  0.00  0.00    +0.000 C 
ATOM     12  C   UNL     1       1.393   3.257  21.405  0.00  0.00    +0.000 C 
ATOM     13  C   UNL     1       2.404   4.378  21.160  0.00  0.00    +0.000 C 
ENDBRANCH   4   7
BRANCH   1  16
ATOM     14  C   UNL     1       7.150   4.542  13.519  0.00  0.00    +0.000 C 
ATOM     15  O   UNL     1       7.646   5.598  13.891  0.00  0.00    +0.000 OA
ATOM     16  N   UNL     1       6.377   3.687  14.278  0.00  0.00    +0.000 N 
ATOM     17  H   UNL     1       6.181   2.774  13.884  0.00  0.00    +0.000 HD
BRANCH  14  18
ATOM     18  C   UNL     1       7.366   4.051  12.099  0.00  0.00    +0.000 C 
BRANCH  18  20
ATOM     19  C   UNL     1       7.242   1.740  11.048  0.00  0.00    +0.000 C 
ATOM     20  C   UNL     1       6.479   2.862  11.737  0.00  0.00    +0.000 C 
ENDBRANCH  18  20
ENDBRANCH  14  18
ENDBRANCH   1  16
TORSDOF 4
ENDMDL
MODEL 7
REMARK VINA RESULT:      -6.6      1.099      1.626
REMARK  Name = 
REMARK  5 active torsions:
REMARK  status: ('A' for Active; 'I' for Inactive)
REMARK    1  A    between atoms: C_1  and  C_2
REMARK    2  A    between atoms: C_2  and  C_3
REMARK    3  A    between atoms: C_3  and  C_4
REMARK    4  A    between atoms: N_6  and  C_7
REMARK    5  A    between atoms: C_10  and  C_11
REMARK                            x       y       z     vdW  Elec       q    Type
REMARK                         _______ _______ _______ _____ _____    ______ ____
ROOT
ATOM      1  C   UNL     1       3.754   5.049  17.422  0.00  0.00    +0.000 A 
ATOM      2  C   UNL     1       4.198   3.829  16.908  0.00  0.00    +0.000 A 
ATOM      3  C   UNL     1       5.184   3.790  15.914  0.00  0.00    +0.000 A 
ATOM      4  C   UNL     1       5.734   4.974  15.409  0.00  0.00    +0.000 A 
ATOM      5  C   UNL     1       5.230   6.194  15.868  0.00  0.00    +0.000 A 
ATOM      6  C   UNL     1       4.278   6.232  16.893  0.00  0.00    +0.000 A 
ENDROOT
BRANCH   4   7
ATOM      7  C   UNL     1       6.722   4.878  14.301  0.00  0.00    +0.000 C 
ATOM      8  O   UNL     1       7.826   5.397  14.474  0.00  0.00    +0.000 OA
ATOM      9  N   UNL     1       6.420   4.192  13.137  0.00  0.00    +0.000 N 
ATOM     10  C   UNL     1       5.154   3.723  12.605  0.00  0.00    +0.000 C 
ATOM     11  C   UNL     1       5.568   2.418  11.946  0.00  0.00    +0.000 C 
ATOM     12  C   UNL     1       6.894   2.792  11.288  0.00  0.00    +0.000 C 
ATOM     13  C   UNL     1       7.486   3.863  12.204  0.00  0.00    +0.000 C 
ENDBRANCH   4   7
BRANCH   1  16
ATOM     14  C   UNL     1       2.892   4.905  19.759  0.00  0.00    +0.000 C 
ATOM     15  O   UNL     1       3.939   4.697  20.359  0.00  0.00    +0.000 OA
ATOM     16  N   UNL     1       2.757   5.166  18.411  0.00  0.00    +0.000 N 
ATOM     17  H   UNL     1       1.849   5.484  18.093  0.00  0.00    +0.000 HD
BRANCH  14  18
ATOM     18  C   UNL     1       1.568   4.898  20.502  0.00  0.00    +0.000 C 
BRANCH  18  20
ATOM     19  C   UNL     1       0.759   2.764  19.381  0.00  0.00    +0.000 C 
ATOM     20  C   UNL     1       1.000   3.493  20.696  0.00  0.00    +0.000 C 
ENDBRANCH  18  20
ENDBRANCH  14  18
ENDBRANCH   1  16
TORSDOF 4
ENDMDL
MODEL 8
REMARK VINA RESULT:      -6.6      5.131      6.969
REMARK  Name = 
REMARK  5 active torsions:
REMARK  status: ('A' for Active; 'I' for Inactive)
REMARK    1  A    between atoms: C_1  and  C_2
REMARK    2  A    between atoms: C_2  and  C_3
REMARK    3  A    between atoms: C_3  and  C_4
REMARK    4  A    between atoms: N_6  and  C_7
REMARK    5  A    between atoms: C_10  and  C_11
REMARK                            x       y       z     vdW  Elec       q    Type
REMARK                         _______ _______ _______ _____ _____    ______ ____
ROOT
ATOM      1  C   UNL     1       0.956   9.264  19.536  0.00  0.00    +0.000 A 
ATOM      2  C   UNL     1       1.374   8.207  20.347  0.00  0.00    +0.000 A 
ATOM      3  C   UNL     1       2.237   7.224  19.847  0.00  0.00    +0.000 A 
ATOM      4  C   UNL     1       2.687   7.276  18.524  0.00  0.00    +0.000 A 
ATOM      5  C   UNL     1       2.204   8.290  17.692  0.00  0.00    +0.000 A 
ATOM      6  C   UNL     1       1.377   9.297  18.204  0.00  0.00    +0.000 A 
ENDROOT
BRANCH   4   7
ATOM      7  C   UNL     1       3.542   6.166  18.022  0.00  0.00    +0.000 C 
ATOM      8  O   UNL     1       4.740   6.396  17.861  0.00  0.00    +0.000 OA
ATOM      9  N   UNL     1       3.008   4.909  17.789  0.00  0.00    +0.000 N 
ATOM     10  C   UNL     1       1.633   4.462  17.667  0.00  0.00    +0.000 C 
ATOM     11  C   UNL     1       1.704   3.088  18.312  0.00  0.00    +0.000 C 
ATOM     12  C   UNL     1       3.023   2.542  17.770  0.00  0.00    +0.000 C 
ATOM     13  C   UNL     1       3.902   3.780  17.586  0.00  0.00    +0.000 C 
ENDBRANCH   4   7
BRANCH   1  16
ATOM     14  C   UNL     1       0.312  11.217  20.951  0.00  0.00    +0.000 C 
ATOM     15  O   UNL     1       1.382  11.441  21.502  0.00  0.00    +0.000 OA
ATOM     16  N   UNL     1       0.078  10.281  19.964  0.00  0.00    +0.000 N 
ATOM     17  H   UNL     1      -0.815  10.329  19.488  0.00  0.00    +0.000 HD
BRANCH  14  18
ATOM     18  C   UNL     1      -0.926  12.009  21.328  0.00  0.00    +0.000 C 
BRANCH  18  20
ATOM     19  C   UNL     1      -2.618  12.196  23.216  0.00  0.00    +0.000 C 
ATOM     20  C   UNL     1      -1.148  12.087  22.838  0.00  0.00    +0.000 C 
ENDBRANCH  18  20
ENDBRANCH  14  18
ENDBRANCH   1  16
TORSDOF 4
ENDMDL
MODEL 9
REMARK VINA RESULT:      -6.6      4.881      6.707
REMARK  Name = 
REMARK  5 active torsions:
REMARK  status: ('A' for Active; 'I' for Inactive)
REMARK    1  A    between atoms: C_1  and  C_2
REMARK    2  A    between atoms: C_2  and  C_3
REMARK    3  A    between atoms: C_3  and  C_4
REMARK    4  A    between atoms: N_6  and  C_7
REMARK    5  A    between atoms: C_10  and  C_11
REMARK                            x       y       z     vdW  Elec       q    Type
REMARK                         _______ _______ _______ _____ _____    ______ ____
ROOT
ATOM      1  C   UNL     1       1.210   9.158  19.543  0.00  0.00    +0.000 A 
ATOM      2  C   UNL     1       1.682   9.175  18.229  0.00  0.00    +0.000 A 
ATOM      3  C   UNL     1       2.396   8.086  17.714  0.00  0.00    +0.000 A 
ATOM      4  C   UNL     1       2.659   6.965  18.510  0.00  0.00    +0.000 A 
ATOM      5  C   UNL     1       2.256   6.986  19.848  0.00  0.00    +0.000 A 
ATOM      6  C   UNL     1       1.504   8.055  20.349  0.00  0.00    +0.000 A 
ENDROOT
BRANCH   4   7
ATOM      7  C   UNL     1       3.486   5.869  17.937  0.00  0.00    +0.000 C 
ATOM      8  O   UNL     1       4.666   6.114  17.689  0.00  0.00    +0.000 OA
ATOM      9  N   UNL     1       2.951   4.608  17.735  0.00  0.00    +0.000 N 
ATOM     10  C   UNL     1       1.575   4.145  17.713  0.00  0.00    +0.000 C 
ATOM     11  C   UNL     1       1.710   2.767  18.340  0.00  0.00    +0.000 C 
ATOM     12  C   UNL     1       2.991   2.241  17.696  0.00  0.00    +0.000 C 
ATOM     13  C   UNL     1       3.839   3.491  17.456  0.00  0.00    +0.000 C 
ENDBRANCH   4   7
BRANCH   1  16
ATOM     14  C   UNL     1       0.527  10.603  21.460  0.00  0.00    +0.000 C 
ATOM     15  O   UNL     1       1.305  10.202  22.316  0.00  0.00    +0.000 OA
ATOM     16  N   UNL     1       0.498  10.222  20.134  0.00  0.00    +0.000 N 
ATOM     17  H   UNL     1      -0.090  10.764  19.513  0.00  0.00    +0.000 HD
BRANCH  14  18
ATOM     18  C   UNL     1      -0.537  11.628  21.810  0.00  0.00    +0.000 C 
BRANCH  18  20
ATOM     19  C   UNL     1      -2.619  12.092  23.193  0.00  0.00    +0.000 C 
ATOM     20  C   UNL     1      -1.382  11.222  23.016  0.00  0.00    +0.000 C 
ENDBRANCH  18  20
ENDBRANCH  14  18
ENDBRANCH   1  16
TORSDOF 4
ENDMDL
