MODEL 1
REMARK VINA RESULT:      -7.6      0.000      0.000
REMARK  Name = 
REMARK  10 active torsions:
REMARK  status: ('A' for Active; 'I' for Inactive)
REMARK    1  A    between atoms: C_1  and  O_2
REMARK    2  A    between atoms: O_2  and  C_3
REMARK    3  A    between atoms: C_8  and  O_9
REMARK    4  A    between atoms: C_10  and  C_11
REMARK    5  A    between atoms: C_11  and  N_12
REMARK    6  A    between atoms: N_12  and  C_21
REMARK    7  A    between atoms: C_13  and  C_15
REMARK    8  A    between atoms: C_21  and  C_22
REMARK    9  A    between atoms: C_21  and  C_23
REMARK   10  A    between atoms: C_21  and  C_24
REMARK                            x       y       z     vdW  Elec       q    Type
REMARK                         _______ _______ _______ _____ _____    ______ ____
ROOT
ATOM      1  C   UNL     1       6.067   3.962  12.708  0.00  0.00    +0.000 A 
ATOM      2  C   UNL     1       7.139   4.835  12.878  0.00  0.00    +0.000 A 
ATOM      3  C   UNL     1       7.612   5.118  14.159  0.00  0.00    +0.000 A 
ATOM      4  C   UNL     1       6.989   4.614  15.285  0.00  0.00    +0.000 A 
ATOM      5  N   UNL     1       7.526   4.867  16.483  0.00  0.00    +0.000 NA
ATOM      6  C   UNL     1       6.799   4.550  17.563  0.00  0.00    +0.000 A 
ATOM      7  C   UNL     1       5.517   4.021  17.527  0.00  0.00    +0.000 A 
ATOM      8  C   UNL     1       5.061   3.588  16.275  0.00  0.00    +0.000 A 
ATOM      9  C   UNL     1       5.794   3.884  15.119  0.00  0.00    +0.000 A 
ATOM     10  C   UNL     1       5.369   3.515  13.829  0.00  0.00    +0.000 A 
ENDROOT
BRANCH   1  12
ATOM     11  C   UNL     1       4.247   3.136  11.481  0.00  0.00    +0.000 C 
ATOM     12  O   UNL     1       5.621   3.522  11.491  0.00  0.00    +0.000 OA
ENDBRANCH   1  12
BRANCH   6  13
ATOM     13  O   UNL     1       7.463   4.728  18.740  0.00  0.00    +0.000 OA
ATOM     14  H   UNL     1       7.597   5.682  18.811  0.00  0.00    +0.000 HD
ENDBRANCH   6  13
BRANCH   7  15
ATOM     15  C   UNL     1       4.629   3.920  18.733  0.00  0.00    +0.000 C 
BRANCH  15  16
ATOM     16  N   UNL     1       3.451   4.842  18.900  0.00  0.00    +0.000 N 
ATOM     17  C   UNL     1       3.669   6.267  18.870  0.00  0.00    +0.000 C 
ATOM     18  O   UNL     1       4.819   6.708  18.825  0.00  0.00    +0.000 OA
BRANCH  17  19
ATOM     19  C   UNL     1       2.617   7.380  18.837  0.00  0.00    +0.000 A 
ATOM     20  C   UNL     1       2.169   8.132  17.750  0.00  0.00    +0.000 A 
ATOM     21  C   UNL     1       1.289   9.195  17.929  0.00  0.00    +0.000 A 
ATOM     22  N   UNL     1       0.761   9.536  19.113  0.00  0.00    +0.000 NA
ATOM     23  C   UNL     1       1.127   8.773  20.159  0.00  0.00    +0.000 A 
ATOM     24  C   UNL     1       2.028   7.716  20.073  0.00  0.00    +0.000 A 
ENDBRANCH  17  19
BRANCH  16  25
ATOM     25  C   UNL     1       2.106   4.176  18.841  0.00  0.00    +0.000 C 
ATOM     26  C   UNL     1       2.130   2.619  18.723  0.00  0.00    +0.000 C 
ATOM     27  C   UNL     1       1.392   4.411  20.196  0.00  0.00    +0.000 C 
ATOM     28  C   UNL     1       1.353   4.574  17.544  0.00  0.00    +0.000 C 
ENDBRANCH  16  25
ENDBRANCH  15  16
ENDBRANCH   7  15
TORSDOF 6
ENDMDL
MODEL 2
REMARK VINA RESULT:      -7.5      1.662      3.494
REMARK  Name = 
REMARK  10 active torsions:
REMARK  status: ('A' for Active; 'I' for Inactive)
REMARK    1  A    between atoms: C_1  and  O_2
REMARK    2  A    between atoms: O_2  and  C_3
REMARK    3  A    between atoms: C_8  and  O_9
REMARK    4  A    between atoms: C_10  and  C_11
REMARK    5  A    between atoms: C_11  and  N_12
REMARK    6  A    between atoms: N_12  and  C_21
REMARK    7  A    between atoms: C_13  and  C_15
REMARK    8  A    between atoms: C_21  and  C_22
REMARK    9  A    between atoms: C_21  and  C_23
REMARK   10  A    between atoms: C_21  and  C_24
REMARK                            x       y       z     vdW  Elec       q    Type
REMARK                         _______ _______ _______ _____ _____    ______ ____
ROOT
ATOM      1  C   UNL     1       5.718   3.487  12.403  0.00  0.00    +0.000 A 
ATOM      2  C   UNL     1       6.920   4.116  12.088  0.00  0.00    +0.000 A 
ATOM      3  C   UNL     1       7.594   4.857  13.058  0.00  0.00    +0.000 A 
ATOM      4  C   UNL     1       7.057   5.056  14.316  0.00  0.00    +0.000 A 
ATOM      5  N   UNL     1       7.779   5.721  15.224  0.00  0.00    +0.000 NA
ATOM      6  C   UNL     1       7.161   6.081  16.357  0.00  0.00    +0.000 A 
ATOM      7  C   UNL     1       5.822   5.853  16.636  0.00  0.00    +0.000 A 
ATOM      8  C   UNL     1       5.146   4.991  15.762  0.00  0.00    +0.000 A 
ATOM      9  C   UNL     1       5.756   4.577  14.572  0.00  0.00    +0.000 A 
ATOM     10  C   UNL     1       5.115   3.747  13.632  0.00  0.00    +0.000 A 
ENDROOT
BRANCH   1  12
ATOM     11  C   UNL     1       3.876   3.190  10.980  0.00  0.00    +0.000 C 
ATOM     12  O   UNL     1       5.055   2.634  11.562  0.00  0.00    +0.000 OA
ENDBRANCH   1  12
BRANCH   6  13
ATOM     13  O   UNL     1       7.994   6.646  17.276  0.00  0.00    +0.000 OA
ATOM     14  H   UNL     1       7.439   7.265  17.771  0.00  0.00    +0.000 HD
ENDBRANCH   6  13
BRANCH   7  15
ATOM     15  C   UNL     1       5.095   6.489  17.785  0.00  0.00    +0.000 C 
BRANCH  15  16
ATOM     16  N   UNL     1       3.902   5.815  18.408  0.00  0.00    +0.000 N 
ATOM     17  C   UNL     1       4.098   4.606  19.166  0.00  0.00    +0.000 C 
ATOM     18  O   UNL     1       5.212   4.079  19.198  0.00  0.00    +0.000 OA
BRANCH  17  19
ATOM     19  C   UNL     1       3.076   3.858  20.028  0.00  0.00    +0.000 A 
ATOM     20  C   UNL     1       2.788   4.017  21.385  0.00  0.00    +0.000 A 
ATOM     21  C   UNL     1       1.908   3.159  22.035  0.00  0.00    +0.000 A 
ATOM     22  N   UNL     1       1.231   2.177  21.422  0.00  0.00    +0.000 NA
ATOM     23  C   UNL     1       1.444   2.058  20.098  0.00  0.00    +0.000 A 
ATOM     24  C   UNL     1       2.333   2.851  19.379  0.00  0.00    +0.000 A 
ENDBRANCH  17  19
BRANCH  16  25
ATOM     25  C   UNL     1       2.631   6.616  18.380  0.00  0.00    +0.000 C 
ATOM     26  C   UNL     1       2.692   7.949  17.567  0.00  0.00    +0.000 C 
ATOM     27  C   UNL     1       1.561   5.794  17.617  0.00  0.00    +0.000 C 
ATOM     28  C   UNL     1       2.275   7.133  19.799  0.00  0.00    +0.000 C 
ENDBRANCH  16  25
ENDBRANCH  15  16
ENDBRANCH   7  15
TORSDOF 6
ENDMDL
MODEL 3
REMARK VINA RESULT:      -7.4      1.730      3.360
REMARK  Name = 
REMARK  10 active torsions:
REMARK  status: ('A' for Active; 'I' for Inactive)
REMARK    1  A    between atoms: C_1  and  O_2
REMARK    2  A    between atoms: O_2  and  C_3
REMARK    3  A    between atoms: C_8  and  O_9
REMARK    4  A    between atoms: C_10  and  C_11
REMARK    5  A    between atoms: C_11  and  N_12
REMARK    6  A    between atoms: N_12  and  C_21
REMARK    7  A    between atoms: C_13  and  C_15
REMARK    8  A    between atoms: C_21  and  C_22
REMARK    9  A    between atoms: C_21  and  C_23
REMARK   10  A    between atoms: C_21  and  C_24
REMARK                            x       y       z     vdW  Elec       q    Type
REMARK                         _______ _______ _______ _____ _____    ______ ____
ROOT
ATOM      1  C   UNL     1       5.696   3.389  12.220  0.00  0.00    +0.000 A 
ATOM      2  C   UNL     1       6.896   4.024  11.905  0.00  0.00    +0.000 A 
ATOM      3  C   UNL     1       7.576   4.753  12.880  0.00  0.00    +0.000 A 
ATOM      4  C   UNL     1       7.048   4.934  14.144  0.00  0.00    +0.000 A 
ATOM      5  N   UNL     1       7.776   5.588  15.055  0.00  0.00    +0.000 NA
ATOM      6  C   UNL     1       7.166   5.932  16.198  0.00  0.00    +0.000 A 
ATOM      7  C   UNL     1       5.829   5.698  16.484  0.00  0.00    +0.000 A 
ATOM      8  C   UNL     1       5.148   4.847  15.603  0.00  0.00    +0.000 A 
ATOM      9  C   UNL     1       5.750   4.449  14.403  0.00  0.00    +0.000 A 
ATOM     10  C   UNL     1       5.102   3.632  13.457  0.00  0.00    +0.000 A 
ENDROOT
BRANCH   1  12
ATOM     11  C   UNL     1       3.728   3.004  11.003  0.00  0.00    +0.000 C 
ATOM     12  O   UNL     1       5.029   2.546  11.373  0.00  0.00    +0.000 OA
ENDBRANCH   1  12
BRANCH   6  13
ATOM     13  O   UNL     1       8.005   6.486  17.118  0.00  0.00    +0.000 OA
ATOM     14  H   UNL     1       7.712   6.134  17.969  0.00  0.00    +0.000 HD
ENDBRANCH   6  13
BRANCH   7  15
ATOM     15  C   UNL     1       5.111   6.317  17.647  0.00  0.00    +0.000 C 
BRANCH  15  16
ATOM     16  N   UNL     1       3.916   5.639  18.263  0.00  0.00    +0.000 N 
ATOM     17  C   UNL     1       4.100   4.382  18.944  0.00  0.00    +0.000 C 
ATOM     18  O   UNL     1       5.200   3.826  18.914  0.00  0.00    +0.000 OA
BRANCH  17  19
ATOM     19  C   UNL     1       3.082   3.612  19.790  0.00  0.00    +0.000 A 
ATOM     20  C   UNL     1       2.154   2.650  19.387  0.00  0.00    +0.000 A 
ATOM     21  C   UNL     1       1.216   2.142  20.281  0.00  0.00    +0.000 A 
ATOM     22  N   UNL     1       1.166   2.472  21.579  0.00  0.00    +0.000 NA
ATOM     23  C   UNL     1       2.102   3.343  21.999  0.00  0.00    +0.000 A 
ATOM     24  C   UNL     1       3.051   3.925  21.164  0.00  0.00    +0.000 A 
ENDBRANCH  17  19
BRANCH  16  25
ATOM     25  C   UNL     1       2.667   6.471  18.316  0.00  0.00    +0.000 C 
ATOM     26  C   UNL     1       2.202   6.898  19.745  0.00  0.00    +0.000 C 
ATOM     27  C   UNL     1       2.963   7.828  17.628  0.00  0.00    +0.000 C 
ATOM     28  C   UNL     1       1.442   5.657  17.821  0.00  0.00    +0.000 C 
ENDBRANCH  16  25
ENDBRANCH  15  16
ENDBRANCH   7  15
TORSDOF 6
ENDMDL
MODEL 4
REMARK VINA RESULT:      -7.3      1.710      3.488
REMARK  Name = 
REMARK  10 active torsions:
REMARK  status: ('A' for Active; 'I' for Inactive)
REMARK    1  A    between atoms: C_1  and  O_2
REMARK    2  A    between atoms: O_2  and  C_3
REMARK    3  A    between atoms: C_8  and  O_9
REMARK    4  A    between atoms: C_10  and  C_11
REMARK    5  A    between atoms: C_11  and  N_12
REMARK    6  A    between atoms: N_12  and  C_21
REMARK    7  A    between atoms: C_13  and  C_15
REMARK    8  A    between atoms: C_21  and  C_22
REMARK    9  A    between atoms: C_21  and  C_23
REMARK   10  A    between atoms: C_21  and  C_24
REMARK                            x       y       z     vdW  Elec       q    Type
REMARK                         _______ _______ _______ _____ _____    ______ ____
ROOT
ATOM      1  C   UNL     1       5.795   3.304  12.336  0.00  0.00    +0.000 A 
ATOM      2  C   UNL     1       6.993   3.930  12.002  0.00  0.00    +0.000 A 
ATOM      3  C   UNL     1       7.643   4.737  12.936  0.00  0.00    +0.000 A 
ATOM      4  C   UNL     1       7.084   5.002  14.171  0.00  0.00    +0.000 A 
ATOM      5  N   UNL     1       7.784   5.730  15.048  0.00  0.00    +0.000 NA
ATOM      6  C   UNL     1       7.144   6.149  16.149  0.00  0.00    +0.000 A 
ATOM      7  C   UNL     1       5.804   5.918  16.422  0.00  0.00    +0.000 A 
ATOM      8  C   UNL     1       5.153   4.997  15.591  0.00  0.00    +0.000 A 
ATOM      9  C   UNL     1       5.786   4.521  14.437  0.00  0.00    +0.000 A 
ATOM     10  C   UNL     1       5.170   3.628  13.539  0.00  0.00    +0.000 A 
ENDROOT
BRANCH   1  12
ATOM     11  C   UNL     1       5.961   1.270  11.181  0.00  0.00    +0.000 C 
ATOM     12  O   UNL     1       5.156   2.393  11.539  0.00  0.00    +0.000 OA
ENDBRANCH   1  12
BRANCH   6  13
ATOM     13  O   UNL     1       7.955   6.779  17.044  0.00  0.00    +0.000 OA
ATOM     14  H   UNL     1       8.655   6.142  17.241  0.00  0.00    +0.000 HD
ENDBRANCH   6  13
BRANCH   7  15
ATOM     15  C   UNL     1       5.052   6.612  17.521  0.00  0.00    +0.000 C 
BRANCH  15  16
ATOM     16  N   UNL     1       3.887   5.940  18.197  0.00  0.00    +0.000 N 
ATOM     17  C   UNL     1       4.112   4.721  18.931  0.00  0.00    +0.000 C 
ATOM     18  O   UNL     1       5.221   4.185  18.900  0.00  0.00    +0.000 OA
BRANCH  17  19
ATOM     19  C   UNL     1       3.130   3.972  19.838  0.00  0.00    +0.000 A 
ATOM     20  C   UNL     1       2.848   4.180  21.189  0.00  0.00    +0.000 A 
ATOM     21  C   UNL     1       2.010   3.316  21.886  0.00  0.00    +0.000 A 
ATOM     22  N   UNL     1       1.369   2.281  21.325  0.00  0.00    +0.000 NA
ATOM     23  C   UNL     1       1.574   2.112  20.006  0.00  0.00    +0.000 A 
ATOM     24  C   UNL     1       2.423   2.908  19.242  0.00  0.00    +0.000 A 
ENDBRANCH  17  19
BRANCH  16  25
ATOM     25  C   UNL     1       2.623   6.751  18.243  0.00  0.00    +0.000 C 
ATOM     26  C   UNL     1       2.169   7.213  19.664  0.00  0.00    +0.000 C 
ATOM     27  C   UNL     1       2.883   8.091  17.509  0.00  0.00    +0.000 C 
ATOM     28  C   UNL     1       1.407   5.899  17.791  0.00  0.00    +0.000 C 
ENDBRANCH  16  25
ENDBRANCH  15  16
ENDBRANCH   7  15
TORSDOF 6
ENDMDL
MODEL 5
REMARK VINA RESULT:      -7.1      0.265      1.262
REMARK  Name = 
REMARK  10 active torsions:
REMARK  status: ('A' for Active; 'I' for Inactive)
REMARK    1  A    between atoms: C_1  and  O_2
REMARK    2  A    between atoms: O_2  and  C_3
REMARK    3  A    between atoms: C_8  and  O_9
REMARK    4  A    between atoms: C_10  and  C_11
REMARK    5  A    between atoms: C_11  and  N_12
REMARK    6  A    between atoms: N_12  and  C_21
REMARK    7  A    between atoms: C_13  and  C_15
REMARK    8  A    between atoms: C_21  and  C_22
REMARK    9  A    between atoms: C_21  and  C_23
REMARK   10  A    between atoms: C_21  and  C_24
REMARK                            x       y       z     vdW  Elec       q    Type
REMARK                         _______ _______ _______ _____ _____    ______ ____
ROOT
ATOM      1  C   UNL     1       5.996   3.748  12.761  0.00  0.00    +0.000 A 
ATOM      2  C   UNL     1       7.022   4.684  12.875  0.00  0.00    +0.000 A 
ATOM      3  C   UNL     1       7.516   5.028  14.132  0.00  0.00    +0.000 A 
ATOM      4  C   UNL     1       6.956   4.522  15.290  0.00  0.00    +0.000 A 
ATOM      5  N   UNL     1       7.514   4.838  16.463  0.00  0.00    +0.000 NA
ATOM      6  C   UNL     1       6.838   4.511  17.574  0.00  0.00    +0.000 A 
ATOM      7  C   UNL     1       5.587   3.911  17.592  0.00  0.00    +0.000 A 
ATOM      8  C   UNL     1       5.120   3.418  16.366  0.00  0.00    +0.000 A 
ATOM      9  C   UNL     1       5.800   3.722  15.180  0.00  0.00    +0.000 A 
ATOM     10  C   UNL     1       5.358   3.294  13.914  0.00  0.00    +0.000 A 
ENDROOT
BRANCH   1  12
ATOM     11  C   UNL     1       4.122   3.313  11.420  0.00  0.00    +0.000 C 
ATOM     12  O   UNL     1       5.540   3.250  11.570  0.00  0.00    +0.000 OA
ENDBRANCH   1  12
BRANCH   6  13
ATOM     13  O   UNL     1       7.526   4.758  18.723  0.00  0.00    +0.000 OA
ATOM     14  H   UNL     1       7.290   4.034  19.318  0.00  0.00    +0.000 HD
ENDBRANCH   6  13
BRANCH   7  15
ATOM     15  C   UNL     1       4.743   3.795  18.827  0.00  0.00    +0.000 C 
BRANCH  15  16
ATOM     16  N   UNL     1       3.589   4.733  19.060  0.00  0.00    +0.000 N 
ATOM     17  C   UNL     1       3.832   6.153  19.061  0.00  0.00    +0.000 C 
ATOM     18  O   UNL     1       4.987   6.575  18.988  0.00  0.00    +0.000 OA
BRANCH  17  19
ATOM     19  C   UNL     1       2.799   7.285  19.095  0.00  0.00    +0.000 A 
ATOM     20  C   UNL     1       1.991   7.704  20.152  0.00  0.00    +0.000 A 
ATOM     21  C   UNL     1       1.014   8.677  19.964  0.00  0.00    +0.000 A 
ATOM     22  N   UNL     1       0.815   9.322  18.806  0.00  0.00    +0.000 NA
ATOM     23  C   UNL     1       1.637   8.980  17.797  0.00  0.00    +0.000 A 
ATOM     24  C   UNL     1       2.614   7.993  17.890  0.00  0.00    +0.000 A 
ENDBRANCH  17  19
BRANCH  16  25
ATOM     25  C   UNL     1       2.230   4.092  19.030  0.00  0.00    +0.000 C 
ATOM     26  C   UNL     1       1.257   4.520  20.175  0.00  0.00    +0.000 C 
ATOM     27  C   UNL     1       1.498   4.575  17.753  0.00  0.00    +0.000 C 
ATOM     28  C   UNL     1       2.338   2.563  19.271  0.00  0.00    +0.000 C 
ENDBRANCH  16  25
ENDBRANCH  15  16
ENDBRANCH   7  15
TORSDOF 6
ENDMDL
MODEL 6
REMARK VINA RESULT:      -7.0      1.750      3.317
REMARK  Name = 
REMARK  10 active torsions:
REMARK  status: ('A' for Active; 'I' for Inactive)
REMARK    1  A    between atoms: C_1  and  O_2
REMARK    2  A    between atoms: O_2  and  C_3
REMARK    3  A    between atoms: C_8  and  O_9
REMARK    4  A    between atoms: C_10  and  C_11
REMARK    5  A    between atoms: C_11  and  N_12
REMARK    6  A    between atoms: N_12  and  C_21
REMARK    7  A    between atoms: C_13  and  C_15
REMARK    8  A    between atoms: C_21  and  C_22
REMARK    9  A    between atoms: C_21  and  C_23
REMARK   10  A    between atoms: C_21  and  C_24
REMARK                            x       y       z     vdW  Elec       q    Type
REMARK                         _______ _______ _______ _____ _____    ______ ____
ROOT
ATOM      1  C   UNL     1       5.842   3.369  12.303  0.00  0.00    +0.000 A 
ATOM      2  C   UNL     1       7.035   4.021  11.999  0.00  0.00    +0.000 A 
ATOM      3  C   UNL     1       7.676   4.791  12.969  0.00  0.00    +0.000 A 
ATOM      4  C   UNL     1       7.114   4.995  14.215  0.00  0.00    +0.000 A 
ATOM      5  N   UNL     1       7.806   5.688  15.125  0.00  0.00    +0.000 NA
ATOM      6  C   UNL     1       7.161   6.050  16.243  0.00  0.00    +0.000 A 
ATOM      7  C   UNL     1       5.823   5.795  16.504  0.00  0.00    +0.000 A 
ATOM      8  C   UNL     1       5.181   4.906  15.631  0.00  0.00    +0.000 A 
ATOM      9  C   UNL     1       5.820   4.489  14.456  0.00  0.00    +0.000 A 
ATOM     10  C   UNL     1       5.213   3.632  13.519  0.00  0.00    +0.000 A 
ENDROOT
BRANCH   1  12
ATOM     11  C   UNL     1       5.964   1.305  11.195  0.00  0.00    +0.000 C 
ATOM     12  O   UNL     1       5.213   2.489  11.464  0.00  0.00    +0.000 OA
ENDBRANCH   1  12
BRANCH   6  13
ATOM     13  O   UNL     1       7.966   6.647  17.167  0.00  0.00    +0.000 OA
ATOM     14  H   UNL     1       8.272   5.928  17.735  0.00  0.00    +0.000 HD
ENDBRANCH   6  13
BRANCH   7  15
ATOM     15  C   UNL     1       5.064   6.430  17.632  0.00  0.00    +0.000 C 
BRANCH  15  16
ATOM     16  N   UNL     1       3.867   5.745  18.235  0.00  0.00    +0.000 N 
ATOM     17  C   UNL     1       4.043   4.467  18.876  0.00  0.00    +0.000 C 
ATOM     18  O   UNL     1       5.136   3.901  18.822  0.00  0.00    +0.000 OA
BRANCH  17  19
ATOM     19  C   UNL     1       3.022   3.681  19.705  0.00  0.00    +0.000 A 
ATOM     20  C   UNL     1       1.998   2.838  19.269  0.00  0.00    +0.000 A 
ATOM     21  C   UNL     1       1.081   2.302  20.167  0.00  0.00    +0.000 A 
ATOM     22  N   UNL     1       1.138   2.487  21.494  0.00  0.00    +0.000 NA
ATOM     23  C   UNL     1       2.164   3.238  21.937  0.00  0.00    +0.000 A 
ATOM     24  C   UNL     1       3.102   3.840  21.104  0.00  0.00    +0.000 A 
ENDBRANCH  17  19
BRANCH  16  25
ATOM     25  C   UNL     1       2.626   6.588  18.322  0.00  0.00    +0.000 C 
ATOM     26  C   UNL     1       1.339   5.960  17.697  0.00  0.00    +0.000 C 
ATOM     27  C   UNL     1       2.248   6.737  19.817  0.00  0.00    +0.000 C 
ATOM     28  C   UNL     1       2.781   7.882  17.479  0.00  0.00    +0.000 C 
ENDBRANCH  16  25
ENDBRANCH  15  16
ENDBRANCH   7  15
TORSDOF 6
ENDMDL
MODEL 7
REMARK VINA RESULT:      -6.3      2.649      7.849
REMARK  Name = 
REMARK  10 active torsions:
REMARK  status: ('A' for Active; 'I' for Inactive)
REMARK    1  A    between atoms: C_1  and  O_2
REMARK    2  A    between atoms: O_2  and  C_3
REMARK    3  A    between atoms: C_8  and  O_9
REMARK    4  A    between atoms: C_10  and  C_11
REMARK    5  A    between atoms: C_11  and  N_12
REMARK    6  A    between atoms: N_12  and  C_21
REMARK    7  A    between atoms: C_13  and  C_15
REMARK    8  A    between atoms: C_21  and  C_22
REMARK    9  A    between atoms: C_21  and  C_23
REMARK   10  A    between atoms: C_21  and  C_24
REMARK                            x       y       z     vdW  Elec       q    Type
REMARK                         _______ _______ _______ _____ _____    ______ ____
ROOT
ATOM      1  C   UNL     1       0.488  12.335  19.687  0.00  0.00    +0.000 A 
ATOM      2  C   UNL     1       0.242  12.008  21.019  0.00  0.00    +0.000 A 
ATOM      3  C   UNL     1       0.567  10.739  21.496  0.00  0.00    +0.000 A 
ATOM      4  C   UNL     1       1.058   9.757  20.657  0.00  0.00    +0.000 A 
ATOM      5  N   UNL     1       1.412   8.580  21.184  0.00  0.00    +0.000 NA
ATOM      6  C   UNL     1       1.684   7.581  20.333  0.00  0.00    +0.000 A 
ATOM      7  C   UNL     1       1.584   7.668  18.952  0.00  0.00    +0.000 A 
ATOM      8  C   UNL     1       1.403   8.953  18.424  0.00  0.00    +0.000 A 
ATOM      9  C   UNL     1       1.130  10.031  19.276  0.00  0.00    +0.000 A 
ATOM     10  C   UNL     1       0.896  11.337  18.805  0.00  0.00    +0.000 A 
ENDROOT
BRANCH   1  12
ATOM     11  C   UNL     1       1.545  14.323  19.029  0.00  0.00    +0.000 C 
ATOM     12  O   UNL     1       0.328  13.590  19.164  0.00  0.00    +0.000 OA
ENDBRANCH   1  12
BRANCH   6  13
ATOM     13  O   UNL     1       2.151   6.456  20.944  0.00  0.00    +0.000 OA
ATOM     14  H   UNL     1       1.566   5.747  20.645  0.00  0.00    +0.000 HD
ENDBRANCH   6  13
BRANCH   7  15
ATOM     15  C   UNL     1       1.639   6.476  18.042  0.00  0.00    +0.000 C 
BRANCH  15  16
ATOM     16  N   UNL     1       2.876   5.621  17.968  0.00  0.00    +0.000 N 
ATOM     17  C   UNL     1       4.145   6.250  17.707  0.00  0.00    +0.000 C 
ATOM     18  O   UNL     1       4.188   7.451  17.435  0.00  0.00    +0.000 OA
BRANCH  17  19
ATOM     19  C   UNL     1       5.540   5.618  17.767  0.00  0.00    +0.000 A 
ATOM     20  C   UNL     1       6.487   5.677  18.790  0.00  0.00    +0.000 A 
ATOM     21  C   UNL     1       7.759   5.141  18.619  0.00  0.00    +0.000 A 
ATOM     22  N   UNL     1       8.152   4.484  17.518  0.00  0.00    +0.000 NA
ATOM     23  C   UNL     1       7.225   4.355  16.551  0.00  0.00    +0.000 A 
ATOM     24  C   UNL     1       5.943   4.892  16.628  0.00  0.00    +0.000 A 
ENDBRANCH  17  19
BRANCH  16  25
ATOM     25  C   UNL     1       2.696   4.199  18.419  0.00  0.00    +0.000 C 
ATOM     26  C   UNL     1       1.287   3.847  18.994  0.00  0.00    +0.000 C 
ATOM     27  C   UNL     1       2.802   3.281  17.175  0.00  0.00    +0.000 C 
ATOM     28  C   UNL     1       3.613   3.888  19.632  0.00  0.00    +0.000 C 
ENDBRANCH  16  25
ENDBRANCH  15  16
ENDBRANCH   7  15
TORSDOF 6
ENDMDL
MODEL 8
REMARK VINA RESULT:      -6.2      4.498      7.769
REMARK  Name = 
REMARK  10 active torsions:
REMARK  status: ('A' for Active; 'I' for Inactive)
REMARK    1  A    between atoms: C_1  and  O_2
REMARK    2  A    between atoms: O_2  and  C_3
REMARK    3  A    between atoms: C_8  and  O_9
REMARK    4  A    between atoms: C_10  and  C_11
REMARK    5  A    between atoms: C_11  and  N_12
REMARK    6  A    between atoms: N_12  and  C_21
REMARK    7  A    between atoms: C_13  and  C_15
REMARK    8  A    between atoms: C_21  and  C_22
REMARK    9  A    between atoms: C_21  and  C_23
REMARK   10  A    between atoms: C_21  and  C_24
REMARK                            x       y       z     vdW  Elec       q    Type
REMARK                         _______ _______ _______ _____ _____    ______ ____
ROOT
ATOM      1  C   UNL     1       2.238   4.677  19.974  0.00  0.00    +0.000 A 
ATOM      2  C   UNL     1       2.321   4.662  18.584  0.00  0.00    +0.000 A 
ATOM      3  C   UNL     1       2.322   5.861  17.872  0.00  0.00    +0.000 A 
ATOM      4  C   UNL     1       2.158   7.077  18.508  0.00  0.00    +0.000 A 
ATOM      5  N   UNL     1       2.232   8.196  17.780  0.00  0.00    +0.000 NA
ATOM      6  C   UNL     1       1.865   9.341  18.374  0.00  0.00    +0.000 A 
ATOM      7  C   UNL     1       1.377   9.441  19.668  0.00  0.00    +0.000 A 
ATOM      8  C   UNL     1       1.495   8.294  20.464  0.00  0.00    +0.000 A 
ATOM      9  C   UNL     1       1.887   7.077  19.891  0.00  0.00    +0.000 A 
ATOM     10  C   UNL     1       1.982   5.881  20.628  0.00  0.00    +0.000 A 
ENDROOT
BRANCH   1  12
ATOM     11  C   UNL     1       3.438   2.704  20.384  0.00  0.00    +0.000 C 
ATOM     12  O   UNL     1       2.364   3.565  20.762  0.00  0.00    +0.000 OA
ENDBRANCH   1  12
BRANCH   6  13
ATOM     13  O   UNL     1       2.082  10.446  17.607  0.00  0.00    +0.000 OA
ATOM     14  H   UNL     1       2.949  10.305  17.202  0.00  0.00    +0.000 HD
ENDBRANCH   6  13
BRANCH   7  15
ATOM     15  C   UNL     1       0.733  10.681  20.216  0.00  0.00    +0.000 C 
BRANCH  15  16
ATOM     16  N   UNL     1      -0.343  11.395  19.442  0.00  0.00    +0.000 N 
ATOM     17  C   UNL     1      -1.467  10.640  18.949  0.00  0.00    +0.000 C 
ATOM     18  O   UNL     1      -1.477   9.413  19.064  0.00  0.00    +0.000 OA
BRANCH  17  19
ATOM     19  C   UNL     1      -2.750  11.174  18.305  0.00  0.00    +0.000 A 
ATOM     20  C   UNL     1      -3.820  11.842  18.903  0.00  0.00    +0.000 A 
ATOM     21  C   UNL     1      -4.968  12.147  18.178  0.00  0.00    +0.000 A 
ATOM     22  N   UNL     1      -5.116  11.894  16.870  0.00  0.00    +0.000 NA
ATOM     23  C   UNL     1      -4.063  11.316  16.263  0.00  0.00    +0.000 A 
ATOM     24  C   UNL     1      -2.893  10.946  16.921  0.00  0.00    +0.000 A 
ENDBRANCH  17  19
BRANCH  16  25
ATOM     25  C   UNL     1      -0.258  12.895  19.467  0.00  0.00    +0.000 C 
ATOM     26  C   UNL     1       1.116  13.484  19.923  0.00  0.00    +0.000 C 
ATOM     27  C   UNL     1      -0.390  13.409  18.011  0.00  0.00    +0.000 C 
ATOM     28  C   UNL     1      -1.217  13.482  20.536  0.00  0.00    +0.000 C 
ENDBRANCH  16  25
ENDBRANCH  15  16
ENDBRANCH   7  15
TORSDOF 6
ENDMDL
MODEL 9
REMARK VINA RESULT:      -6.2      2.393      7.505
REMARK  Name = 
REMARK  10 active torsions:
REMARK  status: ('A' for Active; 'I' for Inactive)
REMARK    1  A    between atoms: C_1  and  O_2
REMARK    2  A    between atoms: O_2  and  C_3
REMARK    3  A    between atoms: C_8  and  O_9
REMARK    4  A    between atoms: C_10  and  C_11
REMARK    5  A    between atoms: C_11  and  N_12
REMARK    6  A    between atoms: N_12  and  C_21
REMARK    7  A    between atoms: C_13  and  C_15
REMARK    8  A    between atoms: C_21  and  C_22
REMARK    9  A    between atoms: C_21  and  C_23
REMARK   10  A    between atoms: C_21  and  C_24
REMARK                            x       y       z     vdW  Elec       q    Type
REMARK                         _______ _______ _______ _____ _____    ______ ____
ROOT
ATOM      1  C   UNL     1       1.112  12.016  19.035  0.00  0.00    +0.000 A 
ATOM      2  C   UNL     1       0.751  11.894  20.376  0.00  0.00    +0.000 A 
ATOM      3  C   UNL     1       0.888  10.668  21.026  0.00  0.00    +0.000 A 
ATOM      4  C   UNL     1       1.301   9.536  20.350  0.00  0.00    +0.000 A 
ATOM      5  N   UNL     1       1.475   8.404  21.041  0.00  0.00    +0.000 NA
ATOM      6  C   UNL     1       1.670   7.279  20.340  0.00  0.00    +0.000 A 
ATOM      7  C   UNL     1       1.661   7.197  18.955  0.00  0.00    +0.000 A 
ATOM      8  C   UNL     1       1.672   8.415  18.263  0.00  0.00    +0.000 A 
ATOM      9  C   UNL     1       1.486   9.619  18.955  0.00  0.00    +0.000 A 
ATOM     10  C   UNL     1       1.443  10.871  18.313  0.00  0.00    +0.000 A 
ENDROOT
BRANCH   1  12
ATOM     11  C   UNL     1       2.423  13.826  18.324  0.00  0.00    +0.000 C 
ATOM     12  O   UNL     1       1.139  13.202  18.353  0.00  0.00    +0.000 OA
ENDBRANCH   1  12
BRANCH   6  13
ATOM     13  O   UNL     1       1.957   6.196  21.115  0.00  0.00    +0.000 OA
ATOM     14  H   UNL     1       2.506   5.627  20.559  0.00  0.00    +0.000 HD
ENDBRANCH   6  13
BRANCH   7  15
ATOM     15  C   UNL     1       1.620   5.899  18.203  0.00  0.00    +0.000 C 
BRANCH  15  16
ATOM     16  N   UNL     1       2.874   5.094  17.989  0.00  0.00    +0.000 N 
ATOM     17  C   UNL     1       4.051   5.755  17.483  0.00  0.00    +0.000 C 
ATOM     18  O   UNL     1       3.984   6.932  17.126  0.00  0.00    +0.000 OA
BRANCH  17  19
ATOM     19  C   UNL     1       5.469   5.189  17.360  0.00  0.00    +0.000 A 
ATOM     20  C   UNL     1       6.471   5.113  18.328  0.00  0.00    +0.000 A 
ATOM     21  C   UNL     1       7.751   4.677  18.001  0.00  0.00    +0.000 A 
ATOM     22  N   UNL     1       8.104   4.242  16.783  0.00  0.00    +0.000 NA
ATOM     23  C   UNL     1       7.127   4.240  15.857  0.00  0.00    +0.000 A 
ATOM     24  C   UNL     1       5.833   4.693  16.091  0.00  0.00    +0.000 A 
ENDBRANCH  17  19
BRANCH  16  25
ATOM     25  C   UNL     1       2.846   3.705  18.560  0.00  0.00    +0.000 C 
ATOM     26  C   UNL     1       3.779   3.463  19.790  0.00  0.00    +0.000 C 
ATOM     27  C   UNL     1       1.432   3.452  19.143  0.00  0.00    +0.000 C 
ATOM     28  C   UNL     1       3.405   2.679  17.540  0.00  0.00    +0.000 C 
ENDBRANCH  16  25
ENDBRANCH  15  16
ENDBRANCH   7  15
TORSDOF 6
ENDMDL
