MODEL 1
REMARK VINA RESULT:      -9.8      0.000      0.000
REMARK  Name = 
REMARK  4 active torsions:
REMARK  status: ('A' for Active; 'I' for Inactive)
REMARK    1  A    between atoms: C_1  and  N_2
REMARK    2  A    between atoms: C_4  and  C_5
REMARK    3  A    between atoms: C_5  and  C_7
REMARK    4  A    between atoms: C_17  and  C_18
REMARK                            x       y       z     vdW  Elec       q    Type
REMARK                         _______ _______ _______ _____ _____    ______ ____
ROOT
ATOM      1  C   UNL     1       4.402   2.338  19.739  0.00  0.00    +0.000 C 
ATOM      2  N   UNL     1       4.285   3.628  19.095  0.00  0.00    +0.000 N 
ATOM      3  C   UNL     1       4.976   4.020  17.978  0.00  0.00    +0.000 A 
ATOM      4  C   UNL     1       4.605   5.318  17.665  0.00  0.00    +0.000 A 
ATOM      5  C   UNL     1       3.649   5.717  18.659  0.00  0.00    +0.000 A 
ATOM      6  C   UNL     1       2.917   6.904  18.895  0.00  0.00    +0.000 A 
ATOM      7  C   UNL     1       2.024   7.021  19.979  0.00  0.00    +0.000 A 
ATOM      8  C   UNL     1       1.868   5.901  20.811  0.00  0.00    +0.000 A 
ATOM      9  C   UNL     1       2.565   4.703  20.602  0.00  0.00    +0.000 A 
ATOM     10  C   UNL     1       3.458   4.641  19.525  0.00  0.00    +0.000 A 
ENDROOT
BRANCH   7  11
ATOM     11  C   UNL     1       1.285   8.283  20.236  0.00  0.00    +0.000 A 
ATOM     12  C   UNL     1       1.178   9.283  19.255  0.00  0.00    +0.000 A 
ATOM     13  C   UNL     1       0.463  10.463  19.486  0.00  0.00    +0.000 A 
ATOM     14  C   UNL     1      -0.159  10.691  20.719  0.00  0.00    +0.000 A 
ATOM     15  C   UNL     1      -0.878  11.871  20.969  0.00  0.00    +0.000 A 
ATOM     16  C   UNL     1      -1.485  12.085  22.205  0.00  0.00    +0.000 A 
ATOM     17  C   UNL     1      -1.381  11.124  23.208  0.00  0.00    +0.000 A 
ATOM     18  C   UNL     1      -0.672   9.946  22.971  0.00  0.00    +0.000 A 
ATOM     19  C   UNL     1      -0.057   9.714  21.729  0.00  0.00    +0.000 A 
ATOM     20  C   UNL     1       0.654   8.527  21.472  0.00  0.00    +0.000 A 
ENDBRANCH   7  11
BRANCH   4  21
ATOM     21  C   UNL     1       5.089   6.120  16.540  0.00  0.00    +0.000 C 
ATOM     22  O   UNL     1       4.439   7.050  16.061  0.00  0.00    +0.000 OA
BRANCH  21  23
ATOM     23  C   UNL     1       6.423   5.795  15.862  0.00  0.00    +0.000 C 
ATOM     24  O   UNL     1       7.448   6.285  16.329  0.00  0.00    +0.000 OA
ATOM     25  N   UNL     1       6.385   4.972  14.730  0.00  0.00    +0.000 N 
ATOM     26  C   UNL     1       7.648   4.624  14.083  0.00  0.00    +0.000 C 
ATOM     27  C   UNL     1       7.497   4.413  12.577  0.00  0.00    +0.000 C 
ATOM     28  C   UNL     1       6.329   3.494  12.235  0.00  0.00    +0.000 C 
ATOM     29  C   UNL     1       5.047   3.977  12.906  0.00  0.00    +0.000 C 
ATOM     30  C   UNL     1       5.239   4.122  14.412  0.00  0.00    +0.000 C 
ENDBRANCH  21  23
ENDBRANCH   4  21
TORSDOF 3
ENDMDL
MODEL 2
REMARK VINA RESULT:      -9.1      0.581      1.510
REMARK  Name = 
REMARK  4 active torsions:
REMARK  status: ('A' for Active; 'I' for Inactive)
REMARK    1  A    between atoms: C_1  and  N_2
REMARK    2  A    between atoms: C_4  and  C_5
REMARK    3  A    between atoms: C_5  and  C_7
REMARK    4  A    between atoms: C_17  and  C_18
REMARK                            x       y       z     vdW  Elec       q    Type
REMARK                         _______ _______ _______ _____ _____    ______ ____
ROOT
ATOM      1  C   UNL     1       4.210   2.168  19.478  0.00  0.00    +0.000 C 
ATOM      2  N   UNL     1       4.147   3.503  18.925  0.00  0.00    +0.000 N 
ATOM      3  C   UNL     1       4.841   3.937  17.825  0.00  0.00    +0.000 A 
ATOM      4  C   UNL     1       4.530   5.270  17.608  0.00  0.00    +0.000 A 
ATOM      5  C   UNL     1       3.610   5.646  18.644  0.00  0.00    +0.000 A 
ATOM      6  C   UNL     1       2.942   6.848  18.973  0.00  0.00    +0.000 A 
ATOM      7  C   UNL     1       2.072   6.934  20.079  0.00  0.00    +0.000 A 
ATOM      8  C   UNL     1       1.873   5.768  20.835  0.00  0.00    +0.000 A 
ATOM      9  C   UNL     1       2.506   4.555  20.533  0.00  0.00    +0.000 A 
ATOM     10  C   UNL     1       3.378   4.524  19.438  0.00  0.00    +0.000 A 
ENDROOT
BRANCH   7  11
ATOM     11  C   UNL     1       1.402   8.210  20.434  0.00  0.00    +0.000 A 
ATOM     12  C   UNL     1       1.061   8.516  21.763  0.00  0.00    +0.000 A 
ATOM     13  C   UNL     1       0.450   9.727  22.103  0.00  0.00    +0.000 A 
ATOM     14  C   UNL     1       0.142  10.673  21.118  0.00  0.00    +0.000 A 
ATOM     15  C   UNL     1      -0.474  11.892  21.442  0.00  0.00    +0.000 A 
ATOM     16  C   UNL     1      -0.780  12.820  20.448  0.00  0.00    +0.000 A 
ATOM     17  C   UNL     1      -0.476  12.541  19.118  0.00  0.00    +0.000 A 
ATOM     18  C   UNL     1       0.139  11.334  18.783  0.00  0.00    +0.000 A 
ATOM     19  C   UNL     1       0.457  10.390  19.774  0.00  0.00    +0.000 A 
ATOM     20  C   UNL     1       1.085   9.172  19.454  0.00  0.00    +0.000 A 
ENDBRANCH   7  11
BRANCH   4  21
ATOM     21  C   UNL     1       5.036   6.123  16.531  0.00  0.00    +0.000 C 
ATOM     22  O   UNL     1       4.397   7.074  16.082  0.00  0.00    +0.000 OA
BRANCH  21  23
ATOM     23  C   UNL     1       6.385   5.829  15.866  0.00  0.00    +0.000 C 
ATOM     24  O   UNL     1       7.394   6.337  16.347  0.00  0.00    +0.000 OA
ATOM     25  N   UNL     1       6.375   5.011  14.729  0.00  0.00    +0.000 N 
ATOM     26  C   UNL     1       7.652   4.692  14.095  0.00  0.00    +0.000 C 
ATOM     27  C   UNL     1       7.523   4.486  12.586  0.00  0.00    +0.000 C 
ATOM     28  C   UNL     1       6.377   3.546  12.227  0.00  0.00    +0.000 C 
ATOM     29  C   UNL     1       5.078   3.999  12.886  0.00  0.00    +0.000 C 
ATOM     30  C   UNL     1       5.251   4.140  14.394  0.00  0.00    +0.000 C 
ENDBRANCH  21  23
ENDBRANCH   4  21
TORSDOF 3
ENDMDL
MODEL 3
REMARK VINA RESULT:      -8.8      4.091      9.127
REMARK  Name = 
REMARK  4 active torsions:
REMARK  status: ('A' for Active; 'I' for Inactive)
REMARK    1  A    between atoms: C_1  and  N_2
REMARK    2  A    between atoms: C_4  and  C_5
REMARK    3  A    between atoms: C_5  and  C_7
REMARK    4  A    between atoms: C_17  and  C_18
REMARK                            x       y       z     vdW  Elec       q    Type
REMARK                         _______ _______ _______ _____ _____    ______ ____
ROOT
ATOM      1  C   UNL     1      -1.537  11.530  23.136  0.00  0.00    +0.000 C 
ATOM      2  N   UNL     1      -0.816  11.425  21.887  0.00  0.00    +0.000 N 
ATOM      3  C   UNL     1      -0.745  12.404  20.930  0.00  0.00    +0.000 A 
ATOM      4  C   UNL     1       0.025  11.935  19.878  0.00  0.00    +0.000 A 
ATOM      5  C   UNL     1       0.422  10.600  20.229  0.00  0.00    +0.000 A 
ATOM      6  C   UNL     1       1.193   9.605  19.586  0.00  0.00    +0.000 A 
ATOM      7  C   UNL     1       1.425   8.348  20.179  0.00  0.00    +0.000 A 
ATOM      8  C   UNL     1       0.879   8.124  21.453  0.00  0.00    +0.000 A 
ATOM      9  C   UNL     1       0.120   9.090  22.128  0.00  0.00    +0.000 A 
ATOM     10  C   UNL     1      -0.103  10.316  21.489  0.00  0.00    +0.000 A 
ENDROOT
BRANCH   7  11
ATOM     11  C   UNL     1       2.209   7.299  19.480  0.00  0.00    +0.000 A 
ATOM     12  C   UNL     1       2.204   5.963  19.918  0.00  0.00    +0.000 A 
ATOM     13  C   UNL     1       2.924   4.969  19.247  0.00  0.00    +0.000 A 
ATOM     14  C   UNL     1       3.691   5.281  18.119  0.00  0.00    +0.000 A 
ATOM     15  C   UNL     1       4.421   4.296  17.436  0.00  0.00    +0.000 A 
ATOM     16  C   UNL     1       5.186   4.625  16.318  0.00  0.00    +0.000 A 
ATOM     17  C   UNL     1       5.232   5.942  15.869  0.00  0.00    +0.000 A 
ATOM     18  C   UNL     1       4.508   6.930  16.537  0.00  0.00    +0.000 A 
ATOM     19  C   UNL     1       3.730   6.614  17.663  0.00  0.00    +0.000 A 
ATOM     20  C   UNL     1       2.987   7.597  18.343  0.00  0.00    +0.000 A 
ENDBRANCH   7  11
BRANCH   4  21
ATOM     21  C   UNL     1       0.370  12.659  18.653  0.00  0.00    +0.000 C 
ATOM     22  O   UNL     1      -0.453  12.897  17.769  0.00  0.00    +0.000 OA
BRANCH  21  23
ATOM     23  C   UNL     1       1.811  13.110  18.388  0.00  0.00    +0.000 C 
ATOM     24  O   UNL     1       2.582  12.313  17.862  0.00  0.00    +0.000 OA
ATOM     25  N   UNL     1       2.162  14.405  18.789  0.00  0.00    +0.000 N 
ATOM     26  C   UNL     1       3.521  14.868  18.519  0.00  0.00    +0.000 C 
ATOM     27  C   UNL     1       4.020  15.865  19.565  0.00  0.00    +0.000 C 
ATOM     28  C   UNL     1       3.008  16.974  19.836  0.00  0.00    +0.000 C 
ATOM     29  C   UNL     1       1.639  16.387  20.167  0.00  0.00    +0.000 C 
ATOM     30  C   UNL     1       1.170  15.441  19.069  0.00  0.00    +0.000 C 
ENDBRANCH  21  23
ENDBRANCH   4  21
TORSDOF 3
ENDMDL
MODEL 4
REMARK VINA RESULT:      -8.8      4.121      9.350
REMARK  Name = 
REMARK  4 active torsions:
REMARK  status: ('A' for Active; 'I' for Inactive)
REMARK    1  A    between atoms: C_1  and  N_2
REMARK    2  A    between atoms: C_4  and  C_5
REMARK    3  A    between atoms: C_5  and  C_7
REMARK    4  A    between atoms: C_17  and  C_18
REMARK                            x       y       z     vdW  Elec       q    Type
REMARK                         _______ _______ _______ _____ _____    ______ ____
ROOT
ATOM      1  C   UNL     1      -0.981  10.655  23.033  0.00  0.00    +0.000 C 
ATOM      2  N   UNL     1      -0.203  10.670  21.814  0.00  0.00    +0.000 N 
ATOM      3  C   UNL     1       0.006  11.769  21.023  0.00  0.00    +0.000 A 
ATOM      4  C   UNL     1       0.789  11.392  19.944  0.00  0.00    +0.000 A 
ATOM      5  C   UNL     1       1.047   9.988  20.102  0.00  0.00    +0.000 A 
ATOM      6  C   UNL     1       1.764   9.032  19.346  0.00  0.00    +0.000 A 
ATOM      7  C   UNL     1       1.851   7.684  19.748  0.00  0.00    +0.000 A 
ATOM      8  C   UNL     1       1.218   7.325  20.948  0.00  0.00    +0.000 A 
ATOM      9  C   UNL     1       0.510   8.247  21.732  0.00  0.00    +0.000 A 
ATOM     10  C   UNL     1       0.431   9.570  21.280  0.00  0.00    +0.000 A 
ENDROOT
BRANCH   7  11
ATOM     11  C   UNL     1       2.579   6.681  18.929  0.00  0.00    +0.000 A 
ATOM     12  C   UNL     1       2.392   5.302  19.119  0.00  0.00    +0.000 A 
ATOM     13  C   UNL     1       3.058   4.356  18.334  0.00  0.00    +0.000 A 
ATOM     14  C   UNL     1       3.952   4.759  17.335  0.00  0.00    +0.000 A 
ATOM     15  C   UNL     1       4.631   3.823  16.540  0.00  0.00    +0.000 A 
ATOM     16  C   UNL     1       5.523   4.242  15.553  0.00  0.00    +0.000 A 
ATOM     17  C   UNL     1       5.749   5.601  15.351  0.00  0.00    +0.000 A 
ATOM     18  C   UNL     1       5.077   6.542  16.133  0.00  0.00    +0.000 A 
ATOM     19  C   UNL     1       4.173   6.136  17.128  0.00  0.00    +0.000 A 
ATOM     20  C   UNL     1       3.481   7.072  17.919  0.00  0.00    +0.000 A 
ENDBRANCH   7  11
BRANCH   4  21
ATOM     21  C   UNL     1       1.263  12.255  18.861  0.00  0.00    +0.000 C 
ATOM     22  O   UNL     1       2.237  11.970  18.163  0.00  0.00    +0.000 OA
BRANCH  21  23
ATOM     23  C   UNL     1       0.591  13.603  18.581  0.00  0.00    +0.000 C 
ATOM     24  O   UNL     1      -0.482  13.605  17.984  0.00  0.00    +0.000 OA
ATOM     25  N   UNL     1       1.262  14.756  19.007  0.00  0.00    +0.000 N 
ATOM     26  C   UNL     1       0.626  16.051  18.778  0.00  0.00    +0.000 C 
ATOM     27  C   UNL     1       1.641  17.174  18.566  0.00  0.00    +0.000 C 
ATOM     28  C   UNL     1       2.732  17.176  19.632  0.00  0.00    +0.000 C 
ATOM     29  C   UNL     1       3.375  15.798  19.750  0.00  0.00    +0.000 C 
ATOM     30  C   UNL     1       2.323  14.725  20.011  0.00  0.00    +0.000 C 
ENDBRANCH  21  23
ENDBRANCH   4  21
TORSDOF 3
ENDMDL
MODEL 5
REMARK VINA RESULT:      -8.7      4.230      9.386
REMARK  Name = 
REMARK  4 active torsions:
REMARK  status: ('A' for Active; 'I' for Inactive)
REMARK    1  A    between atoms: C_1  and  N_2
REMARK    2  A    between atoms: C_4  and  C_5
REMARK    3  A    between atoms: C_5  and  C_7
REMARK    4  A    between atoms: C_17  and  C_18
REMARK                            x       y       z     vdW  Elec       q    Type
REMARK                         _______ _______ _______ _____ _____    ______ ____
ROOT
ATOM      1  C   UNL     1      -1.530  11.380  23.214  0.00  0.00    +0.000 C 
ATOM      2  N   UNL     1      -0.896  11.384  21.914  0.00  0.00    +0.000 N 
ATOM      3  C   UNL     1      -0.965  12.407  21.004  0.00  0.00    +0.000 A 
ATOM      4  C   UNL     1      -0.241  12.044  19.880  0.00  0.00    +0.000 A 
ATOM      5  C   UNL     1       0.274  10.729  20.136  0.00  0.00    +0.000 A 
ATOM      6  C   UNL     1       1.066   9.823  19.393  0.00  0.00    +0.000 A 
ATOM      7  C   UNL     1       1.431   8.562  19.907  0.00  0.00    +0.000 A 
ATOM      8  C   UNL     1       0.995   8.243  21.203  0.00  0.00    +0.000 A 
ATOM      9  C   UNL     1       0.221   9.118  21.975  0.00  0.00    +0.000 A 
ATOM     10  C   UNL     1      -0.135  10.351  21.415  0.00  0.00    +0.000 A 
ENDROOT
BRANCH   7  11
ATOM     11  C   UNL     1       2.235   7.607  19.105  0.00  0.00    +0.000 A 
ATOM     12  C   UNL     1       2.965   8.025  17.979  0.00  0.00    +0.000 A 
ATOM     13  C   UNL     1       3.742   7.131  17.234  0.00  0.00    +0.000 A 
ATOM     14  C   UNL     1       3.804   5.777  17.584  0.00  0.00    +0.000 A 
ATOM     15  C   UNL     1       4.577   4.867  16.846  0.00  0.00    +0.000 A 
ATOM     16  C   UNL     1       4.622   3.520  17.203  0.00  0.00    +0.000 A 
ATOM     17  C   UNL     1       3.894   3.066  18.301  0.00  0.00    +0.000 A 
ATOM     18  C   UNL     1       3.125   3.962  19.044  0.00  0.00    +0.000 A 
ATOM     19  C   UNL     1       3.072   5.323  18.699  0.00  0.00    +0.000 A 
ATOM     20  C   UNL     1       2.308   6.241  19.443  0.00  0.00    +0.000 A 
ENDBRANCH   7  11
BRANCH   4  21
ATOM     21  C   UNL     1      -0.040  12.845  18.671  0.00  0.00    +0.000 C 
ATOM     22  O   UNL     1      -0.883  12.923  17.778  0.00  0.00    +0.000 OA
BRANCH  21  23
ATOM     23  C   UNL     1       1.279  13.589  18.435  0.00  0.00    +0.000 C 
ATOM     24  O   UNL     1       2.227  12.960  17.972  0.00  0.00    +0.000 OA
ATOM     25  N   UNL     1       1.324  14.943  18.787  0.00  0.00    +0.000 N 
ATOM     26  C   UNL     1       2.561  15.681  18.543  0.00  0.00    +0.000 C 
ATOM     27  C   UNL     1       2.786  16.801  19.559  0.00  0.00    +0.000 C 
ATOM     28  C   UNL     1       1.547  17.672  19.744  0.00  0.00    +0.000 C 
ATOM     29  C   UNL     1       0.325  16.814  20.055  0.00  0.00    +0.000 C 
ATOM     30  C   UNL     1       0.120  15.747  18.986  0.00  0.00    +0.000 C 
ENDBRANCH  21  23
ENDBRANCH   4  21
TORSDOF 3
ENDMDL
MODEL 6
REMARK VINA RESULT:      -8.6      4.312      8.982
REMARK  Name = 
REMARK  4 active torsions:
REMARK  status: ('A' for Active; 'I' for Inactive)
REMARK    1  A    between atoms: C_1  and  N_2
REMARK    2  A    between atoms: C_4  and  C_5
REMARK    3  A    between atoms: C_5  and  C_7
REMARK    4  A    between atoms: C_17  and  C_18
REMARK                            x       y       z     vdW  Elec       q    Type
REMARK                         _______ _______ _______ _____ _____    ______ ____
ROOT
ATOM      1  C   UNL     1      -1.750  11.271  23.377  0.00  0.00    +0.000 C 
ATOM      2  N   UNL     1      -1.163  11.324  22.057  0.00  0.00    +0.000 N 
ATOM      3  C   UNL     1      -1.348  12.334  21.148  0.00  0.00    +0.000 A 
ATOM      4  C   UNL     1      -0.635  12.028  20.000  0.00  0.00    +0.000 A 
ATOM      5  C   UNL     1      -0.002  10.762  20.240  0.00  0.00    +0.000 A 
ATOM      6  C   UNL     1       0.838   9.924  19.472  0.00  0.00    +0.000 A 
ATOM      7  C   UNL     1       1.324   8.700  19.974  0.00  0.00    +0.000 A 
ATOM      8  C   UNL     1       0.961   8.350  21.284  0.00  0.00    +0.000 A 
ATOM      9  C   UNL     1       0.142   9.160  22.082  0.00  0.00    +0.000 A 
ATOM     10  C   UNL     1      -0.335  10.356  21.532  0.00  0.00    +0.000 A 
ENDROOT
BRANCH   7  11
ATOM     11  C   UNL     1       2.179   7.813  19.145  0.00  0.00    +0.000 A 
ATOM     12  C   UNL     1       2.794   8.274  17.970  0.00  0.00    +0.000 A 
ATOM     13  C   UNL     1       3.618   7.447  17.200  0.00  0.00    +0.000 A 
ATOM     14  C   UNL     1       3.844   6.117  17.573  0.00  0.00    +0.000 A 
ATOM     15  C   UNL     1       4.666   5.273  16.810  0.00  0.00    +0.000 A 
ATOM     16  C   UNL     1       4.874   3.948  17.193  0.00  0.00    +0.000 A 
ATOM     17  C   UNL     1       4.263   3.451  18.341  0.00  0.00    +0.000 A 
ATOM     18  C   UNL     1       3.446   4.281  19.109  0.00  0.00    +0.000 A 
ATOM     19  C   UNL     1       3.229   5.619  18.739  0.00  0.00    +0.000 A 
ATOM     20  C   UNL     1       2.415   6.471  19.508  0.00  0.00    +0.000 A 
ENDBRANCH   7  11
BRANCH   4  21
ATOM     21  C   UNL     1      -0.542  12.839  18.785  0.00  0.00    +0.000 C 
ATOM     22  O   UNL     1      -0.818  12.397  17.669  0.00  0.00    +0.000 OA
BRANCH  21  23
ATOM     23  C   UNL     1      -0.034  14.283  18.843  0.00  0.00    +0.000 C 
ATOM     24  O   UNL     1      -0.855  15.184  18.992  0.00  0.00    +0.000 OA
ATOM     25  N   UNL     1       1.344  14.485  18.696  0.00  0.00    +0.000 N 
ATOM     26  C   UNL     1       1.856  15.851  18.778  0.00  0.00    +0.000 C 
ATOM     27  C   UNL     1       3.102  16.063  17.918  0.00  0.00    +0.000 C 
ATOM     28  C   UNL     1       4.147  14.974  18.136  0.00  0.00    +0.000 C 
ATOM     29  C   UNL     1       3.528  13.589  17.968  0.00  0.00    +0.000 C 
ATOM     30  C   UNL     1       2.322  13.416  18.884  0.00  0.00    +0.000 C 
ENDBRANCH  21  23
ENDBRANCH   4  21
TORSDOF 3
ENDMDL
MODEL 7
REMARK VINA RESULT:      -8.6      4.711      9.241
REMARK  Name = 
REMARK  4 active torsions:
REMARK  status: ('A' for Active; 'I' for Inactive)
REMARK    1  A    between atoms: C_1  and  N_2
REMARK    2  A    between atoms: C_4  and  C_5
REMARK    3  A    between atoms: C_5  and  C_7
REMARK    4  A    between atoms: C_17  and  C_18
REMARK                            x       y       z     vdW  Elec       q    Type
REMARK                         _______ _______ _______ _____ _____    ______ ____
ROOT
ATOM      1  C   UNL     1      -1.922  12.985  23.636  0.00  0.00    +0.000 C 
ATOM      2  N   UNL     1      -1.331  12.762  22.335  0.00  0.00    +0.000 N 
ATOM      3  C   UNL     1      -1.349  13.655  21.295  0.00  0.00    +0.000 A 
ATOM      4  C   UNL     1      -0.693  13.085  20.215  0.00  0.00    +0.000 A 
ATOM      5  C   UNL     1      -0.274  11.779  20.639  0.00  0.00    +0.000 A 
ATOM      6  C   UNL     1       0.420  10.720  20.010  0.00  0.00    +0.000 A 
ATOM      7  C   UNL     1       0.700   9.514  20.684  0.00  0.00    +0.000 A 
ATOM      8  C   UNL     1       0.283   9.409  22.020  0.00  0.00    +0.000 A 
ATOM      9  C   UNL     1      -0.395  10.441  22.682  0.00  0.00    +0.000 A 
ATOM     10  C   UNL     1      -0.671  11.612  21.965  0.00  0.00    +0.000 A 
ENDROOT
BRANCH   7  11
ATOM     11  C   UNL     1       1.401   8.396  20.003  0.00  0.00    +0.000 A 
ATOM     12  C   UNL     1       1.931   8.541  18.709  0.00  0.00    +0.000 A 
ATOM     13  C   UNL     1       2.611   7.496  18.075  0.00  0.00    +0.000 A 
ATOM     14  C   UNL     1       2.774   6.260  18.710  0.00  0.00    +0.000 A 
ATOM     15  C   UNL     1       3.452   5.201  18.086  0.00  0.00    +0.000 A 
ATOM     16  C   UNL     1       3.598   3.972  18.730  0.00  0.00    +0.000 A 
ATOM     17  C   UNL     1       3.068   3.788  20.004  0.00  0.00    +0.000 A 
ATOM     18  C   UNL     1       2.394   4.834  20.636  0.00  0.00    +0.000 A 
ATOM     19  C   UNL     1       2.241   6.078  20.002  0.00  0.00    +0.000 A 
ATOM     20  C   UNL     1       1.573   7.145  20.629  0.00  0.00    +0.000 A 
ENDBRANCH   7  11
BRANCH   4  21
ATOM     21  C   UNL     1      -0.468  13.697  18.905  0.00  0.00    +0.000 C 
ATOM     22  O   UNL     1      -0.698  13.107  17.849  0.00  0.00    +0.000 OA
BRANCH  21  23
ATOM     23  C   UNL     1       0.129  15.103  18.788  0.00  0.00    +0.000 C 
ATOM     24  O   UNL     1      -0.638  16.061  18.767  0.00  0.00    +0.000 OA
ATOM     25  N   UNL     1       1.522  15.203  18.687  0.00  0.00    +0.000 N 
ATOM     26  C   UNL     1       2.117  16.535  18.605  0.00  0.00    +0.000 C 
ATOM     27  C   UNL     1       3.411  16.550  17.791  0.00  0.00    +0.000 C 
ATOM     28  C   UNL     1       4.373  15.445  18.213  0.00  0.00    +0.000 C 
ATOM     29  C   UNL     1       3.675  14.089  18.207  0.00  0.00    +0.000 C 
ATOM     30  C   UNL     1       2.421  14.116  19.073  0.00  0.00    +0.000 C 
ENDBRANCH  21  23
ENDBRANCH   4  21
TORSDOF 3
ENDMDL
MODEL 8
REMARK VINA RESULT:      -8.6      3.754      9.144
REMARK  Name = 
REMARK  4 active torsions:
REMARK  status: ('A' for Active; 'I' for Inactive)
REMARK    1  A    between atoms: C_1  and  N_2
REMARK    2  A    between atoms: C_4  and  C_5
REMARK    3  A    between atoms: C_5  and  C_7
REMARK    4  A    between atoms: C_17  and  C_18
REMARK                            x       y       z     vdW  Elec       q    Type
REMARK                         _______ _______ _______ _____ _____    ______ ____
ROOT
ATOM      1  C   UNL     1      -0.493   9.399  22.857  0.00  0.00    +0.000 C 
ATOM      2  N   UNL     1       0.216   9.562  21.607  0.00  0.00    +0.000 N 
ATOM      3  C   UNL     1       0.302  10.729  20.892  0.00  0.00    +0.000 A 
ATOM      4  C   UNL     1       1.053  10.491  19.752  0.00  0.00    +0.000 A 
ATOM      5  C   UNL     1       1.422   9.104  19.791  0.00  0.00    +0.000 A 
ATOM      6  C   UNL     1       2.167   8.263  18.933  0.00  0.00    +0.000 A 
ATOM      7  C   UNL     1       2.375   6.900  19.228  0.00  0.00    +0.000 A 
ATOM      8  C   UNL     1       1.833   6.409  20.426  0.00  0.00    +0.000 A 
ATOM      9  C   UNL     1       1.102   7.214  21.309  0.00  0.00    +0.000 A 
ATOM     10  C   UNL     1       0.901   8.556  20.963  0.00  0.00    +0.000 A 
ENDROOT
BRANCH   7  11
ATOM     11  C   UNL     1       3.130   6.019  18.302  0.00  0.00    +0.000 A 
ATOM     12  C   UNL     1       2.667   4.734  17.969  0.00  0.00    +0.000 A 
ATOM     13  C   UNL     1       3.366   3.911  17.080  0.00  0.00    +0.000 A 
ATOM     14  C   UNL     1       4.566   4.340  16.501  0.00  0.00    +0.000 A 
ATOM     15  C   UNL     1       5.280   3.525  15.609  0.00  0.00    +0.000 A 
ATOM     16  C   UNL     1       6.478   3.965  15.048  0.00  0.00    +0.000 A 
ATOM     17  C   UNL     1       6.977   5.224  15.372  0.00  0.00    +0.000 A 
ATOM     18  C   UNL     1       6.275   6.045  16.255  0.00  0.00    +0.000 A 
ATOM     19  C   UNL     1       5.065   5.617  16.827  0.00  0.00    +0.000 A 
ATOM     20  C   UNL     1       4.340   6.436  17.712  0.00  0.00    +0.000 A 
ENDBRANCH   7  11
BRANCH   4  21
ATOM     21  C   UNL     1       1.404  11.464  18.716  0.00  0.00    +0.000 C 
ATOM     22  O   UNL     1       2.306  11.268  17.901  0.00  0.00    +0.000 OA
BRANCH  21  23
ATOM     23  C   UNL     1       0.689  12.817  18.636  0.00  0.00    +0.000 C 
ATOM     24  O   UNL     1      -0.451  12.845  18.183  0.00  0.00    +0.000 OA
ATOM     25  N   UNL     1       1.399  13.944  19.066  0.00  0.00    +0.000 N 
ATOM     26  C   UNL     1       0.728  15.241  19.027  0.00  0.00    +0.000 C 
ATOM     27  C   UNL     1       1.697  16.397  18.780  0.00  0.00    +0.000 C 
ATOM     28  C   UNL     1       2.916  16.334  19.695  0.00  0.00    +0.000 C 
ATOM     29  C   UNL     1       3.581  14.964  19.617  0.00  0.00    +0.000 C 
ATOM     30  C   UNL     1       2.581  13.854  19.921  0.00  0.00    +0.000 C 
ENDBRANCH  21  23
ENDBRANCH   4  21
TORSDOF 3
ENDMDL
MODEL 9
REMARK VINA RESULT:      -8.6      4.407      9.337
REMARK  Name = 
REMARK  4 active torsions:
REMARK  status: ('A' for Active; 'I' for Inactive)
REMARK    1  A    between atoms: C_1  and  N_2
REMARK    2  A    between atoms: C_4  and  C_5
REMARK    3  A    between atoms: C_5  and  C_7
REMARK    4  A    between atoms: C_17  and  C_18
REMARK                            x       y       z     vdW  Elec       q    Type
REMARK                         _______ _______ _______ _____ _____    ______ ____
ROOT
ATOM      1  C   UNL     1      -1.913  12.293  23.379  0.00  0.00    +0.000 C 
ATOM      2  N   UNL     1      -1.229  12.037  22.131  0.00  0.00    +0.000 N 
ATOM      3  C   UNL     1      -1.166  12.904  21.071  0.00  0.00    +0.000 A 
ATOM      4  C   UNL     1      -0.435  12.307  20.057  0.00  0.00    +0.000 A 
ATOM      5  C   UNL     1      -0.054  11.010  20.542  0.00  0.00    +0.000 A 
ATOM      6  C   UNL     1       0.680   9.934  19.991  0.00  0.00    +0.000 A 
ATOM      7  C   UNL     1       0.904   8.744  20.713  0.00  0.00    +0.000 A 
ATOM      8  C   UNL     1       0.389   8.672  22.017  0.00  0.00    +0.000 A 
ATOM      9  C   UNL     1      -0.331   9.722  22.602  0.00  0.00    +0.000 A 
ATOM     10  C   UNL     1      -0.548  10.876  21.839  0.00  0.00    +0.000 A 
ENDROOT
BRANCH   7  11
ATOM     11  C   UNL     1       1.648   7.608  20.112  0.00  0.00    +0.000 A 
ATOM     12  C   UNL     1       2.349   7.746  18.902  0.00  0.00    +0.000 A 
ATOM     13  C   UNL     1       3.069   6.684  18.346  0.00  0.00    +0.000 A 
ATOM     14  C   UNL     1       3.101   5.435  18.977  0.00  0.00    +0.000 A 
ATOM     15  C   UNL     1       3.817   4.358  18.431  0.00  0.00    +0.000 A 
ATOM     16  C   UNL     1       3.832   3.118  19.069  0.00  0.00    +0.000 A 
ATOM     17  C   UNL     1       3.132   2.940  20.259  0.00  0.00    +0.000 A 
ATOM     18  C   UNL     1       2.419   4.003  20.814  0.00  0.00    +0.000 A 
ATOM     19  C   UNL     1       2.396   5.259  20.185  0.00  0.00    +0.000 A 
ATOM     20  C   UNL     1       1.690   6.344  20.735  0.00  0.00    +0.000 A 
ENDBRANCH   7  11
BRANCH   4  21
ATOM     21  C   UNL     1      -0.111  12.886  18.752  0.00  0.00    +0.000 C 
ATOM     22  O   UNL     1      -0.891  12.854  17.800  0.00  0.00    +0.000 OA
BRANCH  21  23
ATOM     23  C   UNL     1       1.261  13.518  18.494  0.00  0.00    +0.000 C 
ATOM     24  O   UNL     1       2.173  12.791  18.109  0.00  0.00    +0.000 OA
ATOM     25  N   UNL     1       1.392  14.890  18.738  0.00  0.00    +0.000 N 
ATOM     26  C   UNL     1       2.682  15.521  18.470  0.00  0.00    +0.000 C 
ATOM     27  C   UNL     1       2.962  16.703  19.398  0.00  0.00    +0.000 C 
ATOM     28  C   UNL     1       1.782  17.667  19.478  0.00  0.00    +0.000 C 
ATOM     29  C   UNL     1       0.497  16.921  19.824  0.00  0.00    +0.000 C 
ATOM     30  C   UNL     1       0.242  15.787  18.838  0.00  0.00    +0.000 C 
ENDBRANCH  21  23
ENDBRANCH   4  21
TORSDOF 3
ENDMDL
