MODEL 1
REMARK VINA RESULT:      -7.1      0.000      0.000
REMARK  Name = 
REMARK  14 active torsions:
REMARK  status: ('A' for Active; 'I' for Inactive)
REMARK    1  A    between atoms: C_1  and  O_2
REMARK    2  A    between atoms: O_2  and  C_3
REMARK    3  A    between atoms: C_3  and  O_4
REMARK    4  A    between atoms: O_4  and  C_5
REMARK    5  A    between atoms: C_8  and  C_9
REMARK    6  A    between atoms: C_10  and  C_11
REMARK    7  A    between atoms: C_13  and  O_14
REMARK    8  A    between atoms: O_14  and  C_15
REMARK    9  A    between atoms: C_15  and  O_16
REMARK   10  A    between atoms: O_16  and  C_17
REMARK   11  A    between atoms: C_19  and  O_20
REMARK   12  A    between atoms: O_20  and  C_21
REMARK   13  A    between atoms: C_21  and  O_22
REMARK   14  A    between atoms: O_22  and  C_23
REMARK                            x       y       z     vdW  Elec       q    Type
REMARK                         _______ _______ _______ _____ _____    ______ ____
ROOT
ATOM      1  C   UNL     1       7.550   6.821  18.061  0.00  0.00    +0.000 A 
ATOM      2  C   UNL     1       7.000   5.833  18.884  0.00  0.00    +0.000 A 
ATOM      3  C   UNL     1       6.297   4.758  18.340  0.00  0.00    +0.000 A 
ATOM      4  C   UNL     1       6.099   4.689  16.964  0.00  0.00    +0.000 A 
ATOM      5  C   UNL     1       6.632   5.671  16.128  0.00  0.00    +0.000 A 
ATOM      6  C   UNL     1       7.332   6.745  16.678  0.00  0.00    +0.000 A 
ENDROOT
BRANCH   1   8
ATOM      7  C   UNL     1       8.310   9.159  18.285  0.00  0.00    +0.000 C 
ATOM      8  C   UNL     1       8.361   7.879  18.683  0.00  0.00    +0.000 C 
BRANCH   7  12
ATOM      9  C   UNL     1      10.988  12.296  19.377  0.00  0.00    +0.000 A 
ATOM     10  C   UNL     1      10.822  11.919  18.048  0.00  0.00    +0.000 A 
ATOM     11  C   UNL     1       9.932  10.901  17.725  0.00  0.00    +0.000 A 
ATOM     12  C   UNL     1       9.219  10.221  18.723  0.00  0.00    +0.000 A 
ATOM     13  C   UNL     1       9.406  10.590  20.060  0.00  0.00    +0.000 A 
ATOM     14  C   UNL     1      10.298  11.616  20.385  0.00  0.00    +0.000 A 
BRANCH   9  15
ATOM     15  O   UNL     1      11.810  13.304  19.796  0.00  0.00    +0.000 OA
BRANCH  15  16
ATOM     16  C   UNL     1      11.127  14.486  20.215  0.00  0.00    +0.000 C 
BRANCH  16  18
ATOM     17  C   UNL     1       9.783  16.220  19.377  0.00  0.00    +0.000 C 
ATOM     18  O   UNL     1      10.894  15.370  19.120  0.00  0.00    +0.000 OA
ENDBRANCH  16  18
ENDBRANCH  15  16
ENDBRANCH   9  15
ENDBRANCH   7  12
ENDBRANCH   1   8
BRANCH   3  19
ATOM     19  O   UNL     1       5.828   3.852  19.248  0.00  0.00    +0.000 OA
BRANCH  19  20
ATOM     20  C   UNL     1       4.409   3.765  19.356  0.00  0.00    +0.000 C 
BRANCH  20  21
ATOM     21  O   UNL     1       3.990   2.405  19.488  0.00  0.00    +0.000 OA
ATOM     22  C   UNL     1       3.563   1.875  18.239  0.00  0.00    +0.000 C 
ENDBRANCH  20  21
ENDBRANCH  19  20
ENDBRANCH   3  19
BRANCH   5  23
ATOM     23  O   UNL     1       6.375   5.499  14.799  0.00  0.00    +0.000 OA
BRANCH  23  24
ATOM     24  C   UNL     1       6.313   4.149  14.342  0.00  0.00    +0.000 C 
BRANCH  24  25
ATOM     25  O   UNL     1       6.705   4.061  12.969  0.00  0.00    +0.000 OA
ATOM     26  C   UNL     1       5.819   3.228  12.233  0.00  0.00    +0.000 C 
ENDBRANCH  24  25
ENDBRANCH  23  24
ENDBRANCH   5  23
TORSDOF 11
ENDMDL
MODEL 2
REMARK VINA RESULT:      -7.0      0.825      1.180
REMARK  Name = 
REMARK  14 active torsions:
REMARK  status: ('A' for Active; 'I' for Inactive)
REMARK    1  A    between atoms: C_1  and  O_2
REMARK    2  A    between atoms: O_2  and  C_3
REMARK    3  A    between atoms: C_3  and  O_4
REMARK    4  A    between atoms: O_4  and  C_5
REMARK    5  A    between atoms: C_8  and  C_9
REMARK    6  A    between atoms: C_10  and  C_11
REMARK    7  A    between atoms: C_13  and  O_14
REMARK    8  A    between atoms: O_14  and  C_15
REMARK    9  A    between atoms: C_15  and  O_16
REMARK   10  A    between atoms: O_16  and  C_17
REMARK   11  A    between atoms: C_19  and  O_20
REMARK   12  A    between atoms: O_20  and  C_21
REMARK   13  A    between atoms: C_21  and  O_22
REMARK   14  A    between atoms: O_22  and  C_23
REMARK                            x       y       z     vdW  Elec       q    Type
REMARK                         _______ _______ _______ _____ _____    ______ ____
ROOT
ATOM      1  C   UNL     1       7.515   6.904  17.876  0.00  0.00    +0.000 A 
ATOM      2  C   UNL     1       7.014   5.925  18.741  0.00  0.00    +0.000 A 
ATOM      3  C   UNL     1       6.382   4.785  18.244  0.00  0.00    +0.000 A 
ATOM      4  C   UNL     1       6.205   4.640  16.870  0.00  0.00    +0.000 A 
ATOM      5  C   UNL     1       6.689   5.611  15.994  0.00  0.00    +0.000 A 
ATOM      6  C   UNL     1       7.317   6.750  16.497  0.00  0.00    +0.000 A 
ENDROOT
BRANCH   1   8
ATOM      7  C   UNL     1       8.087   9.300  18.035  0.00  0.00    +0.000 C 
ATOM      8  C   UNL     1       8.255   8.036  18.454  0.00  0.00    +0.000 C 
BRANCH   7  12
ATOM      9  C   UNL     1      10.579  12.517  19.318  0.00  0.00    +0.000 A 
ATOM     10  C   UNL     1      10.452  11.357  20.076  0.00  0.00    +0.000 A 
ATOM     11  C   UNL     1       9.641  10.322  19.623  0.00  0.00    +0.000 A 
ATOM     12  C   UNL     1       8.919  10.441  18.426  0.00  0.00    +0.000 A 
ATOM     13  C   UNL     1       9.034  11.619  17.679  0.00  0.00    +0.000 A 
ATOM     14  C   UNL     1       9.852  12.657  18.133  0.00  0.00    +0.000 A 
BRANCH   9  15
ATOM     15  O   UNL     1      11.375  13.575  19.656  0.00  0.00    +0.000 OA
BRANCH  15  16
ATOM     16  C   UNL     1      10.940  14.832  19.136  0.00  0.00    +0.000 C 
BRANCH  16  18
ATOM     17  C   UNL     1      11.957  15.670  17.192  0.00  0.00    +0.000 C 
ATOM     18  O   UNL     1      12.032  15.584  18.610  0.00  0.00    +0.000 OA
ENDBRANCH  16  18
ENDBRANCH  15  16
ENDBRANCH   9  15
ENDBRANCH   7  12
ENDBRANCH   1   8
BRANCH   3  19
ATOM     19  O   UNL     1       5.956   3.897  19.190  0.00  0.00    +0.000 OA
BRANCH  19  20
ATOM     20  C   UNL     1       4.552   3.650  19.215  0.00  0.00    +0.000 C 
BRANCH  20  21
ATOM     21  O   UNL     1       4.284   2.270  19.477  0.00  0.00    +0.000 OA
ATOM     22  C   UNL     1       3.459   1.706  18.465  0.00  0.00    +0.000 C 
ENDBRANCH  20  21
ENDBRANCH  19  20
ENDBRANCH   3  19
BRANCH   5  23
ATOM     23  O   UNL     1       6.458   5.360  14.672  0.00  0.00    +0.000 OA
BRANCH  23  24
ATOM     24  C   UNL     1       6.201   4.001  14.326  0.00  0.00    +0.000 C 
BRANCH  24  25
ATOM     25  O   UNL     1       6.649   3.723  12.997  0.00  0.00    +0.000 OA
ATOM     26  C   UNL     1       5.582   3.257  12.181  0.00  0.00    +0.000 C 
ENDBRANCH  24  25
ENDBRANCH  23  24
ENDBRANCH   5  23
TORSDOF 11
ENDMDL
MODEL 3
REMARK VINA RESULT:      -7.0      5.971      7.806
REMARK  Name = 
REMARK  14 active torsions:
REMARK  status: ('A' for Active; 'I' for Inactive)
REMARK    1  A    between atoms: C_1  and  O_2
REMARK    2  A    between atoms: O_2  and  C_3
REMARK    3  A    between atoms: C_3  and  O_4
REMARK    4  A    between atoms: O_4  and  C_5
REMARK    5  A    between atoms: C_8  and  C_9
REMARK    6  A    between atoms: C_10  and  C_11
REMARK    7  A    between atoms: C_13  and  O_14
REMARK    8  A    between atoms: O_14  and  C_15
REMARK    9  A    between atoms: C_15  and  O_16
REMARK   10  A    between atoms: O_16  and  C_17
REMARK   11  A    between atoms: C_19  and  O_20
REMARK   12  A    between atoms: O_20  and  C_21
REMARK   13  A    between atoms: C_21  and  O_22
REMARK   14  A    between atoms: O_22  and  C_23
REMARK                            x       y       z     vdW  Elec       q    Type
REMARK                         _______ _______ _______ _____ _____    ______ ____
ROOT
ATOM      1  C   UNL     1       3.080   5.870  17.934  0.00  0.00    +0.000 A 
ATOM      2  C   UNL     1       2.238   4.755  17.988  0.00  0.00    +0.000 A 
ATOM      3  C   UNL     1       2.693   3.494  17.604  0.00  0.00    +0.000 A 
ATOM      4  C   UNL     1       3.990   3.349  17.116  0.00  0.00    +0.000 A 
ATOM      5  C   UNL     1       4.840   4.452  17.046  0.00  0.00    +0.000 A 
ATOM      6  C   UNL     1       4.379   5.711  17.428  0.00  0.00    +0.000 A 
ENDROOT
BRANCH   1   8
ATOM      7  C   UNL     1       2.193   7.332  19.714  0.00  0.00    +0.000 C 
ATOM      8  C   UNL     1       2.574   7.155  18.440  0.00  0.00    +0.000 C 
BRANCH   7  12
ATOM      9  C   UNL     1       0.175  10.842  21.059  0.00  0.00    +0.000 A 
ATOM     10  C   UNL     1       0.560  10.697  19.730  0.00  0.00    +0.000 A 
ATOM     11  C   UNL     1       1.205   9.534  19.322  0.00  0.00    +0.000 A 
ATOM     12  C   UNL     1       1.505   8.515  20.238  0.00  0.00    +0.000 A 
ATOM     13  C   UNL     1       1.135   8.678  21.578  0.00  0.00    +0.000 A 
ATOM     14  C   UNL     1       0.484   9.844  21.987  0.00  0.00    +0.000 A 
BRANCH   9  15
ATOM     15  O   UNL     1      -0.493  11.928  21.553  0.00  0.00    +0.000 OA
BRANCH  15  16
ATOM     16  C   UNL     1      -1.803  12.110  21.015  0.00  0.00    +0.000 C 
BRANCH  16  18
ATOM     17  C   UNL     1      -2.602  12.032  23.223  0.00  0.00    +0.000 C 
ATOM     18  O   UNL     1      -2.681  12.703  21.971  0.00  0.00    +0.000 OA
ENDBRANCH  16  18
ENDBRANCH  15  16
ENDBRANCH   9  15
ENDBRANCH   7  12
ENDBRANCH   1   8
BRANCH   3  19
ATOM     19  O   UNL     1       1.780   2.485  17.722  0.00  0.00    +0.000 OA
BRANCH  19  20
ATOM     20  C   UNL     1       0.991   2.504  18.910  0.00  0.00    +0.000 C 
BRANCH  20  21
ATOM     21  O   UNL     1       1.772   2.121  20.045  0.00  0.00    +0.000 OA
ATOM     22  C   UNL     1       1.342   2.803  21.217  0.00  0.00    +0.000 C 
ENDBRANCH  20  21
ENDBRANCH  19  20
ENDBRANCH   3  19
BRANCH   5  23
ATOM     23  O   UNL     1       6.086   4.188  16.552  0.00  0.00    +0.000 OA
BRANCH  23  24
ATOM     24  C   UNL     1       7.144   5.002  17.054  0.00  0.00    +0.000 C 
BRANCH  24  25
ATOM     25  O   UNL     1       7.517   4.593  18.372  0.00  0.00    +0.000 OA
ATOM     26  C   UNL     1       7.720   5.715  19.221  0.00  0.00    +0.000 C 
ENDBRANCH  24  25
ENDBRANCH  23  24
ENDBRANCH   5  23
TORSDOF 11
ENDMDL
MODEL 4
REMARK VINA RESULT:      -6.9      6.227      7.954
REMARK  Name = 
REMARK  14 active torsions:
REMARK  status: ('A' for Active; 'I' for Inactive)
REMARK    1  A    between atoms: C_1  and  O_2
REMARK    2  A    between atoms: O_2  and  C_3
REMARK    3  A    between atoms: C_3  and  O_4
REMARK    4  A    between atoms: O_4  and  C_5
REMARK    5  A    between atoms: C_8  and  C_9
REMARK    6  A    between atoms: C_10  and  C_11
REMARK    7  A    between atoms: C_13  and  O_14
REMARK    8  A    between atoms: O_14  and  C_15
REMARK    9  A    between atoms: C_15  and  O_16
REMARK   10  A    between atoms: O_16  and  C_17
REMARK   11  A    between atoms: C_19  and  O_20
REMARK   12  A    between atoms: O_20  and  C_21
REMARK   13  A    between atoms: C_21  and  O_22
REMARK   14  A    between atoms: O_22  and  C_23
REMARK                            x       y       z     vdW  Elec       q    Type
REMARK                         _______ _______ _______ _____ _____    ______ ____
ROOT
ATOM      1  C   UNL     1       2.901   6.181  18.104  0.00  0.00    +0.000 A 
ATOM      2  C   UNL     1       2.068   5.058  18.113  0.00  0.00    +0.000 A 
ATOM      3  C   UNL     1       2.533   3.818  17.677  0.00  0.00    +0.000 A 
ATOM      4  C   UNL     1       3.829   3.703  17.182  0.00  0.00    +0.000 A 
ATOM      5  C   UNL     1       4.671   4.815  17.155  0.00  0.00    +0.000 A 
ATOM      6  C   UNL     1       4.200   6.053  17.590  0.00  0.00    +0.000 A 
ENDROOT
BRANCH   1   8
ATOM      7  C   UNL     1       1.980   7.554  19.937  0.00  0.00    +0.000 C 
ATOM      8  C   UNL     1       2.386   7.440  18.664  0.00  0.00    +0.000 C 
BRANCH   7  12
ATOM      9  C   UNL     1      -0.037  10.840  21.764  0.00  0.00    +0.000 A 
ATOM     10  C   UNL     1       0.255   9.684  22.481  0.00  0.00    +0.000 A 
ATOM     11  C   UNL     1       0.924   8.636  21.859  0.00  0.00    +0.000 A 
ATOM     12  C   UNL     1       1.283   8.711  20.505  0.00  0.00    +0.000 A 
ATOM     13  C   UNL     1       0.968   9.868  19.784  0.00  0.00    +0.000 A 
ATOM     14  C   UNL     1       0.298  10.922  20.410  0.00  0.00    +0.000 A 
BRANCH   9  15
ATOM     15  O   UNL     1      -0.659  11.937  22.291  0.00  0.00    +0.000 OA
BRANCH  15  16
ATOM     16  C   UNL     1      -2.084  11.851  22.319  0.00  0.00    +0.000 C 
BRANCH  16  18
ATOM     17  C   UNL     1      -2.252  13.744  23.699  0.00  0.00    +0.000 C 
ATOM     18  O   UNL     1      -2.614  12.378  23.534  0.00  0.00    +0.000 OA
ENDBRANCH  16  18
ENDBRANCH  15  16
ENDBRANCH   9  15
ENDBRANCH   7  12
ENDBRANCH   1   8
BRANCH   3  19
ATOM     19  O   UNL     1       1.628   2.798  17.755  0.00  0.00    +0.000 OA
BRANCH  19  20
ATOM     20  C   UNL     1       0.887   2.722  18.971  0.00  0.00    +0.000 C 
BRANCH  20  21
ATOM     21  O   UNL     1       1.691   2.184  20.024  0.00  0.00    +0.000 OA
ATOM     22  C   UNL     1       1.392   2.806  21.268  0.00  0.00    +0.000 C 
ENDBRANCH  20  21
ENDBRANCH  19  20
ENDBRANCH   3  19
BRANCH   5  23
ATOM     23  O   UNL     1       5.918   4.582  16.650  0.00  0.00    +0.000 OA
BRANCH  23  24
ATOM     24  C   UNL     1       7.003   5.178  17.357  0.00  0.00    +0.000 C 
BRANCH  24  25
ATOM     25  O   UNL     1       7.516   6.305  16.642  0.00  0.00    +0.000 OA
ATOM     26  C   UNL     1       7.673   7.430  17.497  0.00  0.00    +0.000 C 
ENDBRANCH  24  25
ENDBRANCH  23  24
ENDBRANCH   5  23
TORSDOF 11
ENDMDL
MODEL 5
REMARK VINA RESULT:      -6.8      5.905      7.509
REMARK  Name = 
REMARK  14 active torsions:
REMARK  status: ('A' for Active; 'I' for Inactive)
REMARK    1  A    between atoms: C_1  and  O_2
REMARK    2  A    between atoms: O_2  and  C_3
REMARK    3  A    between atoms: C_3  and  O_4
REMARK    4  A    between atoms: O_4  and  C_5
REMARK    5  A    between atoms: C_8  and  C_9
REMARK    6  A    between atoms: C_10  and  C_11
REMARK    7  A    between atoms: C_13  and  O_14
REMARK    8  A    between atoms: O_14  and  C_15
REMARK    9  A    between atoms: C_15  and  O_16
REMARK   10  A    between atoms: O_16  and  C_17
REMARK   11  A    between atoms: C_19  and  O_20
REMARK   12  A    between atoms: O_20  and  C_21
REMARK   13  A    between atoms: C_21  and  O_22
REMARK   14  A    between atoms: O_22  and  C_23
REMARK                            x       y       z     vdW  Elec       q    Type
REMARK                         _______ _______ _______ _____ _____    ______ ____
ROOT
ATOM      1  C   UNL     1       2.940   6.247  18.092  0.00  0.00    +0.000 A 
ATOM      2  C   UNL     1       2.133   5.105  18.136  0.00  0.00    +0.000 A 
ATOM      3  C   UNL     1       2.571   3.897  17.593  0.00  0.00    +0.000 A 
ATOM      4  C   UNL     1       3.809   3.837  16.958  0.00  0.00    +0.000 A 
ATOM      5  C   UNL     1       4.622   4.968  16.895  0.00  0.00    +0.000 A 
ATOM      6  C   UNL     1       4.178   6.174  17.437  0.00  0.00    +0.000 A 
ENDROOT
BRANCH   1   8
ATOM      7  C   UNL     1       1.802   7.440  19.930  0.00  0.00    +0.000 C 
ATOM      8  C   UNL     1       2.464   7.466  18.764  0.00  0.00    +0.000 C 
BRANCH   7  12
ATOM      9  C   UNL     1      -0.079  10.711  21.921  0.00  0.00    +0.000 A 
ATOM     10  C   UNL     1       0.466   9.649  22.635  0.00  0.00    +0.000 A 
ATOM     11  C   UNL     1       1.083   8.604  21.956  0.00  0.00    +0.000 A 
ATOM     12  C   UNL     1       1.137   8.586  20.555  0.00  0.00    +0.000 A 
ATOM     13  C   UNL     1       0.568   9.646  19.841  0.00  0.00    +0.000 A 
ATOM     14  C   UNL     1      -0.049  10.698  20.524  0.00  0.00    +0.000 A 
BRANCH   9  15
ATOM     15  O   UNL     1      -0.675  11.800  22.493  0.00  0.00    +0.000 OA
BRANCH  15  16
ATOM     16  C   UNL     1      -0.466  13.025  21.790  0.00  0.00    +0.000 C 
BRANCH  16  18
ATOM     17  C   UNL     1      -0.095  15.145  22.729  0.00  0.00    +0.000 C 
ATOM     18  O   UNL     1       0.466  13.864  22.471  0.00  0.00    +0.000 OA
ENDBRANCH  16  18
ENDBRANCH  15  16
ENDBRANCH   9  15
ENDBRANCH   7  12
ENDBRANCH   1   8
BRANCH   3  19
ATOM     19  O   UNL     1       1.699   2.854  17.718  0.00  0.00    +0.000 OA
BRANCH  19  20
ATOM     20  C   UNL     1       1.017   2.766  18.966  0.00  0.00    +0.000 C 
BRANCH  20  21
ATOM     21  O   UNL     1       1.829   2.115  19.946  0.00  0.00    +0.000 OA
ATOM     22  C   UNL     1       1.566   2.619  21.249  0.00  0.00    +0.000 C 
ENDBRANCH  20  21
ENDBRANCH  19  20
ENDBRANCH   3  19
BRANCH   5  23
ATOM     23  O   UNL     1       5.811   4.788  16.249  0.00  0.00    +0.000 OA
BRANCH  23  24
ATOM     24  C   UNL     1       6.956   4.606  17.080  0.00  0.00    +0.000 C 
BRANCH  24  25
ATOM     25  O   UNL     1       7.660   5.839  17.251  0.00  0.00    +0.000 OA
ATOM     26  C   UNL     1       7.714   6.215  18.621  0.00  0.00    +0.000 C 
ENDBRANCH  24  25
ENDBRANCH  23  24
ENDBRANCH   5  23
TORSDOF 11
ENDMDL
MODEL 6
REMARK VINA RESULT:      -6.8      6.198      7.866
REMARK  Name = 
REMARK  14 active torsions:
REMARK  status: ('A' for Active; 'I' for Inactive)
REMARK    1  A    between atoms: C_1  and  O_2
REMARK    2  A    between atoms: O_2  and  C_3
REMARK    3  A    between atoms: C_3  and  O_4
REMARK    4  A    between atoms: O_4  and  C_5
REMARK    5  A    between atoms: C_8  and  C_9
REMARK    6  A    between atoms: C_10  and  C_11
REMARK    7  A    between atoms: C_13  and  O_14
REMARK    8  A    between atoms: O_14  and  C_15
REMARK    9  A    between atoms: C_15  and  O_16
REMARK   10  A    between atoms: O_16  and  C_17
REMARK   11  A    between atoms: C_19  and  O_20
REMARK   12  A    between atoms: O_20  and  C_21
REMARK   13  A    between atoms: C_21  and  O_22
REMARK   14  A    between atoms: O_22  and  C_23
REMARK                            x       y       z     vdW  Elec       q    Type
REMARK                         _______ _______ _______ _____ _____    ______ ____
ROOT
ATOM      1  C   UNL     1       3.013   6.269  18.156  0.00  0.00    +0.000 A 
ATOM      2  C   UNL     1       2.211   5.134  18.000  0.00  0.00    +0.000 A 
ATOM      3  C   UNL     1       2.764   3.915  17.605  0.00  0.00    +0.000 A 
ATOM      4  C   UNL     1       4.124   3.837  17.317  0.00  0.00    +0.000 A 
ATOM      5  C   UNL     1       4.937   4.962  17.458  0.00  0.00    +0.000 A 
ATOM      6  C   UNL     1       4.379   6.178  17.850  0.00  0.00    +0.000 A 
ENDROOT
BRANCH   1   8
ATOM      7  C   UNL     1       1.948   7.621  19.926  0.00  0.00    +0.000 C 
ATOM      8  C   UNL     1       2.391   7.501  18.665  0.00  0.00    +0.000 C 
BRANCH   7  12
ATOM      9  C   UNL     1      -0.356  10.955  21.261  0.00  0.00    +0.000 A 
ATOM     10  C   UNL     1       0.261  10.957  20.013  0.00  0.00    +0.000 A 
ATOM     11  C   UNL     1       0.994   9.849  19.603  0.00  0.00    +0.000 A 
ATOM     12  C   UNL     1       1.152   8.737  20.443  0.00  0.00    +0.000 A 
ATOM     13  C   UNL     1       0.548   8.750  21.706  0.00  0.00    +0.000 A 
ATOM     14  C   UNL     1      -0.192   9.862  22.116  0.00  0.00    +0.000 A 
BRANCH   9  15
ATOM     15  O   UNL     1      -1.124  11.977  21.742  0.00  0.00    +0.000 OA
BRANCH  15  16
ATOM     16  C   UNL     1      -1.472  11.855  23.122  0.00  0.00    +0.000 C 
BRANCH  16  18
ATOM     17  C   UNL     1      -3.483  12.615  22.176  0.00  0.00    +0.000 C 
ATOM     18  O   UNL     1      -2.873  12.037  23.324  0.00  0.00    +0.000 OA
ENDBRANCH  16  18
ENDBRANCH  15  16
ENDBRANCH   9  15
ENDBRANCH   7  12
ENDBRANCH   1   8
BRANCH   3  19
ATOM     19  O   UNL     1       1.879   2.880  17.509  0.00  0.00    +0.000 OA
BRANCH  19  20
ATOM     20  C   UNL     1       1.727   2.087  18.684  0.00  0.00    +0.000 C 
BRANCH  20  21
ATOM     21  O   UNL     1       0.744   2.651  19.555  0.00  0.00    +0.000 OA
ATOM     22  C   UNL     1       1.264   2.833  20.867  0.00  0.00    +0.000 C 
ENDBRANCH  20  21
ENDBRANCH  19  20
ENDBRANCH   3  19
BRANCH   5  23
ATOM     23  O   UNL     1       6.252   4.765  17.148  0.00  0.00    +0.000 OA
BRANCH  23  24
ATOM     24  C   UNL     1       6.857   5.757  16.322  0.00  0.00    +0.000 C 
BRANCH  24  25
ATOM     25  O   UNL     1       6.330   5.701  14.994  0.00  0.00    +0.000 OA
ATOM     26  C   UNL     1       6.768   4.531  14.316  0.00  0.00    +0.000 C 
ENDBRANCH  24  25
ENDBRANCH  23  24
ENDBRANCH   5  23
TORSDOF 11
ENDMDL
MODEL 7
REMARK VINA RESULT:      -6.8      6.440      8.234
REMARK  Name = 
REMARK  14 active torsions:
REMARK  status: ('A' for Active; 'I' for Inactive)
REMARK    1  A    between atoms: C_1  and  O_2
REMARK    2  A    between atoms: O_2  and  C_3
REMARK    3  A    between atoms: C_3  and  O_4
REMARK    4  A    between atoms: O_4  and  C_5
REMARK    5  A    between atoms: C_8  and  C_9
REMARK    6  A    between atoms: C_10  and  C_11
REMARK    7  A    between atoms: C_13  and  O_14
REMARK    8  A    between atoms: O_14  and  C_15
REMARK    9  A    between atoms: C_15  and  O_16
REMARK   10  A    between atoms: O_16  and  C_17
REMARK   11  A    between atoms: C_19  and  O_20
REMARK   12  A    between atoms: O_20  and  C_21
REMARK   13  A    between atoms: C_21  and  O_22
REMARK   14  A    between atoms: O_22  and  C_23
REMARK                            x       y       z     vdW  Elec       q    Type
REMARK                         _______ _______ _______ _____ _____    ______ ____
ROOT
ATOM      1  C   UNL     1       2.885   6.951  18.334  0.00  0.00    +0.000 A 
ATOM      2  C   UNL     1       2.426   5.640  18.503  0.00  0.00    +0.000 A 
ATOM      3  C   UNL     1       3.078   4.569  17.890  0.00  0.00    +0.000 A 
ATOM      4  C   UNL     1       4.171   4.810  17.062  0.00  0.00    +0.000 A 
ATOM      5  C   UNL     1       4.636   6.112  16.875  0.00  0.00    +0.000 A 
ATOM      6  C   UNL     1       3.979   7.179  17.487  0.00  0.00    +0.000 A 
ENDROOT
BRANCH   1   8
ATOM      7  C   UNL     1       1.646   7.833  20.279  0.00  0.00    +0.000 C 
ATOM      8  C   UNL     1       2.216   8.028  19.080  0.00  0.00    +0.000 C 
BRANCH   7  12
ATOM      9  C   UNL     1      -0.729  10.595  22.501  0.00  0.00    +0.000 A 
ATOM     10  C   UNL     1       0.065   9.648  23.141  0.00  0.00    +0.000 A 
ATOM     11  C   UNL     1       0.837   8.770  22.387  0.00  0.00    +0.000 A 
ATOM     12  C   UNL     1       0.803   8.801  20.985  0.00  0.00    +0.000 A 
ATOM     13  C   UNL     1      -0.014   9.741  20.347  0.00  0.00    +0.000 A 
ATOM     14  C   UNL     1      -0.787  10.625  21.105  0.00  0.00    +0.000 A 
BRANCH   9  15
ATOM     15  O   UNL     1      -1.495  11.522  23.148  0.00  0.00    +0.000 OA
BRANCH  15  16
ATOM     16  C   UNL     1      -2.327  12.303  22.290  0.00  0.00    +0.000 C 
BRANCH  16  18
ATOM     17  C   UNL     1      -4.558  12.693  21.668  0.00  0.00    +0.000 C 
ATOM     18  O   UNL     1      -3.691  12.265  22.710  0.00  0.00    +0.000 OA
ENDBRANCH  16  18
ENDBRANCH  15  16
ENDBRANCH   9  15
ENDBRANCH   7  12
ENDBRANCH   1   8
BRANCH   3  19
ATOM     19  O   UNL     1       2.543   3.339  18.149  0.00  0.00    +0.000 OA
BRANCH  19  20
ATOM     20  C   UNL     1       3.015   2.699  19.332  0.00  0.00    +0.000 C 
BRANCH  20  21
ATOM     21  O   UNL     1       1.964   2.563  20.291  0.00  0.00    +0.000 OA
ATOM     22  C   UNL     1       2.263   3.275  21.486  0.00  0.00    +0.000 C 
ENDBRANCH  20  21
ENDBRANCH  19  20
ENDBRANCH   3  19
BRANCH   5  23
ATOM     23  O   UNL     1       5.713   6.225  16.043  0.00  0.00    +0.000 OA
BRANCH  23  24
ATOM     24  C   UNL     1       6.965   5.801  16.578  0.00  0.00    +0.000 C 
BRANCH  24  25
ATOM     25  O   UNL     1       7.623   4.906  15.677  0.00  0.00    +0.000 OA
ATOM     26  C   UNL     1       6.975   4.880  14.412  0.00  0.00    +0.000 C 
ENDBRANCH  24  25
ENDBRANCH  23  24
ENDBRANCH   5  23
TORSDOF 11
ENDMDL
MODEL 8
REMARK VINA RESULT:      -6.8      6.452      8.301
REMARK  Name = 
REMARK  14 active torsions:
REMARK  status: ('A' for Active; 'I' for Inactive)
REMARK    1  A    between atoms: C_1  and  O_2
REMARK    2  A    between atoms: O_2  and  C_3
REMARK    3  A    between atoms: C_3  and  O_4
REMARK    4  A    between atoms: O_4  and  C_5
REMARK    5  A    between atoms: C_8  and  C_9
REMARK    6  A    between atoms: C_10  and  C_11
REMARK    7  A    between atoms: C_13  and  O_14
REMARK    8  A    between atoms: O_14  and  C_15
REMARK    9  A    between atoms: C_15  and  O_16
REMARK   10  A    between atoms: O_16  and  C_17
REMARK   11  A    between atoms: C_19  and  O_20
REMARK   12  A    between atoms: O_20  and  C_21
REMARK   13  A    between atoms: C_21  and  O_22
REMARK   14  A    between atoms: O_22  and  C_23
REMARK                            x       y       z     vdW  Elec       q    Type
REMARK                         _______ _______ _______ _____ _____    ______ ____
ROOT
ATOM      1  C   UNL     1       2.886   6.833  18.183  0.00  0.00    +0.000 A 
ATOM      2  C   UNL     1       2.358   5.545  18.323  0.00  0.00    +0.000 A 
ATOM      3  C   UNL     1       3.028   4.437  17.805  0.00  0.00    +0.000 A 
ATOM      4  C   UNL     1       4.215   4.617  17.100  0.00  0.00    +0.000 A 
ATOM      5  C   UNL     1       4.751   5.894  16.942  0.00  0.00    +0.000 A 
ATOM      6  C   UNL     1       4.075   7.000  17.459  0.00  0.00    +0.000 A 
ENDROOT
BRANCH   1   8
ATOM      7  C   UNL     1       1.808   7.922  20.119  0.00  0.00    +0.000 C 
ATOM      8  C   UNL     1       2.184   7.952  18.831  0.00  0.00    +0.000 C 
BRANCH   7  12
ATOM      9  C   UNL     1      -0.647  10.728  22.194  0.00  0.00    +0.000 A 
ATOM     10  C   UNL     1       0.033   9.722  22.875  0.00  0.00    +0.000 A 
ATOM     11  C   UNL     1       0.835   8.831  22.169  0.00  0.00    +0.000 A 
ATOM     12  C   UNL     1       0.944   8.909  20.773  0.00  0.00    +0.000 A 
ATOM     13  C   UNL     1       0.241   9.909  20.093  0.00  0.00    +0.000 A 
ATOM     14  C   UNL     1      -0.562  10.806  20.802  0.00  0.00    +0.000 A 
BRANCH   9  15
ATOM     15  O   UNL     1      -1.431  11.672  22.797  0.00  0.00    +0.000 OA
BRANCH  15  16
ATOM     16  C   UNL     1      -2.295  12.377  21.905  0.00  0.00    +0.000 C 
BRANCH  16  18
ATOM     17  C   UNL     1      -3.546  12.350  23.893  0.00  0.00    +0.000 C 
ATOM     18  O   UNL     1      -3.574  12.609  22.495  0.00  0.00    +0.000 OA
ENDBRANCH  16  18
ENDBRANCH  15  16
ENDBRANCH   9  15
ENDBRANCH   7  12
ENDBRANCH   1   8
BRANCH   3  19
ATOM     19  O   UNL     1       2.418   3.234  18.025  0.00  0.00    +0.000 OA
BRANCH  19  20
ATOM     20  C   UNL     1       1.177   3.291  18.724  0.00  0.00    +0.000 C 
BRANCH  20  21
ATOM     21  O   UNL     1       1.182   2.404  19.845  0.00  0.00    +0.000 OA
ATOM     22  C   UNL     1       1.615   3.069  21.025  0.00  0.00    +0.000 C 
ENDBRANCH  20  21
ENDBRANCH  19  20
ENDBRANCH   3  19
BRANCH   5  23
ATOM     23  O   UNL     1       5.916   5.948  16.234  0.00  0.00    +0.000 OA
BRANCH  23  24
ATOM     24  C   UNL     1       7.050   6.464  16.928  0.00  0.00    +0.000 C 
BRANCH  24  25
ATOM     25  O   UNL     1       7.719   5.425  17.648  0.00  0.00    +0.000 OA
ATOM     26  C   UNL     1       7.756   5.706  19.041  0.00  0.00    +0.000 C 
ENDBRANCH  24  25
ENDBRANCH  23  24
ENDBRANCH   5  23
TORSDOF 11
ENDMDL
MODEL 9
REMARK VINA RESULT:      -6.7      6.426      8.045
REMARK  Name = 
REMARK  14 active torsions:
REMARK  status: ('A' for Active; 'I' for Inactive)
REMARK    1  A    between atoms: C_1  and  O_2
REMARK    2  A    between atoms: O_2  and  C_3
REMARK    3  A    between atoms: C_3  and  O_4
REMARK    4  A    between atoms: O_4  and  C_5
REMARK    5  A    between atoms: C_8  and  C_9
REMARK    6  A    between atoms: C_10  and  C_11
REMARK    7  A    between atoms: C_13  and  O_14
REMARK    8  A    between atoms: O_14  and  C_15
REMARK    9  A    between atoms: C_15  and  O_16
REMARK   10  A    between atoms: O_16  and  C_17
REMARK   11  A    between atoms: C_19  and  O_20
REMARK   12  A    between atoms: O_20  and  C_21
REMARK   13  A    between atoms: C_21  and  O_22
REMARK   14  A    between atoms: O_22  and  C_23
REMARK                            x       y       z     vdW  Elec       q    Type
REMARK                         _______ _______ _______ _____ _____    ______ ____
ROOT
ATOM      1  C   UNL     1       2.717   6.359  18.400  0.00  0.00    +0.000 A 
ATOM      2  C   UNL     1       1.862   5.254  18.338  0.00  0.00    +0.000 A 
ATOM      3  C   UNL     1       2.305   4.032  17.832  0.00  0.00    +0.000 A 
ATOM      4  C   UNL     1       3.602   3.921  17.338  0.00  0.00    +0.000 A 
ATOM      5  C   UNL     1       4.466   5.015  17.382  0.00  0.00    +0.000 A 
ATOM      6  C   UNL     1       4.016   6.235  17.886  0.00  0.00    +0.000 A 
ENDROOT
BRANCH   1   8
ATOM      7  C   UNL     1       1.752   7.626  20.286  0.00  0.00    +0.000 C 
ATOM      8  C   UNL     1       2.223   7.593  19.030  0.00  0.00    +0.000 C 
BRANCH   7  12
ATOM      9  C   UNL     1      -0.235  11.028  21.923  0.00  0.00    +0.000 A 
ATOM     10  C   UNL     1       0.200  11.014  20.602  0.00  0.00    +0.000 A 
ATOM     11  C   UNL     1       0.834   9.884  20.095  0.00  0.00    +0.000 A 
ATOM     12  C   UNL     1       1.073   8.766  20.907  0.00  0.00    +0.000 A 
ATOM     13  C   UNL     1       0.652   8.795  22.241  0.00  0.00    +0.000 A 
ATOM     14  C   UNL     1       0.012   9.928  22.749  0.00  0.00    +0.000 A 
BRANCH   9  15
ATOM     15  O   UNL     1      -0.897  12.073  22.505  0.00  0.00    +0.000 OA
BRANCH  15  16
ATOM     16  C   UNL     1      -2.288  12.140  22.189  0.00  0.00    +0.000 C 
BRANCH  16  18
ATOM     17  C   UNL     1      -2.721  13.776  23.817  0.00  0.00    +0.000 C 
ATOM     18  O   UNL     1      -3.066  12.484  23.334  0.00  0.00    +0.000 OA
ENDBRANCH  16  18
ENDBRANCH  15  16
ENDBRANCH   9  15
ENDBRANCH   7  12
ENDBRANCH   1   8
BRANCH   3  19
ATOM     19  O   UNL     1       1.380   3.027  17.845  0.00  0.00    +0.000 OA
BRANCH  19  20
ATOM     20  C   UNL     1       0.786   2.752  19.112  0.00  0.00    +0.000 C 
BRANCH  20  21
ATOM     21  O   UNL     1       1.737   2.161  20.002  0.00  0.00    +0.000 OA
ATOM     22  C   UNL     1       1.560   2.635  21.331  0.00  0.00    +0.000 C 
ENDBRANCH  20  21
ENDBRANCH  19  20
ENDBRANCH   3  19
BRANCH   5  23
ATOM     23  O   UNL     1       5.711   4.788  16.870  0.00  0.00    +0.000 OA
BRANCH  23  24
ATOM     24  C   UNL     1       6.138   5.677  15.840  0.00  0.00    +0.000 C 
BRANCH  24  25
ATOM     25  O   UNL     1       7.450   6.175  16.112  0.00  0.00    +0.000 OA
ATOM     26  C   UNL     1       7.490   6.867  17.354  0.00  0.00    +0.000 C 
ENDBRANCH  24  25
ENDBRANCH  23  24
ENDBRANCH   5  23
TORSDOF 11
ENDMDL
