MODEL 1
REMARK VINA RESULT:      -7.3      0.000      0.000
REMARK  Name = 
REMARK  10 active torsions:
REMARK  status: ('A' for Active; 'I' for Inactive)
REMARK    1  A    between atoms: C_1  and  O_2
REMARK    2  A    between atoms: O_2  and  C_3
REMARK    3  A    between atoms: C_7  and  O_8
REMARK    4  A    between atoms: O_8  and  C_9
REMARK    5  A    between atoms: C_10  and  C_11
REMARK    6  A    between atoms: C_13  and  C_14
REMARK    7  A    between atoms: N_16  and  C_17
REMARK    8  A    between atoms: C_17  and  C_18
REMARK    9  A    between atoms: C_18  and  O_20
REMARK   10  A    between atoms: N_27  and  C_28
REMARK                            x       y       z     vdW  Elec       q    Type
REMARK                         _______ _______ _______ _____ _____    ______ ____
ROOT
ATOM      1  C   UNL     1       0.328  11.801  19.742  0.00  0.00    +0.000 A 
ATOM      2  C   UNL     1       1.108  12.943  19.830  0.00  0.00    +0.000 A 
ATOM      3  C   UNL     1       0.540  13.921  18.993  0.00  0.00    +0.000 A 
ATOM      4  N   UNL     1      -0.549  13.453  18.378  0.00  0.00    +0.000 NA
ATOM      5  N   UNL     1      -0.691  12.160  18.828  0.00  0.00    +0.000 N 
ENDROOT
BRANCH   5   6
ATOM      6  C   UNL     1      -1.817  11.403  18.373  0.00  0.00    +0.000 A 
ATOM      7  C   UNL     1      -1.627  10.511  17.303  0.00  0.00    +0.000 A 
ATOM      8  C   UNL     1      -2.725   9.939  16.668  0.00  0.00    +0.000 A 
ATOM      9  C   UNL     1      -4.014  10.282  17.069  0.00  0.00    +0.000 A 
ATOM     10  C   UNL     1      -4.234  11.175  18.130  0.00  0.00    +0.000 A 
ATOM     11  C   UNL     1      -5.546  11.603  18.406  0.00  0.00    +0.000 A 
ATOM     12  C   UNL     1      -5.811  12.520  19.419  0.00  0.00    +0.000 A 
ATOM     13  C   UNL     1      -4.773  12.977  20.212  0.00  0.00    +0.000 A 
ATOM     14  C   UNL     1      -3.462  12.577  19.936  0.00  0.00    +0.000 A 
ATOM     15  C   UNL     1      -3.137  11.707  18.858  0.00  0.00    +0.000 A 
ENDBRANCH   5   6
BRANCH   1  21
ATOM     16  C   UNL     1       1.174   9.381  19.685  0.00  0.00    +0.000 A 
ATOM     17  C   UNL     1       1.357   8.135  20.308  0.00  0.00    +0.000 A 
ATOM     18  C   UNL     1       1.069   7.960  21.654  0.00  0.00    +0.000 A 
ATOM     19  C   UNL     1       0.617   9.037  22.401  0.00  0.00    +0.000 A 
ATOM     20  C   UNL     1       0.401  10.288  21.799  0.00  0.00    +0.000 A 
ATOM     21  C   UNL     1       0.609  10.473  20.397  0.00  0.00    +0.000 A 
BRANCH  16  23
ATOM     22  C   UNL     1       2.334   8.625  17.715  0.00  0.00    +0.000 C 
ATOM     23  O   UNL     1       1.585   9.620  18.400  0.00  0.00    +0.000 OA
ENDBRANCH  16  23
BRANCH  20  24
ATOM     24  O   UNL     1      -0.043  11.350  22.559  0.00  0.00    +0.000 OA
ATOM     25  C   UNL     1      -1.390  11.258  23.032  0.00  0.00    +0.000 C 
ENDBRANCH  20  24
ENDBRANCH   1  21
BRANCH   3  26
ATOM     26  C   UNL     1       1.051  15.285  18.835  0.00  0.00    +0.000 C 
ATOM     27  O   UNL     1       0.287  16.233  18.683  0.00  0.00    +0.000 OA
ATOM     28  N   UNL     1       2.440  15.441  18.792  0.00  0.00    +0.000 N 
ATOM     29  H   UNL     1       2.974  14.651  19.151  0.00  0.00    +0.000 HD
BRANCH  28  30
ATOM     30  C   UNL     1       3.017  16.816  18.734  0.00  0.00    +0.000 C 
ATOM     31  C   UNL     1       2.534  17.706  19.904  0.00  0.00    +0.000 C 
ATOM     32  C   UNL     1       3.217  17.339  21.221  0.00  0.00    +0.000 C 
ATOM     33  C   UNL     1       4.723  17.521  21.110  0.00  0.00    +0.000 C 
ATOM     34  C   UNL     1       5.293  16.629  20.015  0.00  0.00    +0.000 C 
ATOM     35  C   UNL     1       4.577  16.804  18.682  0.00  0.00    +0.000 C 
BRANCH  30  36
ATOM     36  C   UNL     1       2.635  17.422  17.356  0.00  0.00    +0.000 C 
ATOM     37  O   UNL     1       2.952  16.960  16.264  0.00  0.00    +0.000 OA
BRANCH  36  38
ATOM     38  O   UNL     1       1.718  18.429  17.452  0.00  0.00    +0.000 OA
ATOM     39  H   UNL     1       0.816  18.058  17.374  0.00  0.00    +0.000 HD
ENDBRANCH  36  38
ENDBRANCH  30  36
ENDBRANCH  28  30
ENDBRANCH   3  26
TORSDOF 8
ENDMDL
MODEL 2
REMARK VINA RESULT:      -7.2      1.585      4.629
REMARK  Name = 
REMARK  10 active torsions:
REMARK  status: ('A' for Active; 'I' for Inactive)
REMARK    1  A    between atoms: C_1  and  O_2
REMARK    2  A    between atoms: O_2  and  C_3
REMARK    3  A    between atoms: C_7  and  O_8
REMARK    4  A    between atoms: O_8  and  C_9
REMARK    5  A    between atoms: C_10  and  C_11
REMARK    6  A    between atoms: C_13  and  C_14
REMARK    7  A    between atoms: N_16  and  C_17
REMARK    8  A    between atoms: C_17  and  C_18
REMARK    9  A    between atoms: C_18  and  O_20
REMARK   10  A    between atoms: N_27  and  C_28
REMARK                            x       y       z     vdW  Elec       q    Type
REMARK                         _______ _______ _______ _____ _____    ______ ____
ROOT
ATOM      1  C   UNL     1      -1.352  12.914  19.815  0.00  0.00    +0.000 A 
ATOM      2  C   UNL     1      -0.798  14.134  19.461  0.00  0.00    +0.000 A 
ATOM      3  C   UNL     1       0.538  14.147  19.901  0.00  0.00    +0.000 A 
ATOM      4  N   UNL     1       0.852  13.005  20.518  0.00  0.00    +0.000 NA
ATOM      5  N   UNL     1      -0.293  12.242  20.471  0.00  0.00    +0.000 N 
ENDROOT
BRANCH   5   6
ATOM      6  C   UNL     1      -0.251  10.922  21.022  0.00  0.00    +0.000 A 
ATOM      7  C   UNL     1      -0.697  10.741  22.343  0.00  0.00    +0.000 A 
ATOM      8  C   UNL     1      -0.453   9.540  23.003  0.00  0.00    +0.000 A 
ATOM      9  C   UNL     1       0.267   8.533  22.366  0.00  0.00    +0.000 A 
ATOM     10  C   UNL     1       0.730   8.689  21.050  0.00  0.00    +0.000 A 
ATOM     11  C   UNL     1       1.575   7.707  20.498  0.00  0.00    +0.000 A 
ATOM     12  C   UNL     1       2.094   7.837  19.213  0.00  0.00    +0.000 A 
ATOM     13  C   UNL     1       1.727   8.922  18.437  0.00  0.00    +0.000 A 
ATOM     14  C   UNL     1       0.906   9.915  18.979  0.00  0.00    +0.000 A 
ATOM     15  C   UNL     1       0.422   9.865  20.315  0.00  0.00    +0.000 A 
ENDBRANCH   5   6
BRANCH   1  21
ATOM     16  C   UNL     1      -3.213  11.736  18.503  0.00  0.00    +0.000 A 
ATOM     17  C   UNL     1      -4.571  11.422  18.321  0.00  0.00    +0.000 A 
ATOM     18  C   UNL     1      -5.518  11.773  19.273  0.00  0.00    +0.000 A 
ATOM     19  C   UNL     1      -5.116  12.420  20.430  0.00  0.00    +0.000 A 
ATOM     20  C   UNL     1      -3.769  12.768  20.627  0.00  0.00    +0.000 A 
ATOM     21  C   UNL     1      -2.786  12.494  19.626  0.00  0.00    +0.000 A 
BRANCH  16  23
ATOM     22  C   UNL     1      -2.594  10.913  16.326  0.00  0.00    +0.000 C 
ATOM     23  O   UNL     1      -2.240  11.277  17.654  0.00  0.00    +0.000 OA
ENDBRANCH  16  23
BRANCH  20  24
ATOM     24  O   UNL     1      -3.386  13.406  21.789  0.00  0.00    +0.000 OA
ATOM     25  C   UNL     1      -3.712  12.730  23.008  0.00  0.00    +0.000 C 
ENDBRANCH  20  24
ENDBRANCH   1  21
BRANCH   3  26
ATOM     26  C   UNL     1       1.478  15.250  19.686  0.00  0.00    +0.000 C 
ATOM     27  O   UNL     1       1.393  16.289  20.332  0.00  0.00    +0.000 OA
ATOM     28  N   UNL     1       2.422  15.090  18.666  0.00  0.00    +0.000 N 
ATOM     29  H   UNL     1       2.561  14.129  18.354  0.00  0.00    +0.000 HD
BRANCH  28  30
ATOM     30  C   UNL     1       3.468  16.136  18.470  0.00  0.00    +0.000 C 
ATOM     31  C   UNL     1       4.106  16.588  19.805  0.00  0.00    +0.000 C 
ATOM     32  C   UNL     1       5.076  15.544  20.357  0.00  0.00    +0.000 C 
ATOM     33  C   UNL     1       6.213  15.300  19.376  0.00  0.00    +0.000 C 
ATOM     34  C   UNL     1       5.674  14.792  18.046  0.00  0.00    +0.000 C 
ATOM     35  C   UNL     1       4.581  15.685  17.473  0.00  0.00    +0.000 C 
BRANCH  30  36
ATOM     36  C   UNL     1       2.802  17.323  17.722  0.00  0.00    +0.000 C 
ATOM     37  O   UNL     1       2.675  17.414  16.504  0.00  0.00    +0.000 OA
BRANCH  36  38
ATOM     38  O   UNL     1       2.163  18.192  18.560  0.00  0.00    +0.000 OA
ATOM     39  H   UNL     1       2.075  19.063  18.122  0.00  0.00    +0.000 HD
ENDBRANCH  36  38
ENDBRANCH  30  36
ENDBRANCH  28  30
ENDBRANCH   3  26
TORSDOF 8
ENDMDL
MODEL 3
REMARK VINA RESULT:      -7.2      0.383      2.152
REMARK  Name = 
REMARK  10 active torsions:
REMARK  status: ('A' for Active; 'I' for Inactive)
REMARK    1  A    between atoms: C_1  and  O_2
REMARK    2  A    between atoms: O_2  and  C_3
REMARK    3  A    between atoms: C_7  and  O_8
REMARK    4  A    between atoms: O_8  and  C_9
REMARK    5  A    between atoms: C_10  and  C_11
REMARK    6  A    between atoms: C_13  and  C_14
REMARK    7  A    between atoms: N_16  and  C_17
REMARK    8  A    between atoms: C_17  and  C_18
REMARK    9  A    between atoms: C_18  and  O_20
REMARK   10  A    between atoms: N_27  and  C_28
REMARK                            x       y       z     vdW  Elec       q    Type
REMARK                         _______ _______ _______ _____ _____    ______ ____
ROOT
ATOM      1  C   UNL     1       0.229  11.649  19.561  0.00  0.00    +0.000 A 
ATOM      2  C   UNL     1       1.026  12.774  19.702  0.00  0.00    +0.000 A 
ATOM      3  C   UNL     1       0.499  13.783  18.876  0.00  0.00    +0.000 A 
ATOM      4  N   UNL     1      -0.580  13.352  18.218  0.00  0.00    +0.000 NA
ATOM      5  N   UNL     1      -0.757  12.050  18.629  0.00  0.00    +0.000 N 
ENDROOT
BRANCH   5   6
ATOM      6  C   UNL     1      -1.883  11.327  18.121  0.00  0.00    +0.000 A 
ATOM      7  C   UNL     1      -1.686  10.490  17.009  0.00  0.00    +0.000 A 
ATOM      8  C   UNL     1      -2.780   9.960  16.333  0.00  0.00    +0.000 A 
ATOM      9  C   UNL     1      -4.071  10.290  16.736  0.00  0.00    +0.000 A 
ATOM     10  C   UNL     1      -4.298  11.129  17.839  0.00  0.00    +0.000 A 
ATOM     11  C   UNL     1      -5.610  11.552  18.121  0.00  0.00    +0.000 A 
ATOM     12  C   UNL     1      -5.881  12.417  19.178  0.00  0.00    +0.000 A 
ATOM     13  C   UNL     1      -4.850  12.824  20.006  0.00  0.00    +0.000 A 
ATOM     14  C   UNL     1      -3.539  12.430  19.725  0.00  0.00    +0.000 A 
ATOM     15  C   UNL     1      -3.206  11.615  18.607  0.00  0.00    +0.000 A 
ENDBRANCH   5   6
BRANCH   1  21
ATOM     16  C   UNL     1      -0.167   9.899  21.393  0.00  0.00    +0.000 A 
ATOM     17  C   UNL     1       0.132   8.662  21.988  0.00  0.00    +0.000 A 
ATOM     18  C   UNL     1       0.993   7.764  21.372  0.00  0.00    +0.000 A 
ATOM     19  C   UNL     1       1.546   8.082  20.142  0.00  0.00    +0.000 A 
ATOM     20  C   UNL     1       1.284   9.322  19.536  0.00  0.00    +0.000 A 
ATOM     21  C   UNL     1       0.468  10.299  20.187  0.00  0.00    +0.000 A 
BRANCH  16  23
ATOM     22  C   UNL     1      -1.258  10.860  23.313  0.00  0.00    +0.000 C 
ATOM     23  O   UNL     1      -1.122  10.740  21.903  0.00  0.00    +0.000 OA
ENDBRANCH  16  23
BRANCH  20  24
ATOM     24  O   UNL     1       1.838   9.619  18.308  0.00  0.00    +0.000 OA
ATOM     25  C   UNL     1       2.521   8.544  17.655  0.00  0.00    +0.000 C 
ENDBRANCH  20  24
ENDBRANCH   1  21
BRANCH   3  26
ATOM     26  C   UNL     1       1.037  15.142  18.770  0.00  0.00    +0.000 C 
ATOM     27  O   UNL     1       0.293  16.112  18.665  0.00  0.00    +0.000 OA
ATOM     28  N   UNL     1       2.429  15.271  18.719  0.00  0.00    +0.000 N 
ATOM     29  H   UNL     1       2.950  14.455  19.040  0.00  0.00    +0.000 HD
BRANCH  28  30
ATOM     30  C   UNL     1       3.035  16.634  18.712  0.00  0.00    +0.000 C 
ATOM     31  C   UNL     1       2.552  17.498  19.902  0.00  0.00    +0.000 C 
ATOM     32  C   UNL     1       3.207  17.076  21.218  0.00  0.00    +0.000 C 
ATOM     33  C   UNL     1       4.718  17.230  21.135  0.00  0.00    +0.000 C 
ATOM     34  C   UNL     1       5.286  16.360  20.022  0.00  0.00    +0.000 C 
ATOM     35  C   UNL     1       4.595  16.591  18.684  0.00  0.00    +0.000 C 
BRANCH  30  36
ATOM     36  C   UNL     1       2.688  17.290  17.349  0.00  0.00    +0.000 C 
ATOM     37  O   UNL     1       3.019  16.859  16.247  0.00  0.00    +0.000 OA
BRANCH  36  38
ATOM     38  O   UNL     1       1.782  18.306  17.460  0.00  0.00    +0.000 OA
ATOM     39  H   UNL     1       1.160  18.273  16.705  0.00  0.00    +0.000 HD
ENDBRANCH  36  38
ENDBRANCH  30  36
ENDBRANCH  28  30
ENDBRANCH   3  26
TORSDOF 8
ENDMDL
MODEL 4
REMARK VINA RESULT:      -7.2      1.519      5.074
REMARK  Name = 
REMARK  10 active torsions:
REMARK  status: ('A' for Active; 'I' for Inactive)
REMARK    1  A    between atoms: C_1  and  O_2
REMARK    2  A    between atoms: O_2  and  C_3
REMARK    3  A    between atoms: C_7  and  O_8
REMARK    4  A    between atoms: O_8  and  C_9
REMARK    5  A    between atoms: C_10  and  C_11
REMARK    6  A    between atoms: C_13  and  C_14
REMARK    7  A    between atoms: N_16  and  C_17
REMARK    8  A    between atoms: C_17  and  C_18
REMARK    9  A    between atoms: C_18  and  O_20
REMARK   10  A    between atoms: N_27  and  C_28
REMARK                            x       y       z     vdW  Elec       q    Type
REMARK                         _______ _______ _______ _____ _____    ______ ____
ROOT
ATOM      1  C   UNL     1      -1.605  12.749  19.459  0.00  0.00    +0.000 A 
ATOM      2  C   UNL     1      -1.076  13.929  18.959  0.00  0.00    +0.000 A 
ATOM      3  C   UNL     1       0.216  14.084  19.493  0.00  0.00    +0.000 A 
ATOM      4  N   UNL     1       0.524  13.072  20.308  0.00  0.00    +0.000 NA
ATOM      5  N   UNL     1      -0.579  12.248  20.294  0.00  0.00    +0.000 N 
ENDROOT
BRANCH   5   6
ATOM      6  C   UNL     1      -0.527  11.035  21.051  0.00  0.00    +0.000 A 
ATOM      7  C   UNL     1      -1.015  11.055  22.369  0.00  0.00    +0.000 A 
ATOM      8  C   UNL     1      -0.768   9.982  23.220  0.00  0.00    +0.000 A 
ATOM      9  C   UNL     1      -0.005   8.905  22.775  0.00  0.00    +0.000 A 
ATOM     10  C   UNL     1       0.500   8.862  21.466  0.00  0.00    +0.000 A 
ATOM     11  C   UNL     1       1.384   7.827  21.106  0.00  0.00    +0.000 A 
ATOM     12  C   UNL     1       1.945   7.764  19.833  0.00  0.00    +0.000 A 
ATOM     13  C   UNL     1       1.582   8.702  18.882  0.00  0.00    +0.000 A 
ATOM     14  C   UNL     1       0.722   9.746  19.232  0.00  0.00    +0.000 A 
ATOM     15  C   UNL     1       0.192   9.896  20.543  0.00  0.00    +0.000 A 
ENDBRANCH   5   6
BRANCH   1  21
ATOM     16  C   UNL     1      -4.090  12.579  20.068  0.00  0.00    +0.000 A 
ATOM     17  C   UNL     1      -5.362  12.017  19.867  0.00  0.00    +0.000 A 
ATOM     18  C   UNL     1      -5.607  11.168  18.797  0.00  0.00    +0.000 A 
ATOM     19  C   UNL     1      -4.589  10.890  17.900  0.00  0.00    +0.000 A 
ATOM     20  C   UNL     1      -3.301  11.417  18.089  0.00  0.00    +0.000 A 
ATOM     21  C   UNL     1      -2.999  12.226  19.228  0.00  0.00    +0.000 A 
BRANCH  16  23
ATOM     22  C   UNL     1      -4.030  13.191  22.396  0.00  0.00    +0.000 C 
ATOM     23  O   UNL     1      -3.857  13.530  21.027  0.00  0.00    +0.000 OA
ENDBRANCH  16  23
BRANCH  20  24
ATOM     24  O   UNL     1      -2.301  11.135  17.181  0.00  0.00    +0.000 OA
ATOM     25  C   UNL     1      -2.731  10.871  15.842  0.00  0.00    +0.000 C 
ENDBRANCH  20  24
ENDBRANCH   1  21
BRANCH   3  26
ATOM     26  C   UNL     1       1.123  15.191  19.178  0.00  0.00    +0.000 C 
ATOM     27  O   UNL     1       0.707  16.222  18.658  0.00  0.00    +0.000 OA
ATOM     28  N   UNL     1       2.483  14.988  19.430  0.00  0.00    +0.000 N 
ATOM     29  H   UNL     1       2.695  14.216  20.061  0.00  0.00    +0.000 HD
BRANCH  28  30
ATOM     30  C   UNL     1       3.439  16.115  19.224  0.00  0.00    +0.000 C 
ATOM     31  C   UNL     1       3.055  17.369  20.045  0.00  0.00    +0.000 C 
ATOM     32  C   UNL     1       3.377  17.202  21.530  0.00  0.00    +0.000 C 
ATOM     33  C   UNL     1       4.868  16.973  21.730  0.00  0.00    +0.000 C 
ATOM     34  C   UNL     1       5.321  15.716  21.000  0.00  0.00    +0.000 C 
ATOM     35  C   UNL     1       4.914  15.708  19.532  0.00  0.00    +0.000 C 
BRANCH  30  36
ATOM     36  C   UNL     1       3.480  16.417  17.702  0.00  0.00    +0.000 C 
ATOM     37  O   UNL     1       3.279  17.514  17.189  0.00  0.00    +0.000 OA
BRANCH  36  38
ATOM     38  O   UNL     1       3.974  15.379  16.964  0.00  0.00    +0.000 OA
ATOM     39  H   UNL     1       3.234  14.824  16.646  0.00  0.00    +0.000 HD
ENDBRANCH  36  38
ENDBRANCH  30  36
ENDBRANCH  28  30
ENDBRANCH   3  26
TORSDOF 8
ENDMDL
MODEL 5
REMARK VINA RESULT:      -7.1      1.558      5.109
REMARK  Name = 
REMARK  10 active torsions:
REMARK  status: ('A' for Active; 'I' for Inactive)
REMARK    1  A    between atoms: C_1  and  O_2
REMARK    2  A    between atoms: O_2  and  C_3
REMARK    3  A    between atoms: C_7  and  O_8
REMARK    4  A    between atoms: O_8  and  C_9
REMARK    5  A    between atoms: C_10  and  C_11
REMARK    6  A    between atoms: C_13  and  C_14
REMARK    7  A    between atoms: N_16  and  C_17
REMARK    8  A    between atoms: C_17  and  C_18
REMARK    9  A    between atoms: C_18  and  O_20
REMARK   10  A    between atoms: N_27  and  C_28
REMARK                            x       y       z     vdW  Elec       q    Type
REMARK                         _______ _______ _______ _____ _____    ______ ____
ROOT
ATOM      1  C   UNL     1      -1.279  12.732  19.567  0.00  0.00    +0.000 A 
ATOM      2  C   UNL     1      -0.740  13.970  19.255  0.00  0.00    +0.000 A 
ATOM      3  C   UNL     1       0.584  13.997  19.729  0.00  0.00    +0.000 A 
ATOM      4  N   UNL     1       0.903  12.849  20.330  0.00  0.00    +0.000 NA
ATOM      5  N   UNL     1      -0.226  12.066  20.236  0.00  0.00    +0.000 N 
ENDROOT
BRANCH   5   6
ATOM      6  C   UNL     1      -0.173  10.735  20.759  0.00  0.00    +0.000 A 
ATOM      7  C   UNL     1      -0.644  10.517  22.065  0.00  0.00    +0.000 A 
ATOM      8  C   UNL     1      -0.394   9.307  22.704  0.00  0.00    +0.000 A 
ATOM      9  C   UNL     1       0.357   8.325  22.062  0.00  0.00    +0.000 A 
ATOM     10  C   UNL     1       0.845   8.518  20.760  0.00  0.00    +0.000 A 
ATOM     11  C   UNL     1       1.718   7.563  20.206  0.00  0.00    +0.000 A 
ATOM     12  C   UNL     1       2.263   7.729  18.935  0.00  0.00    +0.000 A 
ATOM     13  C   UNL     1       1.894   8.825  18.175  0.00  0.00    +0.000 A 
ATOM     14  C   UNL     1       1.045   9.793  18.720  0.00  0.00    +0.000 A 
ATOM     15  C   UNL     1       0.533   9.705  20.044  0.00  0.00    +0.000 A 
ENDBRANCH   5   6
BRANCH   1  21
ATOM     16  C   UNL     1      -3.768  12.685  20.182  0.00  0.00    +0.000 A 
ATOM     17  C   UNL     1      -5.070  12.198  19.975  0.00  0.00    +0.000 A 
ATOM     18  C   UNL     1      -5.364  11.387  18.888  0.00  0.00    +0.000 A 
ATOM     19  C   UNL     1      -4.365  11.072  17.981  0.00  0.00    +0.000 A 
ATOM     20  C   UNL     1      -3.049  11.524  18.176  0.00  0.00    +0.000 A 
ATOM     21  C   UNL     1      -2.700  12.291  19.331  0.00  0.00    +0.000 A 
BRANCH  16  23
ATOM     22  C   UNL     1      -4.186  14.835  21.182  0.00  0.00    +0.000 C 
ATOM     23  O   UNL     1      -3.481  13.602  21.159  0.00  0.00    +0.000 OA
ENDBRANCH  16  23
BRANCH  20  24
ATOM     24  O   UNL     1      -2.069  11.207  17.259  0.00  0.00    +0.000 OA
ATOM     25  C   UNL     1      -2.532  10.730  15.991  0.00  0.00    +0.000 C 
ENDBRANCH  20  24
ENDBRANCH   1  21
BRANCH   3  26
ATOM     26  C   UNL     1       1.509  15.122  19.563  0.00  0.00    +0.000 C 
ATOM     27  O   UNL     1       1.373  16.154  20.214  0.00  0.00    +0.000 OA
ATOM     28  N   UNL     1       2.498  14.991  18.584  0.00  0.00    +0.000 N 
ATOM     29  H   UNL     1       2.671  14.037  18.270  0.00  0.00    +0.000 HD
BRANCH  28  30
ATOM     30  C   UNL     1       3.528  16.062  18.440  0.00  0.00    +0.000 C 
ATOM     31  C   UNL     1       4.134  16.480  19.801  0.00  0.00    +0.000 C 
ATOM     32  C   UNL     1       5.113  15.436  20.337  0.00  0.00    +0.000 C 
ATOM     33  C   UNL     1       6.271  15.244  19.370  0.00  0.00    +0.000 C 
ATOM     34  C   UNL     1       5.765  14.769  18.014  0.00  0.00    +0.000 C 
ATOM     35  C   UNL     1       4.666  15.661  17.450  0.00  0.00    +0.000 C 
BRANCH  30  36
ATOM     36  C   UNL     1       2.855  17.260  17.719  0.00  0.00    +0.000 C 
ATOM     37  O   UNL     1       2.706  17.366  16.504  0.00  0.00    +0.000 OA
BRANCH  36  38
ATOM     38  O   UNL     1       2.236  18.123  18.579  0.00  0.00    +0.000 OA
ATOM     39  H   UNL     1       2.888  18.463  19.224  0.00  0.00    +0.000 HD
ENDBRANCH  36  38
ENDBRANCH  30  36
ENDBRANCH  28  30
ENDBRANCH   3  26
TORSDOF 8
ENDMDL
MODEL 6
REMARK VINA RESULT:      -7.1      1.429      5.056
REMARK  Name = 
REMARK  10 active torsions:
REMARK  status: ('A' for Active; 'I' for Inactive)
REMARK    1  A    between atoms: C_1  and  O_2
REMARK    2  A    between atoms: O_2  and  C_3
REMARK    3  A    between atoms: C_7  and  O_8
REMARK    4  A    between atoms: O_8  and  C_9
REMARK    5  A    between atoms: C_10  and  C_11
REMARK    6  A    between atoms: C_13  and  C_14
REMARK    7  A    between atoms: N_16  and  C_17
REMARK    8  A    between atoms: C_17  and  C_18
REMARK    9  A    between atoms: C_18  and  O_20
REMARK   10  A    between atoms: N_27  and  C_28
REMARK                            x       y       z     vdW  Elec       q    Type
REMARK                         _______ _______ _______ _____ _____    ______ ____
ROOT
ATOM      1  C   UNL     1      -1.035  12.512  19.002  0.00  0.00    +0.000 A 
ATOM      2  C   UNL     1      -0.478  13.717  18.606  0.00  0.00    +0.000 A 
ATOM      3  C   UNL     1       0.876  13.714  18.987  0.00  0.00    +0.000 A 
ATOM      4  N   UNL     1       1.198  12.576  19.608  0.00  0.00    +0.000 NA
ATOM      5  N   UNL     1       0.040  11.832  19.622  0.00  0.00    +0.000 N 
ENDROOT
BRANCH   5   6
ATOM      6  C   UNL     1       0.084  10.520  20.191  0.00  0.00    +0.000 A 
ATOM      7  C   UNL     1      -0.442  10.339  21.482  0.00  0.00    +0.000 A 
ATOM      8  C   UNL     1      -0.207   9.153  22.171  0.00  0.00    +0.000 A 
ATOM      9  C   UNL     1       0.583   8.161  21.595  0.00  0.00    +0.000 A 
ATOM     10  C   UNL     1       1.127   8.317  20.310  0.00  0.00    +0.000 A 
ATOM     11  C   UNL     1       2.034   7.356  19.827  0.00  0.00    +0.000 A 
ATOM     12  C   UNL     1       2.632   7.488  18.577  0.00  0.00    +0.000 A 
ATOM     13  C   UNL     1       2.285   8.553  17.765  0.00  0.00    +0.000 A 
ATOM     14  C   UNL     1       1.402   9.527  18.240  0.00  0.00    +0.000 A 
ATOM     15  C   UNL     1       0.832   9.476  19.542  0.00  0.00    +0.000 A 
ENDBRANCH   5   6
BRANCH   1  21
ATOM     16  C   UNL     1      -3.441  12.425  19.885  0.00  0.00    +0.000 A 
ATOM     17  C   UNL     1      -4.769  11.978  19.776  0.00  0.00    +0.000 A 
ATOM     18  C   UNL     1      -5.200  11.292  18.648  0.00  0.00    +0.000 A 
ATOM     19  C   UNL     1      -4.315  11.067  17.606  0.00  0.00    +0.000 A 
ATOM     20  C   UNL     1      -2.976  11.481  17.699  0.00  0.00    +0.000 A 
ATOM     21  C   UNL     1      -2.484  12.115  18.883  0.00  0.00    +0.000 A 
BRANCH  16  23
ATOM     22  C   UNL     1      -3.444  12.926  22.241  0.00  0.00    +0.000 C 
ATOM     23  O   UNL     1      -3.026  13.227  20.916  0.00  0.00    +0.000 OA
ENDBRANCH  16  23
BRANCH  20  24
ATOM     24  O   UNL     1      -2.111  11.255  16.649  0.00  0.00    +0.000 OA
ATOM     25  C   UNL     1      -2.655  10.535  15.537  0.00  0.00    +0.000 C 
ENDBRANCH  20  24
ENDBRANCH   1  21
BRANCH   3  26
ATOM     26  C   UNL     1       1.824  14.798  18.715  0.00  0.00    +0.000 C 
ATOM     27  O   UNL     1       2.716  14.664  17.882  0.00  0.00    +0.000 OA
ATOM     28  N   UNL     1       1.709  15.952  19.495  0.00  0.00    +0.000 N 
ATOM     29  H   UNL     1       0.819  16.058  19.980  0.00  0.00    +0.000 HD
BRANCH  28  30
ATOM     30  C   UNL     1       2.580  17.126  19.194  0.00  0.00    +0.000 C 
ATOM     31  C   UNL     1       2.547  18.187  20.319  0.00  0.00    +0.000 C 
ATOM     32  C   UNL     1       3.348  17.747  21.544  0.00  0.00    +0.000 C 
ATOM     33  C   UNL     1       4.808  17.529  21.177  0.00  0.00    +0.000 C 
ATOM     34  C   UNL     1       4.937  16.448  20.112  0.00  0.00    +0.000 C 
ATOM     35  C   UNL     1       4.055  16.709  18.898  0.00  0.00    +0.000 C 
BRANCH  30  36
ATOM     36  C   UNL     1       2.113  17.714  17.835  0.00  0.00    +0.000 C 
ATOM     37  O   UNL     1       1.222  18.546  17.690  0.00  0.00    +0.000 OA
BRANCH  36  38
ATOM     38  O   UNL     1       2.934  17.378  16.797  0.00  0.00    +0.000 OA
ATOM     39  H   UNL     1       2.427  16.869  16.132  0.00  0.00    +0.000 HD
ENDBRANCH  36  38
ENDBRANCH  30  36
ENDBRANCH  28  30
ENDBRANCH   3  26
TORSDOF 8
ENDMDL
MODEL 7
REMARK VINA RESULT:      -7.1      1.657      4.693
REMARK  Name = 
REMARK  10 active torsions:
REMARK  status: ('A' for Active; 'I' for Inactive)
REMARK    1  A    between atoms: C_1  and  O_2
REMARK    2  A    between atoms: O_2  and  C_3
REMARK    3  A    between atoms: C_7  and  O_8
REMARK    4  A    between atoms: O_8  and  C_9
REMARK    5  A    between atoms: C_10  and  C_11
REMARK    6  A    between atoms: C_13  and  C_14
REMARK    7  A    between atoms: N_16  and  C_17
REMARK    8  A    between atoms: C_17  and  C_18
REMARK    9  A    between atoms: C_18  and  O_20
REMARK   10  A    between atoms: N_27  and  C_28
REMARK                            x       y       z     vdW  Elec       q    Type
REMARK                         _______ _______ _______ _____ _____    ______ ____
ROOT
ATOM      1  C   UNL     1      -1.756  13.167  20.247  0.00  0.00    +0.000 A 
ATOM      2  C   UNL     1      -1.251  14.363  19.762  0.00  0.00    +0.000 A 
ATOM      3  C   UNL     1       0.147  14.335  19.913  0.00  0.00    +0.000 A 
ATOM      4  N   UNL     1       0.548  13.192  20.474  0.00  0.00    +0.000 NA
ATOM      5  N   UNL     1      -0.605  12.468  20.682  0.00  0.00    +0.000 N 
ENDROOT
BRANCH   5   6
ATOM      6  C   UNL     1      -0.489  11.155  21.237  0.00  0.00    +0.000 A 
ATOM      7  C   UNL     1      -0.870  10.966  22.577  0.00  0.00    +0.000 A 
ATOM      8  C   UNL     1      -0.553   9.781  23.232  0.00  0.00    +0.000 A 
ATOM      9  C   UNL     1       0.176   8.796  22.570  0.00  0.00    +0.000 A 
ATOM     10  C   UNL     1       0.576   8.960  21.234  0.00  0.00    +0.000 A 
ATOM     11  C   UNL     1       1.432   8.006  20.652  0.00  0.00    +0.000 A 
ATOM     12  C   UNL     1       1.890   8.146  19.345  0.00  0.00    +0.000 A 
ATOM     13  C   UNL     1       1.449   9.211  18.580  0.00  0.00    +0.000 A 
ATOM     14  C   UNL     1       0.616  10.177  19.151  0.00  0.00    +0.000 A 
ATOM     15  C   UNL     1       0.192  10.118  20.508  0.00  0.00    +0.000 A 
ENDBRANCH   5   6
BRANCH   1  21
ATOM     16  C   UNL     1      -3.920  12.153  19.320  0.00  0.00    +0.000 A 
ATOM     17  C   UNL     1      -5.295  11.884  19.440  0.00  0.00    +0.000 A 
ATOM     18  C   UNL     1      -5.976  12.162  20.617  0.00  0.00    +0.000 A 
ATOM     19  C   UNL     1      -5.287  12.691  21.696  0.00  0.00    +0.000 A 
ATOM     20  C   UNL     1      -3.919  12.993  21.596  0.00  0.00    +0.000 A 
ATOM     21  C   UNL     1      -3.211  12.795  20.370  0.00  0.00    +0.000 A 
BRANCH  16  23
ATOM     22  C   UNL     1      -3.878  11.371  17.043  0.00  0.00    +0.000 C 
ATOM     23  O   UNL     1      -3.194  11.756  18.228  0.00  0.00    +0.000 OA
ENDBRANCH  16  23
BRANCH  20  24
ATOM     24  O   UNL     1      -3.247  13.512  22.684  0.00  0.00    +0.000 OA
ATOM     25  C   UNL     1      -3.668  13.032  23.964  0.00  0.00    +0.000 C 
ENDBRANCH  20  24
ENDBRANCH   1  21
BRANCH   3  26
ATOM     26  C   UNL     1       1.055  15.403  19.485  0.00  0.00    +0.000 C 
ATOM     27  O   UNL     1       0.622  16.475  19.074  0.00  0.00    +0.000 OA
ATOM     28  N   UNL     1       2.423  15.115  19.498  0.00  0.00    +0.000 N 
ATOM     29  H   UNL     1       2.689  14.307  20.060  0.00  0.00    +0.000 HD
BRANCH  28  30
ATOM     30  C   UNL     1       3.399  16.196  19.170  0.00  0.00    +0.000 C 
ATOM     31  C   UNL     1       3.159  17.477  20.003  0.00  0.00    +0.000 C 
ATOM     32  C   UNL     1       3.632  17.316  21.448  0.00  0.00    +0.000 C 
ATOM     33  C   UNL     1       5.124  17.025  21.492  0.00  0.00    +0.000 C 
ATOM     34  C   UNL     1       5.443  15.738  20.742  0.00  0.00    +0.000 C 
ATOM     35  C   UNL     1       4.880  15.727  19.326  0.00  0.00    +0.000 C 
BRANCH  30  36
ATOM     36  C   UNL     1       3.289  16.473  17.646  0.00  0.00    +0.000 C 
ATOM     37  O   UNL     1       3.055  17.567  17.138  0.00  0.00    +0.000 OA
BRANCH  36  38
ATOM     38  O   UNL     1       3.686  15.415  16.880  0.00  0.00    +0.000 OA
ATOM     39  H   UNL     1       3.720  15.687  15.940  0.00  0.00    +0.000 HD
ENDBRANCH  36  38
ENDBRANCH  30  36
ENDBRANCH  28  30
ENDBRANCH   3  26
TORSDOF 8
ENDMDL
MODEL 8
REMARK VINA RESULT:      -7.1      1.492      4.598
REMARK  Name = 
REMARK  10 active torsions:
REMARK  status: ('A' for Active; 'I' for Inactive)
REMARK    1  A    between atoms: C_1  and  O_2
REMARK    2  A    between atoms: O_2  and  C_3
REMARK    3  A    between atoms: C_7  and  O_8
REMARK    4  A    between atoms: O_8  and  C_9
REMARK    5  A    between atoms: C_10  and  C_11
REMARK    6  A    between atoms: C_13  and  C_14
REMARK    7  A    between atoms: N_16  and  C_17
REMARK    8  A    between atoms: C_17  and  C_18
REMARK    9  A    between atoms: C_18  and  O_20
REMARK   10  A    between atoms: N_27  and  C_28
REMARK                            x       y       z     vdW  Elec       q    Type
REMARK                         _______ _______ _______ _____ _____    ______ ____
ROOT
ATOM      1  C   UNL     1      -1.323  12.639  19.308  0.00  0.00    +0.000 A 
ATOM      2  C   UNL     1      -0.791  13.832  18.846  0.00  0.00    +0.000 A 
ATOM      3  C   UNL     1       0.548  13.903  19.273  0.00  0.00    +0.000 A 
ATOM      4  N   UNL     1       0.883  12.825  19.985  0.00  0.00    +0.000 NA
ATOM      5  N   UNL     1      -0.250  12.043  20.012  0.00  0.00    +0.000 N 
ENDROOT
BRANCH   5   6
ATOM      6  C   UNL     1      -0.183  10.776  20.674  0.00  0.00    +0.000 A 
ATOM      7  C   UNL     1      -0.647  10.697  21.999  0.00  0.00    +0.000 A 
ATOM      8  C   UNL     1      -0.383   9.564  22.763  0.00  0.00    +0.000 A 
ATOM      9  C   UNL     1       0.372   8.525  22.225  0.00  0.00    +0.000 A 
ATOM     10  C   UNL     1       0.853   8.580  20.907  0.00  0.00    +0.000 A 
ATOM     11  C   UNL     1       1.731   7.578  20.454  0.00  0.00    +0.000 A 
ATOM     12  C   UNL     1       2.268   7.611  19.170  0.00  0.00    +0.000 A 
ATOM     13  C   UNL     1       1.887   8.616  18.299  0.00  0.00    +0.000 A 
ATOM     14  C   UNL     1       1.033   9.630  18.742  0.00  0.00    +0.000 A 
ATOM     15  C   UNL     1       0.527   9.681  20.070  0.00  0.00    +0.000 A 
ENDBRANCH   5   6
BRANCH   1  21
ATOM     16  C   UNL     1      -3.155  11.252  18.171  0.00  0.00    +0.000 A 
ATOM     17  C   UNL     1      -4.508  10.902  18.021  0.00  0.00    +0.000 A 
ATOM     18  C   UNL     1      -5.473  11.392  18.890  0.00  0.00    +0.000 A 
ATOM     19  C   UNL     1      -5.094  12.218  19.936  0.00  0.00    +0.000 A 
ATOM     20  C   UNL     1      -3.753  12.604  20.095  0.00  0.00    +0.000 A 
ATOM     21  C   UNL     1      -2.752  12.183  19.166  0.00  0.00    +0.000 A 
BRANCH  16  23
ATOM     22  C   UNL     1      -2.456  10.254  16.094  0.00  0.00    +0.000 C 
ATOM     23  O   UNL     1      -2.166  10.672  17.421  0.00  0.00    +0.000 OA
ENDBRANCH  16  23
BRANCH  20  24
ATOM     24  O   UNL     1      -3.392  13.422  21.147  0.00  0.00    +0.000 OA
ATOM     25  C   UNL     1      -3.676  12.917  22.455  0.00  0.00    +0.000 C 
ENDBRANCH  20  24
ENDBRANCH   1  21
BRANCH   3  26
ATOM     26  C   UNL     1       1.469  14.998  18.957  0.00  0.00    +0.000 C 
ATOM     27  O   UNL     1       2.445  14.816  18.235  0.00  0.00    +0.000 OA
ATOM     28  N   UNL     1       1.226  16.230  19.572  0.00  0.00    +0.000 N 
ATOM     29  H   UNL     1       0.288  16.343  19.956  0.00  0.00    +0.000 HD
BRANCH  28  30
ATOM     30  C   UNL     1       2.070  17.406  19.210  0.00  0.00    +0.000 C 
ATOM     31  C   UNL     1       1.791  18.631  20.112  0.00  0.00    +0.000 C 
ATOM     32  C   UNL     1       2.398  18.466  21.505  0.00  0.00    +0.000 C 
ATOM     33  C   UNL     1       3.908  18.311  21.414  0.00  0.00    +0.000 C 
ATOM     34  C   UNL     1       4.273  17.084  20.588  0.00  0.00    +0.000 C 
ATOM     35  C   UNL     1       3.594  17.070  19.225  0.00  0.00    +0.000 C 
BRANCH  30  36
ATOM     36  C   UNL     1       1.806  17.723  17.713  0.00  0.00    +0.000 C 
ATOM     37  O   UNL     1       0.792  18.253  17.267  0.00  0.00    +0.000 OA
BRANCH  36  38
ATOM     38  O   UNL     1       2.909  17.548  16.927  0.00  0.00    +0.000 OA
ATOM     39  H   UNL     1       3.544  16.958  17.382  0.00  0.00    +0.000 HD
ENDBRANCH  36  38
ENDBRANCH  30  36
ENDBRANCH  28  30
ENDBRANCH   3  26
TORSDOF 8
ENDMDL
MODEL 9
REMARK VINA RESULT:      -7.0      0.857      1.053
REMARK  Name = 
REMARK  10 active torsions:
REMARK  status: ('A' for Active; 'I' for Inactive)
REMARK    1  A    between atoms: C_1  and  O_2
REMARK    2  A    between atoms: O_2  and  C_3
REMARK    3  A    between atoms: C_7  and  O_8
REMARK    4  A    between atoms: O_8  and  C_9
REMARK    5  A    between atoms: C_10  and  C_11
REMARK    6  A    between atoms: C_13  and  C_14
REMARK    7  A    between atoms: N_16  and  C_17
REMARK    8  A    between atoms: C_17  and  C_18
REMARK    9  A    between atoms: C_18  and  O_20
REMARK   10  A    between atoms: N_27  and  C_28
REMARK                            x       y       z     vdW  Elec       q    Type
REMARK                         _______ _______ _______ _____ _____    ______ ____
ROOT
ATOM      1  C   UNL     1       0.692  11.501  19.598  0.00  0.00    +0.000 A 
ATOM      2  C   UNL     1       1.625  12.525  19.602  0.00  0.00    +0.000 A 
ATOM      3  C   UNL     1       1.125  13.569  18.803  0.00  0.00    +0.000 A 
ATOM      4  N   UNL     1      -0.067  13.254  18.290  0.00  0.00    +0.000 NA
ATOM      5  N   UNL     1      -0.345  11.994  18.769  0.00  0.00    +0.000 N 
ENDROOT
BRANCH   5   6
ATOM      6  C   UNL     1      -1.599  11.398  18.423  0.00  0.00    +0.000 A 
ATOM      7  C   UNL     1      -1.634  10.518  17.328  0.00  0.00    +0.000 A 
ATOM      8  C   UNL     1      -2.855  10.106  16.803  0.00  0.00    +0.000 A 
ATOM      9  C   UNL     1      -4.042  10.598  17.341  0.00  0.00    +0.000 A 
ATOM     10  C   UNL     1      -4.037  11.484  18.430  0.00  0.00    +0.000 A 
ATOM     11  C   UNL     1      -5.248  12.066  18.847  0.00  0.00    +0.000 A 
ATOM     12  C   UNL     1      -5.289  12.982  19.895  0.00  0.00    +0.000 A 
ATOM     13  C   UNL     1      -4.126  13.282  20.582  0.00  0.00    +0.000 A 
ATOM     14  C   UNL     1      -2.912  12.728  20.165  0.00  0.00    +0.000 A 
ATOM     15  C   UNL     1      -2.812  11.853  19.048  0.00  0.00    +0.000 A 
ENDBRANCH   5   6
BRANCH   1  21
ATOM     16  C   UNL     1       1.394   9.035  19.554  0.00  0.00    +0.000 A 
ATOM     17  C   UNL     1       1.457   7.770  20.164  0.00  0.00    +0.000 A 
ATOM     18  C   UNL     1       1.061   7.594  21.483  0.00  0.00    +0.000 A 
ATOM     19  C   UNL     1       0.621   8.684  22.216  0.00  0.00    +0.000 A 
ATOM     20  C   UNL     1       0.524   9.955  21.624  0.00  0.00    +0.000 A 
ATOM     21  C   UNL     1       0.845  10.149  20.245  0.00  0.00    +0.000 A 
BRANCH  16  23
ATOM     22  C   UNL     1       2.680   8.254  17.675  0.00  0.00    +0.000 C 
ATOM     23  O   UNL     1       1.911   9.268  18.307  0.00  0.00    +0.000 OA
ENDBRANCH  16  23
BRANCH  20  24
ATOM     24  O   UNL     1       0.090  11.030  22.371  0.00  0.00    +0.000 OA
ATOM     25  C   UNL     1      -1.150  10.849  23.063  0.00  0.00    +0.000 C 
ENDBRANCH  20  24
ENDBRANCH   1  21
BRANCH   3  26
ATOM     26  C   UNL     1       1.802  14.850  18.582  0.00  0.00    +0.000 C 
ATOM     27  O   UNL     1       2.791  14.927  17.859  0.00  0.00    +0.000 OA
ATOM     28  N   UNL     1       1.314  15.955  19.286  0.00  0.00    +0.000 N 
ATOM     29  H   UNL     1       0.375  15.845  19.665  0.00  0.00    +0.000 HD
BRANCH  28  30
ATOM     30  C   UNL     1       1.899  17.303  19.023  0.00  0.00    +0.000 C 
ATOM     31  C   UNL     1       1.350  18.380  19.989  0.00  0.00    +0.000 C 
ATOM     32  C   UNL     1       1.952  18.253  21.388  0.00  0.00    +0.000 C 
ATOM     33  C   UNL     1       3.463  18.424  21.337  0.00  0.00    +0.000 C 
ATOM     34  C   UNL     1       4.093  17.358  20.451  0.00  0.00    +0.000 C 
ATOM     35  C   UNL     1       3.459  17.292  19.067  0.00  0.00    +0.000 C 
BRANCH  30  36
ATOM     36  C   UNL     1       1.602  17.657  17.541  0.00  0.00    +0.000 C 
ATOM     37  O   UNL     1       0.544  18.113  17.117  0.00  0.00    +0.000 OA
BRANCH  36  38
ATOM     38  O   UNL     1       2.714  17.612  16.748  0.00  0.00    +0.000 OA
ATOM     39  H   UNL     1       2.521  17.086  15.946  0.00  0.00    +0.000 HD
ENDBRANCH  36  38
ENDBRANCH  30  36
ENDBRANCH  28  30
ENDBRANCH   3  26
TORSDOF 8
ENDMDL
