MODEL 1
REMARK VINA RESULT:      -8.7      0.000      0.000
REMARK  Name = 
REMARK  3 active torsions:
REMARK  status: ('A' for Active; 'I' for Inactive)
REMARK    1  A    between atoms: C_2  and  C_3
REMARK    2  A    between atoms: C_11  and  N_12
REMARK    3  A    between atoms: C_23  and  C_24
REMARK                            x       y       z     vdW  Elec       q    Type
REMARK                         _______ _______ _______ _____ _____    ______ ____
ROOT
ATOM      1  N   UNL     1      -1.864  15.204  23.159  0.00  0.00    +0.000 N 
ATOM      2  C   UNL     1      -0.921  15.829  23.982  0.00  0.00    +0.000 A 
ATOM      3  O   UNL     1       0.301  15.778  23.838  0.00  0.00    +0.000 OA
ATOM      4  C   UNL     1      -1.430  16.639  25.105  0.00  0.00    +0.000 A 
ATOM      5  C   UNL     1      -2.735  16.813  25.305  0.00  0.00    +0.000 A 
ATOM      6  C   UNL     1      -3.699  16.199  24.402  0.00  0.00    +0.000 A 
ATOM      7  C   UNL     1      -5.048  16.441  24.604  0.00  0.00    +0.000 A 
ATOM      8  N   UNL     1      -6.028  15.967  23.818  0.00  0.00    +0.000 NA
ATOM      9  C   UNL     1      -5.685  15.198  22.783  0.00  0.00    +0.000 A 
ATOM     10  C   UNL     1      -6.729  14.749  21.985  0.00  0.00    +0.000 A 
ATOM     11  C   UNL     1      -6.525  13.953  20.856  0.00  0.00    +0.000 A 
ATOM     12  C   UNL     1      -5.241  13.543  20.519  0.00  0.00    +0.000 A 
ATOM     13  C   UNL     1      -4.202  13.963  21.373  0.00  0.00    +0.000 A 
ATOM     14  C   UNL     1      -4.349  14.837  22.482  0.00  0.00    +0.000 A 
ATOM     15  C   UNL     1      -3.303  15.385  23.322  0.00  0.00    +0.000 A 
ENDROOT
BRANCH   1  24
ATOM     16  C   UNL     1       0.371  10.348  22.014  0.00  0.00    +0.000 C 
ATOM     17  O   UNL     1      -0.070  10.475  23.152  0.00  0.00    +0.000 OA
ATOM     18  N   UNL     1       0.253  11.267  20.987  0.00  0.00    +0.000 N 
ATOM     19  C   UNL     1       0.739  11.086  19.606  0.00  0.00    +0.000 C 
ATOM     20  C   UNL     1       0.580  12.420  18.875  0.00  0.00    +0.000 C 
ATOM     21  C   UNL     1      -0.118  13.256  19.897  0.00  0.00    +0.000 A 
ATOM     22  C   UNL     1      -0.518  14.577  19.750  0.00  0.00    +0.000 A 
ATOM     23  C   UNL     1      -1.124  15.209  20.836  0.00  0.00    +0.000 A 
ATOM     24  C   UNL     1      -1.323  14.514  22.047  0.00  0.00    +0.000 A 
ATOM     25  C   UNL     1      -0.873  13.187  22.194  0.00  0.00    +0.000 A 
ATOM     26  C   UNL     1      -0.286  12.566  21.100  0.00  0.00    +0.000 A 
BRANCH  16  28
ATOM     27  C   UNL     1       0.551   7.975  21.414  0.00  0.00    +0.000 C 
ATOM     28  C   UNL     1       1.170   9.135  21.667  0.00  0.00    +0.000 C 
ENDBRANCH  16  28
ENDBRANCH   1  24
BRANCH  12  29
ATOM     29  C   UNL     1      -4.932  12.692  19.353  0.00  0.00    +0.000 A 
ATOM     30  C   UNL     1      -5.752  12.677  18.222  0.00  0.00    +0.000 A 
ATOM     31  N   UNL     1      -5.488  12.043  17.055  0.00  0.00    +0.000 NA
ATOM     32  C   UNL     1      -4.346  11.351  16.980  0.00  0.00    +0.000 A 
ATOM     33  C   UNL     1      -4.000  10.746  15.779  0.00  0.00    +0.000 A 
ATOM     34  C   UNL     1      -2.818  10.019  15.646  0.00  0.00    +0.000 A 
ATOM     35  C   UNL     1      -1.970   9.867  16.737  0.00  0.00    +0.000 A 
ATOM     36  C   UNL     1      -2.296  10.464  17.953  0.00  0.00    +0.000 A 
ATOM     37  C   UNL     1      -3.469  11.224  18.077  0.00  0.00    +0.000 A 
ATOM     38  C   UNL     1      -3.784  11.902  19.267  0.00  0.00    +0.000 A 
ENDBRANCH  12  29
TORSDOF 3
ENDMDL
MODEL 2
REMARK VINA RESULT:      -8.1      1.861      3.070
REMARK  Name = 
REMARK  3 active torsions:
REMARK  status: ('A' for Active; 'I' for Inactive)
REMARK    1  A    between atoms: C_2  and  C_3
REMARK    2  A    between atoms: C_11  and  N_12
REMARK    3  A    between atoms: C_23  and  C_24
REMARK                            x       y       z     vdW  Elec       q    Type
REMARK                         _______ _______ _______ _____ _____    ______ ____
ROOT
ATOM      1  N   UNL     1       0.270  15.483  22.573  0.00  0.00    +0.000 N 
ATOM      2  C   UNL     1       1.599  15.902  22.453  0.00  0.00    +0.000 A 
ATOM      3  O   UNL     1       2.401  15.505  21.607  0.00  0.00    +0.000 OA
ATOM      4  C   UNL     1       2.078  16.922  23.404  0.00  0.00    +0.000 A 
ATOM      5  C   UNL     1       1.270  17.464  24.313  0.00  0.00    +0.000 A 
ATOM      6  C   UNL     1      -0.126  17.055  24.382  0.00  0.00    +0.000 A 
ATOM      7  C   UNL     1      -0.956  17.675  25.303  0.00  0.00    +0.000 A 
ATOM      8  N   UNL     1      -2.266  17.415  25.435  0.00  0.00    +0.000 NA
ATOM      9  C   UNL     1      -2.804  16.486  24.642  0.00  0.00    +0.000 A 
ATOM     10  C   UNL     1      -4.167  16.267  24.799  0.00  0.00    +0.000 A 
ATOM     11  C   UNL     1      -4.874  15.342  24.027  0.00  0.00    +0.000 A 
ATOM     12  C   UNL     1      -4.205  14.567  23.089  0.00  0.00    +0.000 A 
ATOM     13  C   UNL     1      -2.814  14.765  22.984  0.00  0.00    +0.000 A 
ATOM     14  C   UNL     1      -2.067  15.747  23.686  0.00  0.00    +0.000 A 
ATOM     15  C   UNL     1      -0.662  16.065  23.534  0.00  0.00    +0.000 A 
ENDROOT
BRANCH   1  24
ATOM     16  C   UNL     1      -0.090  10.079  21.827  0.00  0.00    +0.000 C 
ATOM     17  O   UNL     1       0.270  10.439  22.944  0.00  0.00    +0.000 OA
ATOM     18  N   UNL     1      -0.510  10.906  20.801  0.00  0.00    +0.000 N 
ATOM     19  C   UNL     1      -0.992  10.465  19.478  0.00  0.00    +0.000 C 
ATOM     20  C   UNL     1      -1.153  11.706  18.599  0.00  0.00    +0.000 C 
ATOM     21  C   UNL     1      -0.852  12.810  19.560  0.00  0.00    +0.000 A 
ATOM     22  C   UNL     1      -0.861  14.170  19.284  0.00  0.00    +0.000 A 
ATOM     23  C   UNL     1      -0.511  15.055  20.304  0.00  0.00    +0.000 A 
ATOM     24  C   UNL     1      -0.161  14.570  21.581  0.00  0.00    +0.000 A 
ATOM     25  C   UNL     1      -0.116  13.184  21.833  0.00  0.00    +0.000 A 
ATOM     26  C   UNL     1      -0.481  12.316  20.813  0.00  0.00    +0.000 A 
BRANCH  16  28
ATOM     27  C   UNL     1       1.151   8.038  21.265  0.00  0.00    +0.000 C 
ATOM     28  C   UNL     1      -0.032   8.631  21.468  0.00  0.00    +0.000 C 
ENDBRANCH  16  28
ENDBRANCH   1  24
BRANCH  12  29
ATOM     29  C   UNL     1      -4.867  13.557  22.238  0.00  0.00    +0.000 A 
ATOM     30  C   UNL     1      -6.024  12.896  22.655  0.00  0.00    +0.000 A 
ATOM     31  N   UNL     1      -6.780  12.060  21.904  0.00  0.00    +0.000 NA
ATOM     32  C   UNL     1      -6.374  11.831  20.650  0.00  0.00    +0.000 A 
ATOM     33  C   UNL     1      -7.157  11.040  19.820  0.00  0.00    +0.000 A 
ATOM     34  C   UNL     1      -6.783  10.776  18.504  0.00  0.00    +0.000 A 
ATOM     35  C   UNL     1      -5.591  11.287  18.005  0.00  0.00    +0.000 A 
ATOM     36  C   UNL     1      -4.787  12.083  18.819  0.00  0.00    +0.000 A 
ATOM     37  C   UNL     1      -5.181  12.377  20.133  0.00  0.00    +0.000 A 
ATOM     38  C   UNL     1      -4.431  13.240  20.950  0.00  0.00    +0.000 A 
ENDBRANCH  12  29
TORSDOF 3
ENDMDL
MODEL 3
REMARK VINA RESULT:      -7.7      2.640      6.320
REMARK  Name = 
REMARK  3 active torsions:
REMARK  status: ('A' for Active; 'I' for Inactive)
REMARK    1  A    between atoms: C_2  and  C_3
REMARK    2  A    between atoms: C_11  and  N_12
REMARK    3  A    between atoms: C_23  and  C_24
REMARK                            x       y       z     vdW  Elec       q    Type
REMARK                         _______ _______ _______ _____ _____    ______ ____
ROOT
ATOM      1  N   UNL     1      -4.787  13.480  21.876  0.00  0.00    +0.000 N 
ATOM      2  C   UNL     1      -5.807  13.851  22.759  0.00  0.00    +0.000 A 
ATOM      3  O   UNL     1      -5.688  14.636  23.701  0.00  0.00    +0.000 OA
ATOM      4  C   UNL     1      -7.145  13.274  22.532  0.00  0.00    +0.000 A 
ATOM      5  C   UNL     1      -7.393  12.470  21.500  0.00  0.00    +0.000 A 
ATOM      6  C   UNL     1      -6.330  12.142  20.560  0.00  0.00    +0.000 A 
ATOM      7  C   UNL     1      -6.631  11.345  19.467  0.00  0.00    +0.000 A 
ATOM      8  N   UNL     1      -5.749  11.008  18.512  0.00  0.00    +0.000 NA
ATOM      9  C   UNL     1      -4.497  11.453  18.629  0.00  0.00    +0.000 A 
ATOM     10  C   UNL     1      -3.627  11.098  17.606  0.00  0.00    +0.000 A 
ATOM     11  C   UNL     1      -2.291  11.505  17.578  0.00  0.00    +0.000 A 
ATOM     12  C   UNL     1      -1.775  12.260  18.625  0.00  0.00    +0.000 A 
ATOM     13  C   UNL     1      -2.659  12.563  19.679  0.00  0.00    +0.000 A 
ATOM     14  C   UNL     1      -4.042  12.242  19.713  0.00  0.00    +0.000 A 
ATOM     15  C   UNL     1      -5.014  12.623  20.716  0.00  0.00    +0.000 A 
ENDROOT
BRANCH   1  24
ATOM     16  C   UNL     1      -1.919  17.648  19.803  0.00  0.00    +0.000 C 
ATOM     17  O   UNL     1      -3.051  17.502  19.349  0.00  0.00    +0.000 OA
ATOM     18  N   UNL     1      -1.364  16.933  20.848  0.00  0.00    +0.000 N 
ATOM     19  C   UNL     1      -0.023  17.148  21.425  0.00  0.00    +0.000 C 
ATOM     20  C   UNL     1       0.252  16.012  22.411  0.00  0.00    +0.000 C 
ATOM     21  C   UNL     1      -1.049  15.275  22.409  0.00  0.00    +0.000 A 
ATOM     22  C   UNL     1      -1.358  14.143  23.149  0.00  0.00    +0.000 A 
ATOM     23  C   UNL     1      -2.617  13.567  22.984  0.00  0.00    +0.000 A 
ATOM     24  C   UNL     1      -3.547  14.131  22.086  0.00  0.00    +0.000 A 
ATOM     25  C   UNL     1      -3.203  15.255  21.310  0.00  0.00    +0.000 A 
ATOM     26  C   UNL     1      -1.952  15.827  21.497  0.00  0.00    +0.000 A 
BRANCH  16  28
ATOM     27  C   UNL     1      -0.721  18.544  17.858  0.00  0.00    +0.000 C 
ATOM     28  C   UNL     1      -0.993  18.630  19.166  0.00  0.00    +0.000 C 
ENDBRANCH  16  28
ENDBRANCH   1  24
BRANCH  12  29
ATOM     29  C   UNL     1      -0.375  12.725  18.687  0.00  0.00    +0.000 A 
ATOM     30  C   UNL     1       0.695  11.828  18.637  0.00  0.00    +0.000 A 
ATOM     31  N   UNL     1       2.006  12.155  18.550  0.00  0.00    +0.000 NA
ATOM     32  C   UNL     1       2.310  13.458  18.528  0.00  0.00    +0.000 A 
ATOM     33  C   UNL     1       3.635  13.840  18.366  0.00  0.00    +0.000 A 
ATOM     34  C   UNL     1       4.004  15.184  18.330  0.00  0.00    +0.000 A 
ATOM     35  C   UNL     1       3.040  16.173  18.483  0.00  0.00    +0.000 A 
ATOM     36  C   UNL     1       1.704  15.815  18.648  0.00  0.00    +0.000 A 
ATOM     37  C   UNL     1       1.328  14.463  18.651  0.00  0.00    +0.000 A 
ATOM     38  C   UNL     1      -0.020  14.074  18.736  0.00  0.00    +0.000 A 
ENDBRANCH  12  29
TORSDOF 3
ENDMDL
MODEL 4
REMARK VINA RESULT:      -7.6      2.066      3.538
REMARK  Name = 
REMARK  3 active torsions:
REMARK  status: ('A' for Active; 'I' for Inactive)
REMARK    1  A    between atoms: C_2  and  C_3
REMARK    2  A    between atoms: C_11  and  N_12
REMARK    3  A    between atoms: C_23  and  C_24
REMARK                            x       y       z     vdW  Elec       q    Type
REMARK                         _______ _______ _______ _____ _____    ______ ____
ROOT
ATOM      1  N   UNL     1       1.095  15.050  21.672  0.00  0.00    +0.000 N 
ATOM      2  C   UNL     1       2.442  15.318  21.408  0.00  0.00    +0.000 A 
ATOM      3  O   UNL     1       3.130  14.761  20.551  0.00  0.00    +0.000 OA
ATOM      4  C   UNL     1       3.093  16.375  22.206  0.00  0.00    +0.000 A 
ATOM      5  C   UNL     1       2.419  17.083  23.109  0.00  0.00    +0.000 A 
ATOM      6  C   UNL     1       1.002  16.825  23.326  0.00  0.00    +0.000 A 
ATOM      7  C   UNL     1       0.314  17.614  24.235  0.00  0.00    +0.000 A 
ATOM      8  N   UNL     1      -0.999  17.501  24.493  0.00  0.00    +0.000 NA
ATOM      9  C   UNL     1      -1.686  16.558  23.846  0.00  0.00    +0.000 A 
ATOM     10  C   UNL     1      -3.045  16.494  24.128  0.00  0.00    +0.000 A 
ATOM     11  C   UNL     1      -3.898  15.573  23.515  0.00  0.00    +0.000 A 
ATOM     12  C   UNL     1      -3.385  14.645  22.617  0.00  0.00    +0.000 A 
ATOM     13  C   UNL     1      -1.996  14.691  22.387  0.00  0.00    +0.000 A 
ATOM     14  C   UNL     1      -1.104  15.657  22.922  0.00  0.00    +0.000 A 
ATOM     15  C   UNL     1       0.306  15.815  22.632  0.00  0.00    +0.000 A 
ENDROOT
BRANCH   1  24
ATOM     16  C   UNL     1       0.399   9.633  21.412  0.00  0.00    +0.000 C 
ATOM     17  O   UNL     1       0.917  10.055  22.443  0.00  0.00    +0.000 OA
ATOM     18  N   UNL     1      -0.112  10.404  20.384  0.00  0.00    +0.000 N 
ATOM     19  C   UNL     1      -0.781   9.894  19.173  0.00  0.00    +0.000 C 
ATOM     20  C   UNL     1      -0.998  11.073  18.224  0.00  0.00    +0.000 C 
ATOM     21  C   UNL     1      -0.526  12.227  19.047  0.00  0.00    +0.000 A 
ATOM     22  C   UNL     1      -0.510  13.562  18.666  0.00  0.00    +0.000 A 
ATOM     23  C   UNL     1       0.009  14.499  19.560  0.00  0.00    +0.000 A 
ATOM     24  C   UNL     1       0.498  14.091  20.818  0.00  0.00    +0.000 A 
ATOM     25  C   UNL     1       0.514  12.727  21.172  0.00  0.00    +0.000 A 
ATOM     26  C   UNL     1      -0.019  11.808  20.280  0.00  0.00    +0.000 A 
BRANCH  16  28
ATOM     27  C   UNL     1       1.458   7.499  20.825  0.00  0.00    +0.000 C 
ATOM     28  C   UNL     1       0.346   8.162  21.166  0.00  0.00    +0.000 C 
ENDBRANCH  16  28
ENDBRANCH   1  24
BRANCH  12  29
ATOM     29  C   UNL     1      -4.207  13.628  21.931  0.00  0.00    +0.000 A 
ATOM     30  C   UNL     1      -5.347  13.085  22.529  0.00  0.00    +0.000 A 
ATOM     31  N   UNL     1      -6.240  12.256  21.938  0.00  0.00    +0.000 NA
ATOM     32  C   UNL     1      -6.002  11.907  20.669  0.00  0.00    +0.000 A 
ATOM     33  C   UNL     1      -6.927  11.118  20.000  0.00  0.00    +0.000 A 
ATOM     34  C   UNL     1      -6.731  10.732  18.675  0.00  0.00    +0.000 A 
ATOM     35  C   UNL     1      -5.576  11.116  18.004  0.00  0.00    +0.000 A 
ATOM     36  C   UNL     1      -4.631  11.908  18.655  0.00  0.00    +0.000 A 
ATOM     37  C   UNL     1      -4.845  12.325  19.977  0.00  0.00    +0.000 A 
ATOM     38  C   UNL     1      -3.949  13.187  20.631  0.00  0.00    +0.000 A 
ENDBRANCH  12  29
TORSDOF 3
ENDMDL
MODEL 5
REMARK VINA RESULT:      -7.6      2.888      5.498
REMARK  Name = 
REMARK  3 active torsions:
REMARK  status: ('A' for Active; 'I' for Inactive)
REMARK    1  A    between atoms: C_2  and  C_3
REMARK    2  A    between atoms: C_11  and  N_12
REMARK    3  A    between atoms: C_23  and  C_24
REMARK                            x       y       z     vdW  Elec       q    Type
REMARK                         _______ _______ _______ _____ _____    ______ ____
ROOT
ATOM      1  N   UNL     1      -5.216  13.792  21.292  0.00  0.00    +0.000 N 
ATOM      2  C   UNL     1      -6.243  12.932  21.696  0.00  0.00    +0.000 A 
ATOM      3  O   UNL     1      -6.191  11.701  21.685  0.00  0.00    +0.000 OA
ATOM      4  C   UNL     1      -7.485  13.546  22.200  0.00  0.00    +0.000 A 
ATOM      5  C   UNL     1      -7.615  14.866  22.315  0.00  0.00    +0.000 A 
ATOM      6  C   UNL     1      -6.511  15.741  21.943  0.00  0.00    +0.000 A 
ATOM      7  C   UNL     1      -6.656  17.108  22.124  0.00  0.00    +0.000 A 
ATOM      8  N   UNL     1      -5.699  18.011  21.858  0.00  0.00    +0.000 NA
ATOM      9  C   UNL     1      -4.538  17.570  21.370  0.00  0.00    +0.000 A 
ATOM     10  C   UNL     1      -3.570  18.538  21.131  0.00  0.00    +0.000 A 
ATOM     11  C   UNL     1      -2.300  18.227  20.641  0.00  0.00    +0.000 A 
ATOM     12  C   UNL     1      -1.979  16.911  20.331  0.00  0.00    +0.000 A 
ATOM     13  C   UNL     1      -2.992  15.953  20.528  0.00  0.00    +0.000 A 
ATOM     14  C   UNL     1      -4.267  16.207  21.099  0.00  0.00    +0.000 A 
ATOM     15  C   UNL     1      -5.299  15.243  21.423  0.00  0.00    +0.000 A 
ENDROOT
BRANCH   1  24
ATOM     16  C   UNL     1      -3.169  11.177  16.949  0.00  0.00    +0.000 C 
ATOM     17  O   UNL     1      -4.276  11.684  16.792  0.00  0.00    +0.000 OA
ATOM     18  N   UNL     1      -2.367  11.305  18.069  0.00  0.00    +0.000 N 
ATOM     19  C   UNL     1      -1.015  10.738  18.231  0.00  0.00    +0.000 C 
ATOM     20  C   UNL     1      -0.589  10.948  19.685  0.00  0.00    +0.000 C 
ATOM     21  C   UNL     1      -1.724  11.754  20.229  0.00  0.00    +0.000 A 
ATOM     22  C   UNL     1      -1.848  12.234  21.525  0.00  0.00    +0.000 A 
ATOM     23  C   UNL     1      -3.006  12.936  21.862  0.00  0.00    +0.000 A 
ATOM     24  C   UNL     1      -4.016  13.150  20.902  0.00  0.00    +0.000 A 
ATOM     25  C   UNL     1      -3.894  12.618  19.603  0.00  0.00    +0.000 A 
ATOM     26  C   UNL     1      -2.730  11.935  19.277  0.00  0.00    +0.000 A 
BRANCH  16  28
ATOM     27  C   UNL     1      -3.211  10.208  14.695  0.00  0.00    +0.000 C 
ATOM     28  C   UNL     1      -2.615  10.281  15.892  0.00  0.00    +0.000 C 
ENDBRANCH  16  28
ENDBRANCH   1  24
BRANCH  12  29
ATOM     29  C   UNL     1      -0.668  16.491  19.798  0.00  0.00    +0.000 A 
ATOM     30  C   UNL     1       0.437  17.346  19.820  0.00  0.00    +0.000 A 
ATOM     31  N   UNL     1       1.707  17.016  19.485  0.00  0.00    +0.000 NA
ATOM     32  C   UNL     1       1.924  15.760  19.077  0.00  0.00    +0.000 A 
ATOM     33  C   UNL     1       3.222  15.357  18.794  0.00  0.00    +0.000 A 
ATOM     34  C   UNL     1       3.504  14.059  18.372  0.00  0.00    +0.000 A 
ATOM     35  C   UNL     1       2.470  13.144  18.203  0.00  0.00    +0.000 A 
ATOM     36  C   UNL     1       1.159  13.526  18.480  0.00  0.00    +0.000 A 
ATOM     37  C   UNL     1       0.880  14.823  18.937  0.00  0.00    +0.000 A 
ATOM     38  C   UNL     1      -0.421  15.211  19.299  0.00  0.00    +0.000 A 
ENDBRANCH  12  29
TORSDOF 3
ENDMDL
MODEL 6
REMARK VINA RESULT:      -7.6      2.891      5.033
REMARK  Name = 
REMARK  3 active torsions:
REMARK  status: ('A' for Active; 'I' for Inactive)
REMARK    1  A    between atoms: C_2  and  C_3
REMARK    2  A    between atoms: C_11  and  N_12
REMARK    3  A    between atoms: C_23  and  C_24
REMARK                            x       y       z     vdW  Elec       q    Type
REMARK                         _______ _______ _______ _____ _____    ______ ____
ROOT
ATOM      1  N   UNL     1      -4.844  14.025  22.706  0.00  0.00    +0.000 N 
ATOM      2  C   UNL     1      -5.347  13.072  23.598  0.00  0.00    +0.000 A 
ATOM      3  O   UNL     1      -4.783  12.026  23.921  0.00  0.00    +0.000 OA
ATOM      4  C   UNL     1      -6.653  13.352  24.226  0.00  0.00    +0.000 A 
ATOM      5  C   UNL     1      -7.310  14.486  23.994  0.00  0.00    +0.000 A 
ATOM      6  C   UNL     1      -6.740  15.490  23.106  0.00  0.00    +0.000 A 
ATOM      7  C   UNL     1      -7.421  16.683  22.926  0.00  0.00    +0.000 A 
ATOM      8  N   UNL     1      -6.980  17.699  22.167  0.00  0.00    +0.000 NA
ATOM      9  C   UNL     1      -5.819  17.546  21.528  0.00  0.00    +0.000 A 
ATOM     10  C   UNL     1      -5.392  18.631  20.772  0.00  0.00    +0.000 A 
ATOM     11  C   UNL     1      -4.188  18.628  20.065  0.00  0.00    +0.000 A 
ATOM     12  C   UNL     1      -3.387  17.493  20.064  0.00  0.00    +0.000 A 
ATOM     13  C   UNL     1      -3.865  16.384  20.790  0.00  0.00    +0.000 A 
ATOM     14  C   UNL     1      -5.038  16.366  21.589  0.00  0.00    +0.000 A 
ATOM     15  C   UNL     1      -5.513  15.294  22.440  0.00  0.00    +0.000 A 
ENDROOT
BRANCH   1  24
ATOM     16  C   UNL     1      -2.532  11.350  18.535  0.00  0.00    +0.000 C 
ATOM     17  O   UNL     1      -3.758  11.413  18.513  0.00  0.00    +0.000 OA
ATOM     18  N   UNL     1      -1.701  11.980  19.444  0.00  0.00    +0.000 N 
ATOM     19  C   UNL     1      -0.226  11.944  19.435  0.00  0.00    +0.000 C 
ATOM     20  C   UNL     1       0.268  12.599  20.726  0.00  0.00    +0.000 C 
ATOM     21  C   UNL     1      -1.007  13.080  21.339  0.00  0.00    +0.000 A 
ATOM     22  C   UNL     1      -1.139  13.765  22.539  0.00  0.00    +0.000 A 
ATOM     23  C   UNL     1      -2.422  14.099  22.973  0.00  0.00    +0.000 A 
ATOM     24  C   UNL     1      -3.550  13.748  22.203  0.00  0.00    +0.000 A 
ATOM     25  C   UNL     1      -3.402  13.016  21.008  0.00  0.00    +0.000 A 
ATOM     26  C   UNL     1      -2.119  12.704  20.581  0.00  0.00    +0.000 A 
BRANCH  16  28
ATOM     27  C   UNL     1      -2.404  10.179  16.383  0.00  0.00    +0.000 C 
ATOM     28  C   UNL     1      -1.823  10.480  17.551  0.00  0.00    +0.000 C 
ENDBRANCH  16  28
ENDBRANCH   1  24
BRANCH  12  29
ATOM     29  C   UNL     1      -2.106  17.394  19.336  0.00  0.00    +0.000 A 
ATOM     30  C   UNL     1      -1.768  18.299  18.327  0.00  0.00    +0.000 A 
ATOM     31  N   UNL     1      -0.572  18.380  17.697  0.00  0.00    +0.000 NA
ATOM     32  C   UNL     1       0.370  17.502  18.059  0.00  0.00    +0.000 A 
ATOM     33  C   UNL     1       1.634  17.595  17.493  0.00  0.00    +0.000 A 
ATOM     34  C   UNL     1       2.652  16.709  17.839  0.00  0.00    +0.000 A 
ATOM     35  C   UNL     1       2.405  15.690  18.752  0.00  0.00    +0.000 A 
ATOM     36  C   UNL     1       1.144  15.575  19.334  0.00  0.00    +0.000 A 
ATOM     37  C   UNL     1       0.129  16.488  19.009  0.00  0.00    +0.000 A 
ATOM     38  C   UNL     1      -1.127  16.446  19.638  0.00  0.00    +0.000 A 
ENDBRANCH  12  29
TORSDOF 3
ENDMDL
MODEL 7
REMARK VINA RESULT:      -7.5      2.414      6.576
REMARK  Name = 
REMARK  3 active torsions:
REMARK  status: ('A' for Active; 'I' for Inactive)
REMARK    1  A    between atoms: C_2  and  C_3
REMARK    2  A    between atoms: C_11  and  N_12
REMARK    3  A    between atoms: C_23  and  C_24
REMARK                            x       y       z     vdW  Elec       q    Type
REMARK                         _______ _______ _______ _____ _____    ______ ____
ROOT
ATOM      1  N   UNL     1       1.262  15.843  18.941  0.00  0.00    +0.000 N 
ATOM      2  C   UNL     1       2.253  16.813  18.754  0.00  0.00    +0.000 A 
ATOM      3  O   UNL     1       2.146  18.009  19.027  0.00  0.00    +0.000 OA
ATOM      4  C   UNL     1       3.547  16.364  18.205  0.00  0.00    +0.000 A 
ATOM      5  C   UNL     1       3.786  15.081  17.942  0.00  0.00    +0.000 A 
ATOM      6  C   UNL     1       2.759  14.081  18.198  0.00  0.00    +0.000 A 
ATOM      7  C   UNL     1       3.055  12.747  17.964  0.00  0.00    +0.000 A 
ATOM      8  N   UNL     1       2.209  11.732  18.199  0.00  0.00    +0.000 NA
ATOM      9  C   UNL     1       0.996  12.023  18.673  0.00  0.00    +0.000 A 
ATOM     10  C   UNL     1       0.164  10.940  18.922  0.00  0.00    +0.000 A 
ATOM     11  C   UNL     1      -1.126  11.085  19.438  0.00  0.00    +0.000 A 
ATOM     12  C   UNL     1      -1.638  12.354  19.680  0.00  0.00    +0.000 A 
ATOM     13  C   UNL     1      -0.798  13.441  19.368  0.00  0.00    +0.000 A 
ATOM     14  C   UNL     1       0.546  13.343  18.921  0.00  0.00    +0.000 A 
ATOM     15  C   UNL     1       1.484  14.423  18.692  0.00  0.00    +0.000 A 
ENDROOT
BRANCH   1  24
ATOM     16  C   UNL     1      -1.172  15.738  23.836  0.00  0.00    +0.000 C 
ATOM     17  O   UNL     1      -0.041  15.262  23.794  0.00  0.00    +0.000 OA
ATOM     18  N   UNL     1      -1.822  16.385  22.801  0.00  0.00    +0.000 N 
ATOM     19  C   UNL     1      -3.160  17.002  22.873  0.00  0.00    +0.000 C 
ATOM     20  C   UNL     1      -3.563  17.415  21.457  0.00  0.00    +0.000 C 
ATOM     21  C   UNL     1      -2.330  17.097  20.676  0.00  0.00    +0.000 A 
ATOM     22  C   UNL     1      -2.143  17.288  19.314  0.00  0.00    +0.000 A 
ATOM     23  C   UNL     1      -0.931  16.890  18.750  0.00  0.00    +0.000 A 
ATOM     24  C   UNL     1       0.074  16.314  19.552  0.00  0.00    +0.000 A 
ATOM     25  C   UNL     1      -0.147  16.088  20.925  0.00  0.00    +0.000 A 
ATOM     26  C   UNL     1      -1.352  16.502  21.476  0.00  0.00    +0.000 A 
BRANCH  16  28
ATOM     27  C   UNL     1      -1.400  15.634  26.277  0.00  0.00    +0.000 C 
ATOM     28  C   UNL     1      -1.989  15.581  25.075  0.00  0.00    +0.000 C 
ENDBRANCH  16  28
ENDBRANCH   1  24
BRANCH  12  29
ATOM     29  C   UNL     1      -2.992  12.604  20.211  0.00  0.00    +0.000 A 
ATOM     30  C   UNL     1      -4.136  12.252  19.492  0.00  0.00    +0.000 A 
ATOM     31  N   UNL     1      -5.412  12.311  19.942  0.00  0.00    +0.000 NA
ATOM     32  C   UNL     1      -5.599  12.767  21.186  0.00  0.00    +0.000 A 
ATOM     33  C   UNL     1      -6.882  12.777  21.716  0.00  0.00    +0.000 A 
ATOM     34  C   UNL     1      -7.131  13.235  23.008  0.00  0.00    +0.000 A 
ATOM     35  C   UNL     1      -6.086  13.719  23.786  0.00  0.00    +0.000 A 
ATOM     36  C   UNL     1      -4.789  13.721  23.277  0.00  0.00    +0.000 A 
ATOM     37  C   UNL     1      -4.534  13.228  21.988  0.00  0.00    +0.000 A 
ATOM     38  C   UNL     1      -3.227  13.143  21.477  0.00  0.00    +0.000 A 
ENDBRANCH  12  29
TORSDOF 3
ENDMDL
MODEL 8
REMARK VINA RESULT:      -7.3      3.404      4.764
REMARK  Name = 
REMARK  3 active torsions:
REMARK  status: ('A' for Active; 'I' for Inactive)
REMARK    1  A    between atoms: C_2  and  C_3
REMARK    2  A    between atoms: C_11  and  N_12
REMARK    3  A    between atoms: C_23  and  C_24
REMARK                            x       y       z     vdW  Elec       q    Type
REMARK                         _______ _______ _______ _____ _____    ______ ____
ROOT
ATOM      1  N   UNL     1      -1.211  16.395  21.464  0.00  0.00    +0.000 N 
ATOM      2  C   UNL     1      -1.316  17.762  21.185  0.00  0.00    +0.000 A 
ATOM      3  O   UNL     1      -0.662  18.373  20.338  0.00  0.00    +0.000 OA
ATOM      4  C   UNL     1      -2.310  18.537  21.951  0.00  0.00    +0.000 A 
ATOM      5  C   UNL     1      -3.113  17.957  22.840  0.00  0.00    +0.000 A 
ATOM      6  C   UNL     1      -3.025  16.522  23.074  0.00  0.00    +0.000 A 
ATOM      7  C   UNL     1      -3.910  15.938  23.967  0.00  0.00    +0.000 A 
ATOM      8  N   UNL     1      -3.955  14.623  24.236  0.00  0.00    +0.000 NA
ATOM      9  C   UNL     1      -3.081  13.826  23.618  0.00  0.00    +0.000 A 
ATOM     10  C   UNL     1      -3.180  12.472  23.910  0.00  0.00    +0.000 A 
ATOM     11  C   UNL     1      -2.348  11.513  23.327  0.00  0.00    +0.000 A 
ATOM     12  C   UNL     1      -1.346  11.908  22.449  0.00  0.00    +0.000 A 
ATOM     13  C   UNL     1      -1.226  13.291  22.209  0.00  0.00    +0.000 A 
ATOM     14  C   UNL     1      -2.097  14.292  22.713  0.00  0.00    +0.000 A 
ATOM     15  C   UNL     1      -2.085  15.709  22.410  0.00  0.00    +0.000 A 
ENDROOT
BRANCH   1  24
ATOM     16  C   UNL     1       4.171  15.524  21.051  0.00  0.00    +0.000 C 
ATOM     17  O   UNL     1       3.809  16.159  22.037  0.00  0.00    +0.000 OA
ATOM     18  N   UNL     1       3.342  14.928  20.118  0.00  0.00    +0.000 N 
ATOM     19  C   UNL     1       3.781  14.120  18.964  0.00  0.00    +0.000 C 
ATOM     20  C   UNL     1       2.555  13.837  18.095  0.00  0.00    +0.000 C 
ATOM     21  C   UNL     1       1.452  14.426  18.911  0.00  0.00    +0.000 A 
ATOM     22  C   UNL     1       0.102  14.439  18.588  0.00  0.00    +0.000 A 
ATOM     23  C   UNL     1      -0.781  15.076  19.460  0.00  0.00    +0.000 A 
ATOM     24  C   UNL     1      -0.306  15.685  20.639  0.00  0.00    +0.000 A 
ATOM     25  C   UNL     1       1.073  15.700  20.932  0.00  0.00    +0.000 A 
ATOM     26  C   UNL     1       1.938  15.049  20.063  0.00  0.00    +0.000 A 
BRANCH  16  28
ATOM     27  C   UNL     1       6.429  14.722  21.578  0.00  0.00    +0.000 C 
ATOM     28  C   UNL     1       5.627  15.402  20.749  0.00  0.00    +0.000 C 
ENDBRANCH  16  28
ENDBRANCH   1  24
BRANCH  12  29
ATOM     29  C   UNL     1      -0.413  10.968  21.795  0.00  0.00    +0.000 A 
ATOM     30  C   UNL     1       0.047   9.822  22.449  0.00  0.00    +0.000 A 
ATOM     31  N   UNL     1       0.789   8.833  21.896  0.00  0.00    +0.000 NA
ATOM     32  C   UNL     1       1.130   8.971  20.610  0.00  0.00    +0.000 A 
ATOM     33  C   UNL     1       1.827   7.948  19.982  0.00  0.00    +0.000 A 
ATOM     34  C   UNL     1       2.201   8.039  18.643  0.00  0.00    +0.000 A 
ATOM     35  C   UNL     1       1.898   9.183  17.914  0.00  0.00    +0.000 A 
ATOM     36  C   UNL     1       1.200  10.224  18.522  0.00  0.00    +0.000 A 
ATOM     37  C   UNL     1       0.794  10.118  19.861  0.00  0.00    +0.000 A 
ATOM     38  C   UNL     1       0.021  11.117  20.477  0.00  0.00    +0.000 A 
ENDBRANCH  12  29
TORSDOF 3
ENDMDL
MODEL 9
REMARK VINA RESULT:      -7.3      2.931      5.641
REMARK  Name = 
REMARK  3 active torsions:
REMARK  status: ('A' for Active; 'I' for Inactive)
REMARK    1  A    between atoms: C_2  and  C_3
REMARK    2  A    between atoms: C_11  and  N_12
REMARK    3  A    between atoms: C_23  and  C_24
REMARK                            x       y       z     vdW  Elec       q    Type
REMARK                         _______ _______ _______ _____ _____    ______ ____
ROOT
ATOM      1  N   UNL     1      -5.326  13.828  21.430  0.00  0.00    +0.000 N 
ATOM      2  C   UNL     1      -6.347  12.959  21.831  0.00  0.00    +0.000 A 
ATOM      3  O   UNL     1      -6.276  11.730  21.844  0.00  0.00    +0.000 OA
ATOM      4  C   UNL     1      -7.608  13.564  22.300  0.00  0.00    +0.000 A 
ATOM      5  C   UNL     1      -7.760  14.883  22.388  0.00  0.00    +0.000 A 
ATOM      6  C   UNL     1      -6.663  15.768  22.019  0.00  0.00    +0.000 A 
ATOM      7  C   UNL     1      -6.832  17.136  22.171  0.00  0.00    +0.000 A 
ATOM      8  N   UNL     1      -5.884  18.049  21.905  0.00  0.00    +0.000 NA
ATOM      9  C   UNL     1      -4.708  17.617  21.448  0.00  0.00    +0.000 A 
ATOM     10  C   UNL     1      -3.751  18.595  21.208  0.00  0.00    +0.000 A 
ATOM     11  C   UNL     1      -2.467  18.295  20.747  0.00  0.00    +0.000 A 
ATOM     12  C   UNL     1      -2.121  16.979  20.468  0.00  0.00    +0.000 A 
ATOM     13  C   UNL     1      -3.122  16.008  20.665  0.00  0.00    +0.000 A 
ATOM     14  C   UNL     1      -4.411  16.253  21.207  0.00  0.00    +0.000 A 
ATOM     15  C   UNL     1      -5.434  15.280  21.531  0.00  0.00    +0.000 A 
ENDROOT
BRANCH   1  24
ATOM     16  C   UNL     1      -3.130  11.236  17.146  0.00  0.00    +0.000 C 
ATOM     17  O   UNL     1      -4.237  11.733  16.957  0.00  0.00    +0.000 OA
ATOM     18  N   UNL     1      -2.362  11.371  18.288  0.00  0.00    +0.000 N 
ATOM     19  C   UNL     1      -1.009  10.816  18.489  0.00  0.00    +0.000 C 
ATOM     20  C   UNL     1      -0.628  11.030  19.955  0.00  0.00    +0.000 C 
ATOM     21  C   UNL     1      -1.785  11.824  20.466  0.00  0.00    +0.000 A 
ATOM     22  C   UNL     1      -1.952  12.302  21.758  0.00  0.00    +0.000 A 
ATOM     23  C   UNL     1      -3.125  12.992  22.062  0.00  0.00    +0.000 A 
ATOM     24  C   UNL     1      -4.109  13.197  21.074  0.00  0.00    +0.000 A 
ATOM     25  C   UNL     1      -3.945  12.669  19.778  0.00  0.00    +0.000 A 
ATOM     26  C   UNL     1      -2.766  11.997  19.486  0.00  0.00    +0.000 A 
BRANCH  16  28
ATOM     27  C   UNL     1      -3.074  10.300  14.878  0.00  0.00    +0.000 C 
ATOM     28  C   UNL     1      -2.536  10.347  16.104  0.00  0.00    +0.000 C 
ENDBRANCH  16  28
ENDBRANCH   1  24
BRANCH  12  29
ATOM     29  C   UNL     1      -0.793  16.570  19.967  0.00  0.00    +0.000 A 
ATOM     30  C   UNL     1      -0.198  15.372  20.370  0.00  0.00    +0.000 A 
ATOM     31  N   UNL     1       0.944  14.842  19.871  0.00  0.00    +0.000 NA
ATOM     32  C   UNL     1       1.573  15.536  18.916  0.00  0.00    +0.000 A 
ATOM     33  C   UNL     1       2.706  14.996  18.324  0.00  0.00    +0.000 A 
ATOM     34  C   UNL     1       3.396  15.675  17.321  0.00  0.00    +0.000 A 
ATOM     35  C   UNL     1       2.965  16.931  16.911  0.00  0.00    +0.000 A 
ATOM     36  C   UNL     1       1.830  17.495  17.491  0.00  0.00    +0.000 A 
ATOM     37  C   UNL     1       1.117  16.796  18.477  0.00  0.00    +0.000 A 
ATOM     38  C   UNL     1      -0.074  17.304  19.023  0.00  0.00    +0.000 A 
ENDBRANCH  12  29
TORSDOF 3
ENDMDL
