MODEL 1
REMARK VINA RESULT:      -6.3      0.000      0.000
REMARK  Name = 
REMARK  19 active torsions:
REMARK  status: ('A' for Active; 'I' for Inactive)
REMARK    1  A    between atoms: C_1  and  C_2
REMARK    2  A    between atoms: C_2  and  C_3
REMARK    3  A    between atoms: C_3  and  C_4
REMARK    4  A    between atoms: C_4  and  C_5
REMARK    5  A    between atoms: C_5  and  C_6
REMARK    6  A    between atoms: C_6  and  O_7
REMARK    7  A    between atoms: C_6  and  C_8
REMARK    8  A    between atoms: C_9  and  C_10
REMARK    9  A    between atoms: C_10  and  N_11
REMARK   10  A    between atoms: N_11  and  C_12
REMARK   11  A    between atoms: N_11  and  S_21
REMARK   12  A    between atoms: C_12  and  C_13
REMARK   13  A    between atoms: C_13  and  C_14
REMARK   14  A    between atoms: C_14  and  C_15
REMARK   15  A    between atoms: C_15  and  C_16
REMARK   16  A    between atoms: C_16  and  C_17
REMARK   17  A    between atoms: C_17  and  C_18
REMARK   18  A    between atoms: C_18  and  O_20
REMARK   19  A    between atoms: S_21  and  C_22
REMARK                            x       y       z     vdW  Elec       q    Type
REMARK                         _______ _______ _______ _____ _____    ______ ____
ROOT
ATOM      1  N   UNL     1       5.745   4.918  17.811  0.00  0.00    +0.000 NA
ENDROOT
BRANCH   1   2
ATOM      2  S   UNL     1       7.416   5.359  17.671  0.00  0.00    +0.000 S 
ATOM      3  C   UNL     1       7.863   5.786  19.340  0.00  0.00    +0.000 C 
ATOM      4  O   UNL     1       8.166   4.176  17.316  0.00  0.00    +0.000 OA
ATOM      5  O   UNL     1       7.474   6.552  16.849  0.00  0.00    +0.000 OA
ENDBRANCH   1   2
BRANCH   1   6
ATOM      6  C   UNL     1       5.356   4.036  16.644  0.00  0.00    +0.000 C 
BRANCH   6   7
ATOM      7  C   UNL     1       4.917   4.813  15.406  0.00  0.00    +0.000 C 
BRANCH   7   8
ATOM      8  C   UNL     1       5.092   4.060  14.086  0.00  0.00    +0.000 C 
BRANCH   8   9
ATOM      9  C   UNL     1       6.515   4.018  13.535  0.00  0.00    +0.000 C 
BRANCH   9  10
ATOM     10  C   UNL     1       6.622   3.635  12.057  0.00  0.00    +0.000 C 
BRANCH  10  11
ATOM     11  C   UNL     1       5.643   2.539  11.660  0.00  0.00    +0.000 C 
BRANCH  11  12
ATOM     12  C   UNL     1       6.382   1.283  11.279  0.00  0.00    +0.000 C 
ATOM     13  O   UNL     1       5.852   0.195  11.134  0.00  0.00    +0.000 OA
BRANCH  12  14
ATOM     14  O   UNL     1       7.706   1.487  11.076  0.00  0.00    +0.000 OA
ATOM     15  H   UNL     1       8.181   0.706  10.737  0.00  0.00    +0.000 HD
ENDBRANCH  12  14
ENDBRANCH  11  12
ENDBRANCH  10  11
ENDBRANCH   9  10
ENDBRANCH   8   9
ENDBRANCH   7   8
ENDBRANCH   6   7
ENDBRANCH   1   6
BRANCH   1  16
ATOM     16  C   UNL     1       4.879   6.130  17.977  0.00  0.00    +0.000 C 
BRANCH  16  18
ATOM     17  C   UNL     1       2.771   5.583  19.517  0.00  0.00    +0.000 C 
ATOM     18  C   UNL     1       3.660   5.863  18.759  0.00  0.00    +0.000 C 
BRANCH  17  19
ATOM     19  C   UNL     1       1.837   5.193  20.586  0.00  0.00    +0.000 C 
BRANCH  19  20
ATOM     20  O   UNL     1       2.595   4.744  21.708  0.00  0.00    +0.000 OA
ATOM     21  H   UNL     1       2.017   4.148  22.219  0.00  0.00    +0.000 HD
ENDBRANCH  19  20
BRANCH  19  22
ATOM     22  C   UNL     1       0.915   4.071  20.098  0.00  0.00    +0.000 C 
BRANCH  22  23
ATOM     23  C   UNL     1       1.537   2.683  20.264  0.00  0.00    +0.000 C 
BRANCH  23  24
ATOM     24  C   UNL     1       1.669   1.984  18.910  0.00  0.00    +0.000 C 
BRANCH  24  26
ATOM     25  C   UNL     1       4.062   2.158  19.658  0.00  0.00    +0.000 C 
ATOM     26  C   UNL     1       3.132   1.826  18.503  0.00  0.00    +0.000 C 
ENDBRANCH  24  26
ENDBRANCH  23  24
ENDBRANCH  22  23
ENDBRANCH  19  22
ENDBRANCH  17  19
ENDBRANCH  16  18
ENDBRANCH   1  16
TORSDOF 17
ENDMDL
MODEL 2
REMARK VINA RESULT:      -6.2      3.289      6.708
REMARK  Name = 
REMARK  19 active torsions:
REMARK  status: ('A' for Active; 'I' for Inactive)
REMARK    1  A    between atoms: C_1  and  C_2
REMARK    2  A    between atoms: C_2  and  C_3
REMARK    3  A    between atoms: C_3  and  C_4
REMARK    4  A    between atoms: C_4  and  C_5
REMARK    5  A    between atoms: C_5  and  C_6
REMARK    6  A    between atoms: C_6  and  O_7
REMARK    7  A    between atoms: C_6  and  C_8
REMARK    8  A    between atoms: C_9  and  C_10
REMARK    9  A    between atoms: C_10  and  N_11
REMARK   10  A    between atoms: N_11  and  C_12
REMARK   11  A    between atoms: N_11  and  S_21
REMARK   12  A    between atoms: C_12  and  C_13
REMARK   13  A    between atoms: C_13  and  C_14
REMARK   14  A    between atoms: C_14  and  C_15
REMARK   15  A    between atoms: C_15  and  C_16
REMARK   16  A    between atoms: C_16  and  C_17
REMARK   17  A    between atoms: C_17  and  C_18
REMARK   18  A    between atoms: C_18  and  O_20
REMARK   19  A    between atoms: S_21  and  C_22
REMARK                            x       y       z     vdW  Elec       q    Type
REMARK                         _______ _______ _______ _____ _____    ______ ____
ROOT
ATOM      1  N   UNL     1       5.440   5.586  17.612  0.00  0.00    +0.000 NA
ENDROOT
BRANCH   1   2
ATOM      2  S   UNL     1       7.142   5.561  17.287  0.00  0.00    +0.000 S 
ATOM      3  C   UNL     1       7.719   7.071  18.034  0.00  0.00    +0.000 C 
ATOM      4  O   UNL     1       7.727   4.467  18.029  0.00  0.00    +0.000 OA
ATOM      5  O   UNL     1       7.303   5.657  15.850  0.00  0.00    +0.000 OA
ENDBRANCH   1   2
BRANCH   1   6
ATOM      6  C   UNL     1       4.821   4.279  17.165  0.00  0.00    +0.000 C 
BRANCH   6   7
ATOM      7  C   UNL     1       4.265   3.438  18.313  0.00  0.00    +0.000 C 
BRANCH   7   8
ATOM      8  C   UNL     1       3.354   2.289  17.878  0.00  0.00    +0.000 C 
BRANCH   8   9
ATOM      9  C   UNL     1       1.919   2.355  18.394  0.00  0.00    +0.000 C 
BRANCH   9  10
ATOM     10  C   UNL     1       1.441   3.754  18.789  0.00  0.00    +0.000 C 
BRANCH  10  11
ATOM     11  C   UNL     1       0.887   3.809  20.206  0.00  0.00    +0.000 C 
BRANCH  11  12
ATOM     12  C   UNL     1       1.999   4.016  21.200  0.00  0.00    +0.000 C 
ATOM     13  O   UNL     1       2.305   3.211  22.062  0.00  0.00    +0.000 OA
BRANCH  12  14
ATOM     14  O   UNL     1       2.660   5.186  21.022  0.00  0.00    +0.000 OA
ATOM     15  H   UNL     1       3.288   5.401  21.737  0.00  0.00    +0.000 HD
ENDBRANCH  12  14
ENDBRANCH  11  12
ENDBRANCH  10  11
ENDBRANCH   9  10
ENDBRANCH   8   9
ENDBRANCH   7   8
ENDBRANCH   6   7
ENDBRANCH   1   6
BRANCH   1  16
ATOM     16  C   UNL     1       4.794   6.802  17.020  0.00  0.00    +0.000 C 
BRANCH  16  18
ATOM     17  C   UNL     1       2.688   7.792  18.322  0.00  0.00    +0.000 C 
ATOM     18  C   UNL     1       3.629   7.269  17.791  0.00  0.00    +0.000 C 
BRANCH  17  19
ATOM     19  C   UNL     1       1.551   8.583  18.822  0.00  0.00    +0.000 C 
BRANCH  19  20
ATOM     20  O   UNL     1       1.750   9.946  18.452  0.00  0.00    +0.000 OA
ATOM     21  H   UNL     1       2.334   9.944  17.672  0.00  0.00    +0.000 HD
ENDBRANCH  19  20
BRANCH  19  22
ATOM     22  C   UNL     1       1.456   8.465  20.347  0.00  0.00    +0.000 C 
BRANCH  22  23
ATOM     23  C   UNL     1       0.439   9.436  20.951  0.00  0.00    +0.000 C 
BRANCH  23  24
ATOM     24  C   UNL     1       0.303   9.209  22.457  0.00  0.00    +0.000 C 
BRANCH  24  26
ATOM     25  C   UNL     1      -0.705  11.511  22.432  0.00  0.00    +0.000 C 
ATOM     26  C   UNL     1      -0.746  10.132  23.070  0.00  0.00    +0.000 C 
ENDBRANCH  24  26
ENDBRANCH  23  24
ENDBRANCH  22  23
ENDBRANCH  19  22
ENDBRANCH  17  19
ENDBRANCH  16  18
ENDBRANCH   1  16
TORSDOF 17
ENDMDL
MODEL 3
REMARK VINA RESULT:      -6.1      3.101      6.453
REMARK  Name = 
REMARK  19 active torsions:
REMARK  status: ('A' for Active; 'I' for Inactive)
REMARK    1  A    between atoms: C_1  and  C_2
REMARK    2  A    between atoms: C_2  and  C_3
REMARK    3  A    between atoms: C_3  and  C_4
REMARK    4  A    between atoms: C_4  and  C_5
REMARK    5  A    between atoms: C_5  and  C_6
REMARK    6  A    between atoms: C_6  and  O_7
REMARK    7  A    between atoms: C_6  and  C_8
REMARK    8  A    between atoms: C_9  and  C_10
REMARK    9  A    between atoms: C_10  and  N_11
REMARK   10  A    between atoms: N_11  and  C_12
REMARK   11  A    between atoms: N_11  and  S_21
REMARK   12  A    between atoms: C_12  and  C_13
REMARK   13  A    between atoms: C_13  and  C_14
REMARK   14  A    between atoms: C_14  and  C_15
REMARK   15  A    between atoms: C_15  and  C_16
REMARK   16  A    between atoms: C_16  and  C_17
REMARK   17  A    between atoms: C_17  and  C_18
REMARK   18  A    between atoms: C_18  and  O_20
REMARK   19  A    between atoms: S_21  and  C_22
REMARK                            x       y       z     vdW  Elec       q    Type
REMARK                         _______ _______ _______ _____ _____    ______ ____
ROOT
ATOM      1  N   UNL     1       5.600   5.469  17.336  0.00  0.00    +0.000 NA
ENDROOT
BRANCH   1   2
ATOM      2  S   UNL     1       7.193   5.287  17.996  0.00  0.00    +0.000 S 
ATOM      3  C   UNL     1       7.799   6.959  18.059  0.00  0.00    +0.000 C 
ATOM      4  O   UNL     1       7.065   4.827  19.360  0.00  0.00    +0.000 OA
ATOM      5  O   UNL     1       7.972   4.541  17.028  0.00  0.00    +0.000 OA
ENDBRANCH   1   2
BRANCH   1   6
ATOM      6  C   UNL     1       5.416   4.503  16.186  0.00  0.00    +0.000 C 
BRANCH   6   7
ATOM      7  C   UNL     1       4.568   3.283  16.537  0.00  0.00    +0.000 C 
BRANCH   7   8
ATOM      8  C   UNL     1       3.672   3.461  17.764  0.00  0.00    +0.000 C 
BRANCH   8   9
ATOM      9  C   UNL     1       2.344   4.172  17.512  0.00  0.00    +0.000 C 
BRANCH   9  10
ATOM     10  C   UNL     1       1.325   4.050  18.647  0.00  0.00    +0.000 C 
BRANCH  10  11
ATOM     11  C   UNL     1       1.911   4.405  20.006  0.00  0.00    +0.000 C 
BRANCH  11  12
ATOM     12  C   UNL     1       1.854   3.219  20.932  0.00  0.00    +0.000 C 
ATOM     13  O   UNL     1       1.512   2.100  20.591  0.00  0.00    +0.000 OA
BRANCH  12  14
ATOM     14  O   UNL     1       2.259   3.509  22.193  0.00  0.00    +0.000 OA
ATOM     15  H   UNL     1       3.100   3.084  22.448  0.00  0.00    +0.000 HD
ENDBRANCH  12  14
ENDBRANCH  11  12
ENDBRANCH  10  11
ENDBRANCH   9  10
ENDBRANCH   8   9
ENDBRANCH   7   8
ENDBRANCH   6   7
ENDBRANCH   1   6
BRANCH   1  16
ATOM     16  C   UNL     1       5.321   6.899  16.985  0.00  0.00    +0.000 C 
BRANCH  16  18
ATOM     17  C   UNL     1       2.964   7.882  17.757  0.00  0.00    +0.000 C 
ATOM     18  C   UNL     1       4.008   7.364  17.465  0.00  0.00    +0.000 C 
BRANCH  17  19
ATOM     19  C   UNL     1       1.733   8.661  17.965  0.00  0.00    +0.000 C 
BRANCH  19  20
ATOM     20  O   UNL     1       1.908   9.950  17.379  0.00  0.00    +0.000 OA
ATOM     21  H   UNL     1       2.773  10.281  17.680  0.00  0.00    +0.000 HD
ENDBRANCH  19  20
BRANCH  19  22
ATOM     22  C   UNL     1       1.445   8.805  19.463  0.00  0.00    +0.000 C 
BRANCH  22  23
ATOM     23  C   UNL     1       0.830  10.160  19.818  0.00  0.00    +0.000 C 
BRANCH  23  24
ATOM     24  C   UNL     1      -0.392   9.980  20.719  0.00  0.00    +0.000 C 
BRANCH  24  26
ATOM     25  C   UNL     1      -0.123   9.531  23.178  0.00  0.00    +0.000 C 
ATOM     26  C   UNL     1      -0.146   8.918  21.788  0.00  0.00    +0.000 C 
ENDBRANCH  24  26
ENDBRANCH  23  24
ENDBRANCH  22  23
ENDBRANCH  19  22
ENDBRANCH  17  19
ENDBRANCH  16  18
ENDBRANCH   1  16
TORSDOF 17
ENDMDL
MODEL 4
REMARK VINA RESULT:      -6.1      3.417      6.968
REMARK  Name = 
REMARK  19 active torsions:
REMARK  status: ('A' for Active; 'I' for Inactive)
REMARK    1  A    between atoms: C_1  and  C_2
REMARK    2  A    between atoms: C_2  and  C_3
REMARK    3  A    between atoms: C_3  and  C_4
REMARK    4  A    between atoms: C_4  and  C_5
REMARK    5  A    between atoms: C_5  and  C_6
REMARK    6  A    between atoms: C_6  and  O_7
REMARK    7  A    between atoms: C_6  and  C_8
REMARK    8  A    between atoms: C_9  and  C_10
REMARK    9  A    between atoms: C_10  and  N_11
REMARK   10  A    between atoms: N_11  and  C_12
REMARK   11  A    between atoms: N_11  and  S_21
REMARK   12  A    between atoms: C_12  and  C_13
REMARK   13  A    between atoms: C_13  and  C_14
REMARK   14  A    between atoms: C_14  and  C_15
REMARK   15  A    between atoms: C_15  and  C_16
REMARK   16  A    between atoms: C_16  and  C_17
REMARK   17  A    between atoms: C_17  and  C_18
REMARK   18  A    between atoms: C_18  and  O_20
REMARK   19  A    between atoms: S_21  and  C_22
REMARK                            x       y       z     vdW  Elec       q    Type
REMARK                         _______ _______ _______ _____ _____    ______ ____
ROOT
ATOM      1  N   UNL     1       5.541   5.548  17.649  0.00  0.00    +0.000 NA
ENDROOT
BRANCH   1   2
ATOM      2  S   UNL     1       7.128   5.460  18.341  0.00  0.00    +0.000 S 
ATOM      3  C   UNL     1       7.780   7.094  18.069  0.00  0.00    +0.000 C 
ATOM      4  O   UNL     1       6.988   5.288  19.770  0.00  0.00    +0.000 OA
ATOM      5  O   UNL     1       7.887   4.513  17.547  0.00  0.00    +0.000 OA
ENDBRANCH   1   2
BRANCH   1   6
ATOM      6  C   UNL     1       5.384   4.463  16.606  0.00  0.00    +0.000 C 
BRANCH   6   7
ATOM      7  C   UNL     1       4.321   3.424  16.955  0.00  0.00    +0.000 C 
BRANCH   7   8
ATOM      8  C   UNL     1       3.445   3.787  18.156  0.00  0.00    +0.000 C 
BRANCH   8   9
ATOM      9  C   UNL     1       1.948   3.550  17.976  0.00  0.00    +0.000 C 
BRANCH   9  10
ATOM     10  C   UNL     1       1.268   2.818  19.134  0.00  0.00    +0.000 C 
BRANCH  10  11
ATOM     11  C   UNL     1       0.821   3.759  20.245  0.00  0.00    +0.000 C 
BRANCH  11  12
ATOM     12  C   UNL     1       1.886   3.871  21.303  0.00  0.00    +0.000 C 
ATOM     13  O   UNL     1       2.216   2.960  22.042  0.00  0.00    +0.000 OA
BRANCH  12  14
ATOM     14  O   UNL     1       2.477   5.091  21.335  0.00  0.00    +0.000 OA
ATOM     15  H   UNL     1       2.346   5.617  20.524  0.00  0.00    +0.000 HD
ENDBRANCH  12  14
ENDBRANCH  11  12
ENDBRANCH  10  11
ENDBRANCH   9  10
ENDBRANCH   8   9
ENDBRANCH   7   8
ENDBRANCH   6   7
ENDBRANCH   1   6
BRANCH   1  16
ATOM     16  C   UNL     1       5.247   6.928  17.145  0.00  0.00    +0.000 C 
BRANCH  16  18
ATOM     17  C   UNL     1       2.851   7.930  17.752  0.00  0.00    +0.000 C 
ATOM     18  C   UNL     1       3.893   7.393  17.494  0.00  0.00    +0.000 C 
BRANCH  17  19
ATOM     19  C   UNL     1       1.669   8.770  18.005  0.00  0.00    +0.000 C 
BRANCH  19  20
ATOM     20  O   UNL     1       1.873  10.038  17.386  0.00  0.00    +0.000 OA
ATOM     21  H   UNL     1       2.092  10.667  18.098  0.00  0.00    +0.000 HD
ENDBRANCH  19  20
BRANCH  19  22
ATOM     22  C   UNL     1       1.464   8.953  19.513  0.00  0.00    +0.000 C 
BRANCH  22  23
ATOM     23  C   UNL     1       0.216   9.774  19.843  0.00  0.00    +0.000 C 
BRANCH  23  24
ATOM     24  C   UNL     1       0.595  11.062  20.575  0.00  0.00    +0.000 C 
BRANCH  24  26
ATOM     25  C   UNL     1      -1.341  11.937  19.232  0.00  0.00    +0.000 C 
ATOM     26  C   UNL     1      -0.525  12.096  20.504  0.00  0.00    +0.000 C 
ENDBRANCH  24  26
ENDBRANCH  23  24
ENDBRANCH  22  23
ENDBRANCH  19  22
ENDBRANCH  17  19
ENDBRANCH  16  18
ENDBRANCH   1  16
TORSDOF 17
ENDMDL
MODEL 5
REMARK VINA RESULT:      -6.0      3.675      6.983
REMARK  Name = 
REMARK  19 active torsions:
REMARK  status: ('A' for Active; 'I' for Inactive)
REMARK    1  A    between atoms: C_1  and  C_2
REMARK    2  A    between atoms: C_2  and  C_3
REMARK    3  A    between atoms: C_3  and  C_4
REMARK    4  A    between atoms: C_4  and  C_5
REMARK    5  A    between atoms: C_5  and  C_6
REMARK    6  A    between atoms: C_6  and  O_7
REMARK    7  A    between atoms: C_6  and  C_8
REMARK    8  A    between atoms: C_9  and  C_10
REMARK    9  A    between atoms: C_10  and  N_11
REMARK   10  A    between atoms: N_11  and  C_12
REMARK   11  A    between atoms: N_11  and  S_21
REMARK   12  A    between atoms: C_12  and  C_13
REMARK   13  A    between atoms: C_13  and  C_14
REMARK   14  A    between atoms: C_14  and  C_15
REMARK   15  A    between atoms: C_15  and  C_16
REMARK   16  A    between atoms: C_16  and  C_17
REMARK   17  A    between atoms: C_17  and  C_18
REMARK   18  A    between atoms: C_18  and  O_20
REMARK   19  A    between atoms: S_21  and  C_22
REMARK                            x       y       z     vdW  Elec       q    Type
REMARK                         _______ _______ _______ _____ _____    ______ ____
ROOT
ATOM      1  N   UNL     1       5.432   6.002  16.903  0.00  0.00    +0.000 NA
ENDROOT
BRANCH   1   2
ATOM      2  S   UNL     1       6.908   5.829  17.797  0.00  0.00    +0.000 S 
ATOM      3  C   UNL     1       7.662   7.435  17.649  0.00  0.00    +0.000 C 
ATOM      4  O   UNL     1       6.571   5.642  19.190  0.00  0.00    +0.000 OA
ATOM      5  O   UNL     1       7.722   4.860  17.090  0.00  0.00    +0.000 OA
ENDBRANCH   1   2
BRANCH   1   6
ATOM      6  C   UNL     1       4.298   6.315  17.855  0.00  0.00    +0.000 C 
BRANCH   6   7
ATOM      7  C   UNL     1       3.637   7.667  17.599  0.00  0.00    +0.000 C 
BRANCH   7   8
ATOM      8  C   UNL     1       2.264   7.839  18.253  0.00  0.00    +0.000 C 
BRANCH   8   9
ATOM      9  C   UNL     1       1.385   8.937  17.661  0.00  0.00    +0.000 C 
BRANCH   9  10
ATOM     10  C   UNL     1       1.460  10.282  18.387  0.00  0.00    +0.000 C 
BRANCH  10  11
ATOM     11  C   UNL     1       0.245  10.547  19.265  0.00  0.00    +0.000 C 
BRANCH  11  12
ATOM     12  C   UNL     1      -0.947  10.913  18.421  0.00  0.00    +0.000 C 
ATOM     13  O   UNL     1      -1.940  10.217  18.301  0.00  0.00    +0.000 OA
BRANCH  12  14
ATOM     14  O   UNL     1      -0.825  12.124  17.826  0.00  0.00    +0.000 OA
ATOM     15  H   UNL     1       0.005  12.242  17.329  0.00  0.00    +0.000 HD
ENDBRANCH  12  14
ENDBRANCH  11  12
ENDBRANCH  10  11
ENDBRANCH   9  10
ENDBRANCH   8   9
ENDBRANCH   7   8
ENDBRANCH   6   7
ENDBRANCH   1   6
BRANCH   1  16
ATOM     16  C   UNL     1       5.187   4.810  16.029  0.00  0.00    +0.000 C 
BRANCH  16  18
ATOM     17  C   UNL     1       4.160   2.831  17.494  0.00  0.00    +0.000 C 
ATOM     18  C   UNL     1       4.638   3.658  16.766  0.00  0.00    +0.000 C 
BRANCH  17  19
ATOM     19  C   UNL     1       3.524   1.982  18.514  0.00  0.00    +0.000 C 
BRANCH  19  20
ATOM     20  O   UNL     1       4.007   0.649  18.359  0.00  0.00    +0.000 OA
ATOM     21  H   UNL     1       4.062   0.479  17.401  0.00  0.00    +0.000 HD
ENDBRANCH  19  20
BRANCH  19  22
ATOM     22  C   UNL     1       2.001   2.007  18.346  0.00  0.00    +0.000 C 
BRANCH  22  23
ATOM     23  C   UNL     1       1.412   3.410  18.510  0.00  0.00    +0.000 C 
BRANCH  23  24
ATOM     24  C   UNL     1       0.666   3.530  19.839  0.00  0.00    +0.000 C 
BRANCH  24  26
ATOM     25  C   UNL     1       2.359   5.091  20.845  0.00  0.00    +0.000 C 
ATOM     26  C   UNL     1       1.627   3.769  21.001  0.00  0.00    +0.000 C 
ENDBRANCH  24  26
ENDBRANCH  23  24
ENDBRANCH  22  23
ENDBRANCH  19  22
ENDBRANCH  17  19
ENDBRANCH  16  18
ENDBRANCH   1  16
TORSDOF 17
ENDMDL
MODEL 6
REMARK VINA RESULT:      -5.9      2.259      7.446
REMARK  Name = 
REMARK  19 active torsions:
REMARK  status: ('A' for Active; 'I' for Inactive)
REMARK    1  A    between atoms: C_1  and  C_2
REMARK    2  A    between atoms: C_2  and  C_3
REMARK    3  A    between atoms: C_3  and  C_4
REMARK    4  A    between atoms: C_4  and  C_5
REMARK    5  A    between atoms: C_5  and  C_6
REMARK    6  A    between atoms: C_6  and  O_7
REMARK    7  A    between atoms: C_6  and  C_8
REMARK    8  A    between atoms: C_9  and  C_10
REMARK    9  A    between atoms: C_10  and  N_11
REMARK   10  A    between atoms: N_11  and  C_12
REMARK   11  A    between atoms: N_11  and  S_21
REMARK   12  A    between atoms: C_12  and  C_13
REMARK   13  A    between atoms: C_13  and  C_14
REMARK   14  A    between atoms: C_14  and  C_15
REMARK   15  A    between atoms: C_15  and  C_16
REMARK   16  A    between atoms: C_16  and  C_17
REMARK   17  A    between atoms: C_17  and  C_18
REMARK   18  A    between atoms: C_18  and  O_20
REMARK   19  A    between atoms: S_21  and  C_22
REMARK                            x       y       z     vdW  Elec       q    Type
REMARK                         _______ _______ _______ _____ _____    ______ ____
ROOT
ATOM      1  N   UNL     1       4.988   5.247  17.622  0.00  0.00    +0.000 NA
ENDROOT
BRANCH   1   2
ATOM      2  S   UNL     1       6.466   5.612  18.451  0.00  0.00    +0.000 S 
ATOM      3  C   UNL     1       7.638   4.505  17.695  0.00  0.00    +0.000 C 
ATOM      4  O   UNL     1       6.860   6.957  18.099  0.00  0.00    +0.000 OA
ATOM      5  O   UNL     1       6.283   5.227  19.837  0.00  0.00    +0.000 OA
ENDBRANCH   1   2
BRANCH   1   6
ATOM      6  C   UNL     1       4.804   3.747  17.553  0.00  0.00    +0.000 C 
BRANCH   6   7
ATOM      7  C   UNL     1       3.603   3.313  16.716  0.00  0.00    +0.000 C 
BRANCH   7   8
ATOM      8  C   UNL     1       2.456   2.696  17.518  0.00  0.00    +0.000 C 
BRANCH   8   9
ATOM      9  C   UNL     1       1.461   3.688  18.116  0.00  0.00    +0.000 C 
BRANCH   9  10
ATOM     10  C   UNL     1       0.809   3.236  19.424  0.00  0.00    +0.000 C 
BRANCH  10  11
ATOM     11  C   UNL     1       1.028   4.222  20.563  0.00  0.00    +0.000 C 
BRANCH  11  12
ATOM     12  C   UNL     1       2.395   4.036  21.167  0.00  0.00    +0.000 C 
ATOM     13  O   UNL     1       2.650   3.237  22.050  0.00  0.00    +0.000 OA
BRANCH  12  14
ATOM     14  O   UNL     1       3.337   4.831  20.603  0.00  0.00    +0.000 OA
ATOM     15  H   UNL     1       2.991   5.672  20.253  0.00  0.00    +0.000 HD
ENDBRANCH  12  14
ENDBRANCH  11  12
ENDBRANCH  10  11
ENDBRANCH   9  10
ENDBRANCH   8   9
ENDBRANCH   7   8
ENDBRANCH   6   7
ENDBRANCH   1   6
BRANCH   1  16
ATOM     16  C   UNL     1       4.931   5.933  16.291  0.00  0.00    +0.000 C 
BRANCH  16  18
ATOM     17  C   UNL     1       6.433   4.821  14.387  0.00  0.00    +0.000 C 
ATOM     18  C   UNL     1       5.711   5.239  15.252  0.00  0.00    +0.000 C 
BRANCH  17  19
ATOM     19  C   UNL     1       7.424   4.494  13.349  0.00  0.00    +0.000 C 
BRANCH  19  20
ATOM     20  O   UNL     1       7.964   5.712  12.838  0.00  0.00    +0.000 OA
ATOM     21  H   UNL     1       8.486   6.112  13.557  0.00  0.00    +0.000 HD
ENDBRANCH  19  20
BRANCH  19  22
ATOM     22  C   UNL     1       6.760   3.704  12.216  0.00  0.00    +0.000 C 
BRANCH  22  23
ATOM     23  C   UNL     1       5.233   3.803  12.245  0.00  0.00    +0.000 C 
BRANCH  23  24
ATOM     24  C   UNL     1       4.604   2.723  11.364  0.00  0.00    +0.000 C 
BRANCH  24  26
ATOM     25  C   UNL     1       3.254   4.174   9.820  0.00  0.00    +0.000 C 
ATOM     26  C   UNL     1       3.202   3.117  10.910  0.00  0.00    +0.000 C 
ENDBRANCH  24  26
ENDBRANCH  23  24
ENDBRANCH  22  23
ENDBRANCH  19  22
ENDBRANCH  17  19
ENDBRANCH  16  18
ENDBRANCH   1  16
TORSDOF 17
ENDMDL
MODEL 7
REMARK VINA RESULT:      -5.9      3.307      6.969
REMARK  Name = 
REMARK  19 active torsions:
REMARK  status: ('A' for Active; 'I' for Inactive)
REMARK    1  A    between atoms: C_1  and  C_2
REMARK    2  A    between atoms: C_2  and  C_3
REMARK    3  A    between atoms: C_3  and  C_4
REMARK    4  A    between atoms: C_4  and  C_5
REMARK    5  A    between atoms: C_5  and  C_6
REMARK    6  A    between atoms: C_6  and  O_7
REMARK    7  A    between atoms: C_6  and  C_8
REMARK    8  A    between atoms: C_9  and  C_10
REMARK    9  A    between atoms: C_10  and  N_11
REMARK   10  A    between atoms: N_11  and  C_12
REMARK   11  A    between atoms: N_11  and  S_21
REMARK   12  A    between atoms: C_12  and  C_13
REMARK   13  A    between atoms: C_13  and  C_14
REMARK   14  A    between atoms: C_14  and  C_15
REMARK   15  A    between atoms: C_15  and  C_16
REMARK   16  A    between atoms: C_16  and  C_17
REMARK   17  A    between atoms: C_17  and  C_18
REMARK   18  A    between atoms: C_18  and  O_20
REMARK   19  A    between atoms: S_21  and  C_22
REMARK                            x       y       z     vdW  Elec       q    Type
REMARK                         _______ _______ _______ _____ _____    ______ ____
ROOT
ATOM      1  N   UNL     1       6.146   5.928  16.748  0.00  0.00    +0.000 NA
ENDROOT
BRANCH   1   2
ATOM      2  S   UNL     1       7.155   4.884  15.801  0.00  0.00    +0.000 S 
ATOM      3  C   UNL     1       5.984   3.841  14.960  0.00  0.00    +0.000 C 
ATOM      4  O   UNL     1       7.814   5.686  14.794  0.00  0.00    +0.000 OA
ATOM      5  O   UNL     1       7.922   4.077  16.729  0.00  0.00    +0.000 OA
ENDBRANCH   1   2
BRANCH   1   6
ATOM      6  C   UNL     1       6.654   5.966  18.173  0.00  0.00    +0.000 C 
BRANCH   6   7
ATOM      7  C   UNL     1       7.777   6.977  18.397  0.00  0.00    +0.000 C 
BRANCH   7   8
ATOM      8  C   UNL     1       7.826   8.113  17.374  0.00  0.00    +0.000 C 
BRANCH   8   9
ATOM      9  C   UNL     1       8.063   9.508  17.948  0.00  0.00    +0.000 C 
BRANCH   9  10
ATOM     10  C   UNL     1       9.083   9.568  19.087  0.00  0.00    +0.000 C 
BRANCH  10  11
ATOM     11  C   UNL     1       9.790  10.914  19.175  0.00  0.00    +0.000 C 
BRANCH  11  12
ATOM     12  C   UNL     1       9.792  11.419  20.594  0.00  0.00    +0.000 C 
ATOM     13  O   UNL     1      10.128  12.543  20.919  0.00  0.00    +0.000 OA
BRANCH  12  14
ATOM     14  O   UNL     1       9.346  10.500  21.485  0.00  0.00    +0.000 OA
ATOM     15  H   UNL     1       8.374  10.445  21.546  0.00  0.00    +0.000 HD
ENDBRANCH  12  14
ENDBRANCH  11  12
ENDBRANCH  10  11
ENDBRANCH   9  10
ENDBRANCH   8   9
ENDBRANCH   7   8
ENDBRANCH   6   7
ENDBRANCH   1   6
BRANCH   1  16
ATOM     16  C   UNL     1       4.703   5.542  16.624  0.00  0.00    +0.000 C 
BRANCH  16  18
ATOM     17  C   UNL     1       4.212   3.393  18.126  0.00  0.00    +0.000 C 
ATOM     18  C   UNL     1       4.342   4.384  17.460  0.00  0.00    +0.000 C 
BRANCH  17  19
ATOM     19  C   UNL     1       4.266   2.161  18.930  0.00  0.00    +0.000 C 
BRANCH  19  20
ATOM     20  O   UNL     1       3.170   1.328  18.556  0.00  0.00    +0.000 OA
ATOM     21  H   UNL     1       2.566   1.296  19.321  0.00  0.00    +0.000 HD
ENDBRANCH  19  20
BRANCH  19  22
ATOM     22  C   UNL     1       4.177   2.501  20.422  0.00  0.00    +0.000 C 
BRANCH  22  23
ATOM     23  C   UNL     1       2.734   2.573  20.925  0.00  0.00    +0.000 C 
BRANCH  23  24
ATOM     24  C   UNL     1       2.297   4.027  21.109  0.00  0.00    +0.000 C 
BRANCH  24  26
ATOM     25  C   UNL     1       0.632   3.256  19.392  0.00  0.00    +0.000 C 
ATOM     26  C   UNL     1       0.941   4.290  20.462  0.00  0.00    +0.000 C 
ENDBRANCH  24  26
ENDBRANCH  23  24
ENDBRANCH  22  23
ENDBRANCH  19  22
ENDBRANCH  17  19
ENDBRANCH  16  18
ENDBRANCH   1  16
TORSDOF 17
ENDMDL
MODEL 8
REMARK VINA RESULT:      -5.9      2.890      7.002
REMARK  Name = 
REMARK  19 active torsions:
REMARK  status: ('A' for Active; 'I' for Inactive)
REMARK    1  A    between atoms: C_1  and  C_2
REMARK    2  A    between atoms: C_2  and  C_3
REMARK    3  A    between atoms: C_3  and  C_4
REMARK    4  A    between atoms: C_4  and  C_5
REMARK    5  A    between atoms: C_5  and  C_6
REMARK    6  A    between atoms: C_6  and  O_7
REMARK    7  A    between atoms: C_6  and  C_8
REMARK    8  A    between atoms: C_9  and  C_10
REMARK    9  A    between atoms: C_10  and  N_11
REMARK   10  A    between atoms: N_11  and  C_12
REMARK   11  A    between atoms: N_11  and  S_21
REMARK   12  A    between atoms: C_12  and  C_13
REMARK   13  A    between atoms: C_13  and  C_14
REMARK   14  A    between atoms: C_14  and  C_15
REMARK   15  A    between atoms: C_15  and  C_16
REMARK   16  A    between atoms: C_16  and  C_17
REMARK   17  A    between atoms: C_17  and  C_18
REMARK   18  A    between atoms: C_18  and  O_20
REMARK   19  A    between atoms: S_21  and  C_22
REMARK                            x       y       z     vdW  Elec       q    Type
REMARK                         _______ _______ _______ _____ _____    ______ ____
ROOT
ATOM      1  N   UNL     1       5.704   5.357  16.970  0.00  0.00    +0.000 NA
ENDROOT
BRANCH   1   2
ATOM      2  S   UNL     1       7.149   4.993  16.085  0.00  0.00    +0.000 S 
ATOM      3  C   UNL     1       6.558   3.991  14.738  0.00  0.00    +0.000 C 
ATOM      4  O   UNL     1       7.650   6.224  15.514  0.00  0.00    +0.000 OA
ATOM      5  O   UNL     1       7.982   4.179  16.947  0.00  0.00    +0.000 OA
ENDBRANCH   1   2
BRANCH   1   6
ATOM      6  C   UNL     1       5.309   6.797  16.724  0.00  0.00    +0.000 C 
BRANCH   6   7
ATOM      7  C   UNL     1       4.459   7.401  17.839  0.00  0.00    +0.000 C 
BRANCH   7   8
ATOM      8  C   UNL     1       3.014   6.902  17.881  0.00  0.00    +0.000 C 
BRANCH   8   9
ATOM      9  C   UNL     1       2.379   6.834  19.268  0.00  0.00    +0.000 C 
BRANCH   9  10
ATOM     10  C   UNL     1       1.811   8.159  19.780  0.00  0.00    +0.000 C 
BRANCH  10  11
ATOM     11  C   UNL     1       1.402   8.099  21.245  0.00  0.00    +0.000 C 
BRANCH  11  12
ATOM     12  C   UNL     1       0.996   9.463  21.737  0.00  0.00    +0.000 C 
ATOM     13  O   UNL     1       0.748   9.725  22.901  0.00  0.00    +0.000 OA
BRANCH  12  14
ATOM     14  O   UNL     1       0.965  10.395  20.754  0.00  0.00    +0.000 OA
ATOM     15  H   UNL     1       0.186  10.332  20.170  0.00  0.00    +0.000 HD
ENDBRANCH  12  14
ENDBRANCH  11  12
ENDBRANCH  10  11
ENDBRANCH   9  10
ENDBRANCH   8   9
ENDBRANCH   7   8
ENDBRANCH   6   7
ENDBRANCH   1   6
BRANCH   1  16
ATOM     16  C   UNL     1       5.853   5.003  18.418  0.00  0.00    +0.000 C 
BRANCH  16  18
ATOM     17  C   UNL     1       4.381   2.846  18.963  0.00  0.00    +0.000 C 
ATOM     18  C   UNL     1       5.089   3.802  18.800  0.00  0.00    +0.000 C 
BRANCH  17  19
ATOM     19  C   UNL     1       3.447   1.709  18.963  0.00  0.00    +0.000 C 
BRANCH  19  20
ATOM     20  O   UNL     1       4.071   0.609  18.304  0.00  0.00    +0.000 OA
ATOM     21  H   UNL     1       3.746   0.610  17.385  0.00  0.00    +0.000 HD
ENDBRANCH  19  20
BRANCH  19  22
ATOM     22  C   UNL     1       2.154   2.088  18.232  0.00  0.00    +0.000 C 
BRANCH  22  23
ATOM     23  C   UNL     1       1.529   3.377  18.771  0.00  0.00    +0.000 C 
BRANCH  23  24
ATOM     24  C   UNL     1       0.533   3.069  19.888  0.00  0.00    +0.000 C 
BRANCH  24  26
ATOM     25  C   UNL     1       2.189   4.082  21.484  0.00  0.00    +0.000 C 
ATOM     26  C   UNL     1       1.232   2.928  21.238  0.00  0.00    +0.000 C 
ENDBRANCH  24  26
ENDBRANCH  23  24
ENDBRANCH  22  23
ENDBRANCH  19  22
ENDBRANCH  17  19
ENDBRANCH  16  18
ENDBRANCH   1  16
TORSDOF 17
ENDMDL
MODEL 9
REMARK VINA RESULT:      -5.9      2.796      6.159
REMARK  Name = 
REMARK  19 active torsions:
REMARK  status: ('A' for Active; 'I' for Inactive)
REMARK    1  A    between atoms: C_1  and  C_2
REMARK    2  A    between atoms: C_2  and  C_3
REMARK    3  A    between atoms: C_3  and  C_4
REMARK    4  A    between atoms: C_4  and  C_5
REMARK    5  A    between atoms: C_5  and  C_6
REMARK    6  A    between atoms: C_6  and  O_7
REMARK    7  A    between atoms: C_6  and  C_8
REMARK    8  A    between atoms: C_9  and  C_10
REMARK    9  A    between atoms: C_10  and  N_11
REMARK   10  A    between atoms: N_11  and  C_12
REMARK   11  A    between atoms: N_11  and  S_21
REMARK   12  A    between atoms: C_12  and  C_13
REMARK   13  A    between atoms: C_13  and  C_14
REMARK   14  A    between atoms: C_14  and  C_15
REMARK   15  A    between atoms: C_15  and  C_16
REMARK   16  A    between atoms: C_16  and  C_17
REMARK   17  A    between atoms: C_17  and  C_18
REMARK   18  A    between atoms: C_18  and  O_20
REMARK   19  A    between atoms: S_21  and  C_22
REMARK                            x       y       z     vdW  Elec       q    Type
REMARK                         _______ _______ _______ _____ _____    ______ ____
ROOT
ATOM      1  N   UNL     1       3.241   4.200  19.261  0.00  0.00    +0.000 NA
ENDROOT
BRANCH   1   2
ATOM      2  S   UNL     1       2.288   3.009  20.084  0.00  0.00    +0.000 S 
ATOM      3  C   UNL     1       0.704   3.804  20.253  0.00  0.00    +0.000 C 
ATOM      4  O   UNL     1       2.109   1.882  19.196  0.00  0.00    +0.000 OA
ATOM      5  O   UNL     1       2.869   2.835  21.401  0.00  0.00    +0.000 OA
ENDBRANCH   1   2
BRANCH   1   6
ATOM      6  C   UNL     1       2.396   4.886  18.210  0.00  0.00    +0.000 C 
BRANCH   6   7
ATOM      7  C   UNL     1       2.519   6.408  18.219  0.00  0.00    +0.000 C 
BRANCH   7   8
ATOM      8  C   UNL     1       3.897   6.938  17.817  0.00  0.00    +0.000 C 
BRANCH   8   9
ATOM      9  C   UNL     1       4.127   7.105  16.317  0.00  0.00    +0.000 C 
BRANCH   9  10
ATOM     10  C   UNL     1       5.438   6.510  15.799  0.00  0.00    +0.000 C 
BRANCH  10  11
ATOM     11  C   UNL     1       5.299   5.054  15.377  0.00  0.00    +0.000 C 
BRANCH  11  12
ATOM     12  C   UNL     1       6.481   4.629  14.546  0.00  0.00    +0.000 C 
ATOM     13  O   UNL     1       6.416   3.848  13.614  0.00  0.00    +0.000 OA
BRANCH  12  14
ATOM     14  O   UNL     1       7.636   5.235  14.916  0.00  0.00    +0.000 OA
ATOM     15  H   UNL     1       8.043   5.777  14.214  0.00  0.00    +0.000 HD
ENDBRANCH  12  14
ENDBRANCH  11  12
ENDBRANCH  10  11
ENDBRANCH   9  10
ENDBRANCH   8   9
ENDBRANCH   7   8
ENDBRANCH   6   7
ENDBRANCH   1   6
BRANCH   1  16
ATOM     16  C   UNL     1       4.511   3.605  18.733  0.00  0.00    +0.000 C 
BRANCH  16  18
ATOM     17  C   UNL     1       6.727   5.009  19.217  0.00  0.00    +0.000 C 
ATOM     18  C   UNL     1       5.689   4.457  18.968  0.00  0.00    +0.000 C 
BRANCH  17  19
ATOM     19  C   UNL     1       8.075   5.490  19.561  0.00  0.00    +0.000 C 
BRANCH  19  20
ATOM     20  O   UNL     1       8.303   5.245  20.947  0.00  0.00    +0.000 OA
ATOM     21  H   UNL     1       7.542   4.730  21.272  0.00  0.00    +0.000 HD
ENDBRANCH  19  20
BRANCH  19  22
ATOM     22  C   UNL     1       8.190   6.990  19.271  0.00  0.00    +0.000 C 
BRANCH  22  23
ATOM     23  C   UNL     1       7.903   7.332  17.807  0.00  0.00    +0.000 C 
BRANCH  23  24
ATOM     24  C   UNL     1       7.865   8.846  17.603  0.00  0.00    +0.000 C 
BRANCH  24  26
ATOM     25  C   UNL     1       9.134  10.955  18.113  0.00  0.00    +0.000 C 
ATOM     26  C   UNL     1       8.758   9.569  18.609  0.00  0.00    +0.000 C 
ENDBRANCH  24  26
ENDBRANCH  23  24
ENDBRANCH  22  23
ENDBRANCH  19  22
ENDBRANCH  17  19
ENDBRANCH  16  18
ENDBRANCH   1  16
TORSDOF 17
ENDMDL
