MODEL 1
REMARK VINA RESULT:      -7.3      0.000      0.000
REMARK  Name = 
REMARK  8 active torsions:
REMARK  status: ('A' for Active; 'I' for Inactive)
REMARK    1  A    between atoms: C_1  and  S_2
REMARK    2  A    between atoms: S_2  and  C_5
REMARK    3  A    between atoms: C_5  and  C_6
REMARK    4  A    between atoms: C_6  and  N_7
REMARK    5  A    between atoms: N_10  and  C_11
REMARK    6  A    between atoms: C_11  and  C_12
REMARK    7  A    between atoms: C_12  and  O_13
REMARK    8  A    between atoms: O_13  and  C_14
REMARK                            x       y       z     vdW  Elec       q    Type
REMARK                         _______ _______ _______ _____ _____    ______ ____
ROOT
ATOM      1  N   UNL     1       5.252   3.100  19.163  0.00  0.00    +0.000 N 
ATOM      2  C   UNL     1       5.810   4.344  19.004  0.00  0.00    +0.000 C 
ATOM      3  O   UNL     1       5.393   5.353  19.564  0.00  0.00    +0.000 OA
ATOM      4  N   UNL     1       6.881   4.331  18.151  0.00  0.00    +0.000 N 
ATOM      5  H   UNL     1       5.871   2.324  18.965  0.00  0.00    +0.000 HD
ATOM      6  H   UNL     1       6.901   3.574  17.486  0.00  0.00    +0.000 HD
ENDROOT
BRANCH   1   7
ATOM      7  C   UNL     1       4.269   2.911  20.218  0.00  0.00    +0.000 C 
BRANCH   7   8
ATOM      8  C   UNL     1       3.009   2.225  19.736  0.00  0.00    +0.000 C 
BRANCH   8  10
ATOM      9  C   UNL     1       2.111   4.791  20.519  0.00  0.00    +0.000 C 
ATOM     10  S   UNL     1       1.549   3.127  20.224  0.00  0.00    +0.000 S 
ATOM     11  O   UNL     1       1.083   2.580  21.484  0.00  0.00    +0.000 OA
ATOM     12  O   UNL     1       0.667   3.168  19.072  0.00  0.00    +0.000 OA
ENDBRANCH   8  10
ENDBRANCH   7   8
ENDBRANCH   1   7
BRANCH   4  13
ATOM     13  C   UNL     1       7.473   5.598  17.740  0.00  0.00    +0.000 C 
BRANCH  13  14
ATOM     14  C   UNL     1       6.803   6.180  16.498  0.00  0.00    +0.000 C 
BRANCH  14  15
ATOM     15  O   UNL     1       7.585   5.859  15.348  0.00  0.00    +0.000 OA
BRANCH  15  16
ATOM     16  C   UNL     1       7.017   5.023  14.423  0.00  0.00    +0.000 A 
ATOM     17  C   UNL     1       5.893   4.221  14.644  0.00  0.00    +0.000 A 
ATOM     18  C   UNL     1       5.395   3.413  13.617  0.00  0.00    +0.000 A 
ATOM     19  C   UNL     1       6.022   3.406  12.377  0.00  0.00    +0.000 A 
ATOM     20  F   UNL     1       5.533   2.633  11.399  0.00  0.00    +0.000 F 
ATOM     21  C   UNL     1       7.141   4.188  12.137  0.00  0.00    +0.000 A 
ATOM     22  C   UNL     1       7.630   4.990  13.163  0.00  0.00    +0.000 A 
ATOM     23  F   UNL     1       8.716   5.743  12.922  0.00  0.00    +0.000 F 
ENDBRANCH  15  16
ENDBRANCH  14  15
ENDBRANCH  13  14
ENDBRANCH   4  13
TORSDOF 7
ENDMDL
MODEL 2
REMARK VINA RESULT:      -6.9      1.419      1.838
REMARK  Name = 
REMARK  8 active torsions:
REMARK  status: ('A' for Active; 'I' for Inactive)
REMARK    1  A    between atoms: C_1  and  S_2
REMARK    2  A    between atoms: S_2  and  C_5
REMARK    3  A    between atoms: C_5  and  C_6
REMARK    4  A    between atoms: C_6  and  N_7
REMARK    5  A    between atoms: N_10  and  C_11
REMARK    6  A    between atoms: C_11  and  C_12
REMARK    7  A    between atoms: C_12  and  O_13
REMARK    8  A    between atoms: O_13  and  C_14
REMARK                            x       y       z     vdW  Elec       q    Type
REMARK                         _______ _______ _______ _____ _____    ______ ____
ROOT
ATOM      1  N   UNL     1       4.107   5.083  19.500  0.00  0.00    +0.000 N 
ATOM      2  C   UNL     1       4.923   5.697  18.581  0.00  0.00    +0.000 C 
ATOM      3  O   UNL     1       4.507   6.299  17.598  0.00  0.00    +0.000 OA
ATOM      4  N   UNL     1       6.251   5.560  18.888  0.00  0.00    +0.000 N 
ATOM      5  H   UNL     1       4.517   4.951  20.417  0.00  0.00    +0.000 HD
ATOM      6  H   UNL     1       6.486   4.769  19.468  0.00  0.00    +0.000 HD
ENDROOT
BRANCH   1   7
ATOM      7  C   UNL     1       2.679   5.348  19.443  0.00  0.00    +0.000 C 
BRANCH   7   8
ATOM      8  C   UNL     1       1.840   4.151  19.834  0.00  0.00    +0.000 C 
BRANCH   8  10
ATOM      9  C   UNL     1       2.795   2.134  18.095  0.00  0.00    +0.000 C 
ATOM     10  S   UNL     1       1.387   3.179  18.407  0.00  0.00    +0.000 S 
ATOM     11  O   UNL     1       1.237   4.079  17.280  0.00  0.00    +0.000 OA
ATOM     12  O   UNL     1       0.291   2.316  18.807  0.00  0.00    +0.000 OA
ENDBRANCH   8  10
ENDBRANCH   7   8
ENDBRANCH   1   7
BRANCH   4  13
ATOM     13  C   UNL     1       7.249   6.002  17.923  0.00  0.00    +0.000 C 
BRANCH  13  14
ATOM     14  C   UNL     1       7.485   4.976  16.817  0.00  0.00    +0.000 C 
BRANCH  14  15
ATOM     15  O   UNL     1       7.363   5.617  15.548  0.00  0.00    +0.000 OA
BRANCH  15  16
ATOM     16  C   UNL     1       6.787   4.893  14.538  0.00  0.00    +0.000 A 
ATOM     17  C   UNL     1       5.592   4.174  14.642  0.00  0.00    +0.000 A 
ATOM     18  C   UNL     1       5.094   3.478  13.537  0.00  0.00    +0.000 A 
ATOM     19  C   UNL     1       5.791   3.498  12.334  0.00  0.00    +0.000 A 
ATOM     20  F   UNL     1       5.301   2.834  11.281  0.00  0.00    +0.000 F 
ATOM     21  C   UNL     1       6.981   4.199  12.211  0.00  0.00    +0.000 A 
ATOM     22  C   UNL     1       7.470   4.890  13.314  0.00  0.00    +0.000 A 
ATOM     23  F   UNL     1       8.624   5.564  13.185  0.00  0.00    +0.000 F 
ENDBRANCH  15  16
ENDBRANCH  14  15
ENDBRANCH  13  14
ENDBRANCH   4  13
TORSDOF 7
ENDMDL
MODEL 3
REMARK VINA RESULT:      -6.6      5.270      7.720
REMARK  Name = 
REMARK  8 active torsions:
REMARK  status: ('A' for Active; 'I' for Inactive)
REMARK    1  A    between atoms: C_1  and  S_2
REMARK    2  A    between atoms: S_2  and  C_5
REMARK    3  A    between atoms: C_5  and  C_6
REMARK    4  A    between atoms: C_6  and  N_7
REMARK    5  A    between atoms: N_10  and  C_11
REMARK    6  A    between atoms: C_11  and  C_12
REMARK    7  A    between atoms: C_12  and  O_13
REMARK    8  A    between atoms: O_13  and  C_14
REMARK                            x       y       z     vdW  Elec       q    Type
REMARK                         _______ _______ _______ _____ _____    ______ ____
ROOT
ATOM      1  N   UNL     1       8.409   8.770  18.595  0.00  0.00    +0.000 N 
ATOM      2  C   UNL     1       7.853   7.711  17.920  0.00  0.00    +0.000 C 
ATOM      3  O   UNL     1       7.293   7.815  16.834  0.00  0.00    +0.000 OA
ATOM      4  N   UNL     1       7.995   6.528  18.596  0.00  0.00    +0.000 N 
ATOM      5  H   UNL     1       9.133   8.523  19.258  0.00  0.00    +0.000 HD
ATOM      6  H   UNL     1       8.119   6.607  19.594  0.00  0.00    +0.000 HD
ENDROOT
BRANCH   1   7
ATOM      7  C   UNL     1       8.552  10.037  17.897  0.00  0.00    +0.000 C 
BRANCH   7   8
ATOM      8  C   UNL     1       9.847  10.748  18.223  0.00  0.00    +0.000 C 
BRANCH   8  10
ATOM      9  C   UNL     1      11.409  12.101  20.156  0.00  0.00    +0.000 C 
ATOM     10  S   UNL     1       9.735  11.628  19.772  0.00  0.00    +0.000 S 
ATOM     11  O   UNL     1       9.288  10.694  20.787  0.00  0.00    +0.000 OA
ATOM     12  O   UNL     1       8.991  12.847  19.519  0.00  0.00    +0.000 OA
ENDBRANCH   8  10
ENDBRANCH   7   8
ENDBRANCH   1   7
BRANCH   4  13
ATOM     13  C   UNL     1       7.308   5.343  18.100  0.00  0.00    +0.000 C 
BRANCH  13  14
ATOM     14  C   UNL     1       5.875   5.241  18.614  0.00  0.00    +0.000 C 
BRANCH  14  15
ATOM     15  O   UNL     1       4.997   4.990  17.516  0.00  0.00    +0.000 OA
BRANCH  15  16
ATOM     16  C   UNL     1       3.894   4.218  17.765  0.00  0.00    +0.000 A 
ATOM     17  C   UNL     1       3.890   2.822  17.853  0.00  0.00    +0.000 A 
ATOM     18  C   UNL     1       2.700   2.140  18.123  0.00  0.00    +0.000 A 
ATOM     19  C   UNL     1       1.519   2.852  18.300  0.00  0.00    +0.000 A 
ATOM     20  F   UNL     1       0.386   2.189  18.564  0.00  0.00    +0.000 F 
ATOM     21  C   UNL     1       1.498   4.235  18.210  0.00  0.00    +0.000 A 
ATOM     22  C   UNL     1       2.686   4.908  17.942  0.00  0.00    +0.000 A 
ATOM     23  F   UNL     1       2.657   6.247  17.855  0.00  0.00    +0.000 F 
ENDBRANCH  15  16
ENDBRANCH  14  15
ENDBRANCH  13  14
ENDBRANCH   4  13
TORSDOF 7
ENDMDL
MODEL 4
REMARK VINA RESULT:      -6.6      5.437      8.013
REMARK  Name = 
REMARK  8 active torsions:
REMARK  status: ('A' for Active; 'I' for Inactive)
REMARK    1  A    between atoms: C_1  and  S_2
REMARK    2  A    between atoms: S_2  and  C_5
REMARK    3  A    between atoms: C_5  and  C_6
REMARK    4  A    between atoms: C_6  and  N_7
REMARK    5  A    between atoms: N_10  and  C_11
REMARK    6  A    between atoms: C_11  and  C_12
REMARK    7  A    between atoms: C_12  and  O_13
REMARK    8  A    between atoms: O_13  and  C_14
REMARK                            x       y       z     vdW  Elec       q    Type
REMARK                         _______ _______ _______ _____ _____    ______ ____
ROOT
ATOM      1  N   UNL     1       8.054   8.814  17.441  0.00  0.00    +0.000 N 
ATOM      2  C   UNL     1       7.750   7.498  17.689  0.00  0.00    +0.000 C 
ATOM      3  O   UNL     1       8.112   6.894  18.693  0.00  0.00    +0.000 OA
ATOM      4  N   UNL     1       6.998   6.938  16.691  0.00  0.00    +0.000 N 
ATOM      5  H   UNL     1       7.422   9.288  16.806  0.00  0.00    +0.000 HD
ATOM      6  H   UNL     1       7.076   7.377  15.786  0.00  0.00    +0.000 HD
ENDROOT
BRANCH   1   7
ATOM      7  C   UNL     1       8.633   9.606  18.514  0.00  0.00    +0.000 C 
BRANCH   7   8
ATOM      8  C   UNL     1       9.348  10.843  18.017  0.00  0.00    +0.000 C 
BRANCH   8  10
ATOM      9  C   UNL     1       9.310  11.093  20.835  0.00  0.00    +0.000 C 
ATOM     10  S   UNL     1      10.052  11.775  19.366  0.00  0.00    +0.000 S 
ATOM     11  O   UNL     1       9.614  13.151  19.238  0.00  0.00    +0.000 OA
ATOM     12  O   UNL     1      11.468  11.457  19.411  0.00  0.00    +0.000 OA
ENDBRANCH   8  10
ENDBRANCH   7   8
ENDBRANCH   1   7
BRANCH   4  13
ATOM     13  C   UNL     1       6.741   5.504  16.718  0.00  0.00    +0.000 C 
BRANCH  13  14
ATOM     14  C   UNL     1       5.257   5.179  16.863  0.00  0.00    +0.000 C 
BRANCH  14  15
ATOM     15  O   UNL     1       5.102   4.087  17.770  0.00  0.00    +0.000 OA
BRANCH  15  16
ATOM     16  C   UNL     1       3.822   3.753  18.128  0.00  0.00    +0.000 A 
ATOM     17  C   UNL     1       2.661   4.265  17.540  0.00  0.00    +0.000 A 
ATOM     18  C   UNL     1       1.405   3.841  17.983  0.00  0.00    +0.000 A 
ATOM     19  C   UNL     1       1.312   2.912  19.013  0.00  0.00    +0.000 A 
ATOM     20  F   UNL     1       0.104   2.508  19.425  0.00  0.00    +0.000 F 
ATOM     21  C   UNL     1       2.449   2.397  19.615  0.00  0.00    +0.000 A 
ATOM     22  C   UNL     1       3.696   2.823  19.168  0.00  0.00    +0.000 A 
ATOM     23  F   UNL     1       4.792   2.319  19.758  0.00  0.00    +0.000 F 
ENDBRANCH  15  16
ENDBRANCH  14  15
ENDBRANCH  13  14
ENDBRANCH   4  13
TORSDOF 7
ENDMDL
MODEL 5
REMARK VINA RESULT:      -6.6      1.886      2.295
REMARK  Name = 
REMARK  8 active torsions:
REMARK  status: ('A' for Active; 'I' for Inactive)
REMARK    1  A    between atoms: C_1  and  S_2
REMARK    2  A    between atoms: S_2  and  C_5
REMARK    3  A    between atoms: C_5  and  C_6
REMARK    4  A    between atoms: C_6  and  N_7
REMARK    5  A    between atoms: N_10  and  C_11
REMARK    6  A    between atoms: C_11  and  C_12
REMARK    7  A    between atoms: C_12  and  O_13
REMARK    8  A    between atoms: O_13  and  C_14
REMARK                            x       y       z     vdW  Elec       q    Type
REMARK                         _______ _______ _______ _____ _____    ______ ____
ROOT
ATOM      1  N   UNL     1       4.254   5.279  19.571  0.00  0.00    +0.000 N 
ATOM      2  C   UNL     1       5.104   5.841  18.650  0.00  0.00    +0.000 C 
ATOM      3  O   UNL     1       4.732   6.570  17.737  0.00  0.00    +0.000 OA
ATOM      4  N   UNL     1       6.412   5.495  18.866  0.00  0.00    +0.000 N 
ATOM      5  H   UNL     1       4.685   5.020  20.450  0.00  0.00    +0.000 HD
ATOM      6  H   UNL     1       6.558   4.635  19.374  0.00  0.00    +0.000 HD
ENDROOT
BRANCH   1   7
ATOM      7  C   UNL     1       2.879   5.746  19.618  0.00  0.00    +0.000 C 
BRANCH   7   8
ATOM      8  C   UNL     1       1.885   4.634  19.872  0.00  0.00    +0.000 C 
BRANCH   8  10
ATOM      9  C   UNL     1       0.687   2.322  18.767  0.00  0.00    +0.000 C 
ATOM     10  S   UNL     1       2.229   3.208  18.856  0.00  0.00    +0.000 S 
ATOM     11  O   UNL     1       3.186   2.376  19.559  0.00  0.00    +0.000 OA
ATOM     12  O   UNL     1       2.523   3.696  17.521  0.00  0.00    +0.000 OA
ENDBRANCH   8  10
ENDBRANCH   7   8
ENDBRANCH   1   7
BRANCH   4  13
ATOM     13  C   UNL     1       7.415   5.864  17.876  0.00  0.00    +0.000 C 
BRANCH  13  14
ATOM     14  C   UNL     1       7.450   4.900  16.693  0.00  0.00    +0.000 C 
BRANCH  14  15
ATOM     15  O   UNL     1       7.250   5.632  15.484  0.00  0.00    +0.000 OA
BRANCH  15  16
ATOM     16  C   UNL     1       6.853   4.918  14.384  0.00  0.00    +0.000 A 
ATOM     17  C   UNL     1       7.611   4.741  13.222  0.00  0.00    +0.000 A 
ATOM     18  C   UNL     1       7.105   3.980  12.164  0.00  0.00    +0.000 A 
ATOM     19  C   UNL     1       5.843   3.405  12.267  0.00  0.00    +0.000 A 
ATOM     20  F   UNL     1       5.371   2.674  11.250  0.00  0.00    +0.000 F 
ATOM     21  C   UNL     1       5.073   3.574  13.406  0.00  0.00    +0.000 A 
ATOM     22  C   UNL     1       5.583   4.330  14.456  0.00  0.00    +0.000 A 
ATOM     23  F   UNL     1       4.829   4.490  15.555  0.00  0.00    +0.000 F 
ENDBRANCH  15  16
ENDBRANCH  14  15
ENDBRANCH  13  14
ENDBRANCH   4  13
TORSDOF 7
ENDMDL
MODEL 6
REMARK VINA RESULT:      -6.6      5.610      8.068
REMARK  Name = 
REMARK  8 active torsions:
REMARK  status: ('A' for Active; 'I' for Inactive)
REMARK    1  A    between atoms: C_1  and  S_2
REMARK    2  A    between atoms: S_2  and  C_5
REMARK    3  A    between atoms: C_5  and  C_6
REMARK    4  A    between atoms: C_6  and  N_7
REMARK    5  A    between atoms: N_10  and  C_11
REMARK    6  A    between atoms: C_11  and  C_12
REMARK    7  A    between atoms: C_12  and  O_13
REMARK    8  A    between atoms: O_13  and  C_14
REMARK                            x       y       z     vdW  Elec       q    Type
REMARK                         _______ _______ _______ _____ _____    ______ ____
ROOT
ATOM      1  N   UNL     1       8.386   9.452  17.920  0.00  0.00    +0.000 N 
ATOM      2  C   UNL     1       8.010   8.132  17.982  0.00  0.00    +0.000 C 
ATOM      3  O   UNL     1       8.421   7.347  18.829  0.00  0.00    +0.000 OA
ATOM      4  N   UNL     1       7.126   7.794  16.992  0.00  0.00    +0.000 N 
ATOM      5  H   UNL     1       7.734  10.061  17.442  0.00  0.00    +0.000 HD
ATOM      6  H   UNL     1       7.151   8.375  16.167  0.00  0.00    +0.000 HD
ENDROOT
BRANCH   1   7
ATOM      7  C   UNL     1       9.123  10.014  19.040  0.00  0.00    +0.000 C 
BRANCH   7   8
ATOM      8  C   UNL     1      10.052  11.137  18.632  0.00  0.00    +0.000 C 
BRANCH   8  10
ATOM      9  C   UNL     1      10.343  13.740  17.561  0.00  0.00    +0.000 C 
ATOM     10  S   UNL     1       9.151  12.641  18.299  0.00  0.00    +0.000 S 
ATOM     11  O   UNL     1       8.741  13.209  19.569  0.00  0.00    +0.000 OA
ATOM     12  O   UNL     1       8.163  12.331  17.281  0.00  0.00    +0.000 OA
ENDBRANCH   8  10
ENDBRANCH   7   8
ENDBRANCH   1   7
BRANCH   4  13
ATOM     13  C   UNL     1       6.767   6.393  16.812  0.00  0.00    +0.000 C 
BRANCH  13  14
ATOM     14  C   UNL     1       5.257   6.180  16.754  0.00  0.00    +0.000 C 
BRANCH  14  15
ATOM     15  O   UNL     1       4.785   5.812  18.050  0.00  0.00    +0.000 OA
BRANCH  15  16
ATOM     16  C   UNL     1       3.739   4.930  18.104  0.00  0.00    +0.000 A 
ATOM     17  C   UNL     1       3.573   3.825  17.262  0.00  0.00    +0.000 A 
ATOM     18  C   UNL     1       2.466   2.985  17.418  0.00  0.00    +0.000 A 
ATOM     19  C   UNL     1       1.528   3.252  18.408  0.00  0.00    +0.000 A 
ATOM     20  F   UNL     1       0.476   2.437  18.553  0.00  0.00    +0.000 F 
ATOM     21  C   UNL     1       1.669   4.345  19.249  0.00  0.00    +0.000 A 
ATOM     22  C   UNL     1       2.773   5.176  19.089  0.00  0.00    +0.000 A 
ATOM     23  F   UNL     1       2.901   6.234  19.907  0.00  0.00    +0.000 F 
ENDBRANCH  15  16
ENDBRANCH  14  15
ENDBRANCH  13  14
ENDBRANCH   4  13
TORSDOF 7
ENDMDL
MODEL 7
REMARK VINA RESULT:      -6.5      4.954      7.631
REMARK  Name = 
REMARK  8 active torsions:
REMARK  status: ('A' for Active; 'I' for Inactive)
REMARK    1  A    between atoms: C_1  and  S_2
REMARK    2  A    between atoms: S_2  and  C_5
REMARK    3  A    between atoms: C_5  and  C_6
REMARK    4  A    between atoms: C_6  and  N_7
REMARK    5  A    between atoms: N_10  and  C_11
REMARK    6  A    between atoms: C_11  and  C_12
REMARK    7  A    between atoms: C_12  and  O_13
REMARK    8  A    between atoms: O_13  and  C_14
REMARK                            x       y       z     vdW  Elec       q    Type
REMARK                         _______ _______ _______ _____ _____    ______ ____
ROOT
ATOM      1  N   UNL     1       7.867   7.962  17.007  0.00  0.00    +0.000 N 
ATOM      2  C   UNL     1       7.263   6.761  17.288  0.00  0.00    +0.000 C 
ATOM      3  O   UNL     1       6.754   6.494  18.371  0.00  0.00    +0.000 OA
ATOM      4  N   UNL     1       7.295   5.899  16.225  0.00  0.00    +0.000 N 
ATOM      5  H   UNL     1       7.913   8.199  16.023  0.00  0.00    +0.000 HD
ATOM      6  H   UNL     1       8.030   6.059  15.554  0.00  0.00    +0.000 HD
ENDROOT
BRANCH   1   7
ATOM      7  C   UNL     1       7.698   9.059  17.946  0.00  0.00    +0.000 C 
BRANCH   7   8
ATOM      8  C   UNL     1       8.999   9.500  18.580  0.00  0.00    +0.000 C 
BRANCH   8  10
ATOM      9  C   UNL     1       9.373  11.985  19.879  0.00  0.00    +0.000 C 
ATOM     10  S   UNL     1       9.324  11.227  18.268  0.00  0.00    +0.000 S 
ATOM     11  O   UNL     1       8.190  11.774  17.548  0.00  0.00    +0.000 OA
ATOM     12  O   UNL     1      10.660  11.316  17.709  0.00  0.00    +0.000 OA
ENDBRANCH   8  10
ENDBRANCH   7   8
ENDBRANCH   1   7
BRANCH   4  13
ATOM     13  C   UNL     1       6.854   4.523  16.417  0.00  0.00    +0.000 C 
BRANCH  13  14
ATOM     14  C   UNL     1       5.403   4.310  15.994  0.00  0.00    +0.000 C 
BRANCH  14  15
ATOM     15  O   UNL     1       4.859   3.207  16.719  0.00  0.00    +0.000 OA
BRANCH  15  16
ATOM     16  C   UNL     1       3.773   3.461  17.514  0.00  0.00    +0.000 A 
ATOM     17  C   UNL     1       3.184   4.716  17.698  0.00  0.00    +0.000 A 
ATOM     18  C   UNL     1       2.068   4.852  18.529  0.00  0.00    +0.000 A 
ATOM     19  C   UNL     1       1.548   3.737  19.177  0.00  0.00    +0.000 A 
ATOM     20  F   UNL     1       0.475   3.878  19.965  0.00  0.00    +0.000 F 
ATOM     21  C   UNL     1       2.120   2.485  19.014  0.00  0.00    +0.000 A 
ATOM     22  C   UNL     1       3.229   2.357  18.185  0.00  0.00    +0.000 A 
ATOM     23  F   UNL     1       3.778   1.140  18.035  0.00  0.00    +0.000 F 
ENDBRANCH  15  16
ENDBRANCH  14  15
ENDBRANCH  13  14
ENDBRANCH   4  13
TORSDOF 7
ENDMDL
MODEL 8
REMARK VINA RESULT:      -6.5      5.818      8.854
REMARK  Name = 
REMARK  8 active torsions:
REMARK  status: ('A' for Active; 'I' for Inactive)
REMARK    1  A    between atoms: C_1  and  S_2
REMARK    2  A    between atoms: S_2  and  C_5
REMARK    3  A    between atoms: C_5  and  C_6
REMARK    4  A    between atoms: C_6  and  N_7
REMARK    5  A    between atoms: N_10  and  C_11
REMARK    6  A    between atoms: C_11  and  C_12
REMARK    7  A    between atoms: C_12  and  O_13
REMARK    8  A    between atoms: O_13  and  C_14
REMARK                            x       y       z     vdW  Elec       q    Type
REMARK                         _______ _______ _______ _____ _____    ______ ____
ROOT
ATOM      1  N   UNL     1       8.918   8.912  19.046  0.00  0.00    +0.000 N 
ATOM      2  C   UNL     1       8.169   8.025  18.312  0.00  0.00    +0.000 C 
ATOM      3  O   UNL     1       7.558   8.331  17.294  0.00  0.00    +0.000 OA
ATOM      4  N   UNL     1       8.181   6.764  18.845  0.00  0.00    +0.000 N 
ATOM      5  H   UNL     1       9.642   8.492  19.617  0.00  0.00    +0.000 HD
ATOM      6  H   UNL     1       8.383   6.708  19.832  0.00  0.00    +0.000 HD
ENDROOT
BRANCH   1   7
ATOM      7  C   UNL     1       9.198  10.219  18.476  0.00  0.00    +0.000 C 
BRANCH   7   8
ATOM      8  C   UNL     1       9.741  11.202  19.491  0.00  0.00    +0.000 C 
BRANCH   8  10
ATOM      9  C   UNL     1      11.121  13.662  19.712  0.00  0.00    +0.000 C 
ATOM     10  S   UNL     1      11.132  12.110  18.839  0.00  0.00    +0.000 S 
ATOM     11  O   UNL     1      10.875  12.380  17.437  0.00  0.00    +0.000 OA
ATOM     12  O   UNL     1      12.332  11.399  19.241  0.00  0.00    +0.000 OA
ENDBRANCH   8  10
ENDBRANCH   7   8
ENDBRANCH   1   7
BRANCH   4  13
ATOM     13  C   UNL     1       7.295   5.751  18.286  0.00  0.00    +0.000 C 
BRANCH  13  14
ATOM     14  C   UNL     1       6.258   5.262  19.293  0.00  0.00    +0.000 C 
BRANCH  14  15
ATOM     15  O   UNL     1       4.997   5.124  18.640  0.00  0.00    +0.000 OA
BRANCH  15  16
ATOM     16  C   UNL     1       3.996   4.507  19.343  0.00  0.00    +0.000 A 
ATOM     17  C   UNL     1       3.924   3.136  19.608  0.00  0.00    +0.000 A 
ATOM     18  C   UNL     1       2.857   2.620  20.348  0.00  0.00    +0.000 A 
ATOM     19  C   UNL     1       1.863   3.472  20.816  0.00  0.00    +0.000 A 
ATOM     20  F   UNL     1       0.848   2.968  21.529  0.00  0.00    +0.000 F 
ATOM     21  C   UNL     1       1.910   4.833  20.559  0.00  0.00    +0.000 A 
ATOM     22  C   UNL     1       2.976   5.340  19.823  0.00  0.00    +0.000 A 
ATOM     23  F   UNL     1       3.013   6.660  19.578  0.00  0.00    +0.000 F 
ENDBRANCH  15  16
ENDBRANCH  14  15
ENDBRANCH  13  14
ENDBRANCH   4  13
TORSDOF 7
ENDMDL
MODEL 9
REMARK VINA RESULT:      -6.5      1.308      1.774
REMARK  Name = 
REMARK  8 active torsions:
REMARK  status: ('A' for Active; 'I' for Inactive)
REMARK    1  A    between atoms: C_1  and  S_2
REMARK    2  A    between atoms: S_2  and  C_5
REMARK    3  A    between atoms: C_5  and  C_6
REMARK    4  A    between atoms: C_6  and  N_7
REMARK    5  A    between atoms: N_10  and  C_11
REMARK    6  A    between atoms: C_11  and  C_12
REMARK    7  A    between atoms: C_12  and  O_13
REMARK    8  A    between atoms: O_13  and  C_14
REMARK                            x       y       z     vdW  Elec       q    Type
REMARK                         _______ _______ _______ _____ _____    ______ ____
ROOT
ATOM      1  N   UNL     1       5.082   3.026  18.773  0.00  0.00    +0.000 N 
ATOM      2  C   UNL     1       5.334   4.374  18.712  0.00  0.00    +0.000 C 
ATOM      3  O   UNL     1       4.456   5.230  18.688  0.00  0.00    +0.000 OA
ATOM      4  N   UNL     1       6.674   4.655  18.682  0.00  0.00    +0.000 N 
ATOM      5  H   UNL     1       5.837   2.465  19.149  0.00  0.00    +0.000 HD
ATOM      6  H   UNL     1       7.268   3.916  18.337  0.00  0.00    +0.000 HD
ENDROOT
BRANCH   1   7
ATOM      7  C   UNL     1       3.726   2.587  19.056  0.00  0.00    +0.000 C 
BRANCH   7   8
ATOM      8  C   UNL     1       3.433   2.486  20.537  0.00  0.00    +0.000 C 
BRANCH   8  10
ATOM      9  C   UNL     1       1.870   4.804  20.977  0.00  0.00    +0.000 C 
ATOM     10  S   UNL     1       1.774   3.026  20.911  0.00  0.00    +0.000 S 
ATOM     11  O   UNL     1       1.433   2.545  22.236  0.00  0.00    +0.000 OA
ATOM     12  O   UNL     1       0.945   2.682  19.770  0.00  0.00    +0.000 OA
ENDBRANCH   8  10
ENDBRANCH   7   8
ENDBRANCH   1   7
BRANCH   4  13
ATOM     13  C   UNL     1       7.105   6.026  18.441  0.00  0.00    +0.000 C 
BRANCH  13  14
ATOM     14  C   UNL     1       7.451   6.280  16.976  0.00  0.00    +0.000 C 
BRANCH  14  15
ATOM     15  O   UNL     1       6.288   6.069  16.175  0.00  0.00    +0.000 OA
BRANCH  15  16
ATOM     16  C   UNL     1       6.450   5.349  15.021  0.00  0.00    +0.000 A 
ATOM     17  C   UNL     1       7.484   5.530  14.097  0.00  0.00    +0.000 A 
ATOM     18  C   UNL     1       7.553   4.726  12.956  0.00  0.00    +0.000 A 
ATOM     19  C   UNL     1       6.588   3.749  12.738  0.00  0.00    +0.000 A 
ATOM     20  F   UNL     1       6.667   2.981  11.644  0.00  0.00    +0.000 F 
ATOM     21  C   UNL     1       5.550   3.558  13.636  0.00  0.00    +0.000 A 
ATOM     22  C   UNL     1       5.489   4.361  14.771  0.00  0.00    +0.000 A 
ATOM     23  F   UNL     1       4.479   4.169  15.635  0.00  0.00    +0.000 F 
ENDBRANCH  15  16
ENDBRANCH  14  15
ENDBRANCH  13  14
ENDBRANCH   4  13
TORSDOF 7
ENDMDL
