MODEL 1
REMARK VINA RESULT:      -7.4      0.000      0.000
REMARK  Name = 
REMARK  4 active torsions:
REMARK  status: ('A' for Active; 'I' for Inactive)
REMARK    1  A    between atoms: C_1  and  C_2
REMARK    2  A    between atoms: C_2  and  N_3
REMARK    3  A    between atoms: C_5  and  C_6
REMARK    4  A    between atoms: N_11  and  C_12
REMARK                            x       y       z     vdW  Elec       q    Type
REMARK                         _______ _______ _______ _____ _____    ______ ____
ROOT
ATOM      1  N   UNL     1       6.406   5.183  17.425  0.00  0.00    +0.000 N 
ATOM      2  C   UNL     1       5.222   4.698  17.994  0.00  0.00    +0.000 C 
ATOM      3  C   UNL     1       4.839   4.818  19.281  0.00  0.00    +0.000 C 
ATOM      4  S   UNL     1       4.141   3.888  16.819  0.00  0.00    +0.000 S 
ATOM      5  C   UNL     1       5.361   4.185  15.548  0.00  0.00    +0.000 A 
ATOM      6  C   UNL     1       5.265   3.781  14.223  0.00  0.00    +0.000 A 
ATOM      7  C   UNL     1       6.304   4.105  13.354  0.00  0.00    +0.000 A 
ATOM      8  C   UNL     1       7.409   4.830  13.815  0.00  0.00    +0.000 A 
ATOM      9  C   UNL     1       7.499   5.224  15.158  0.00  0.00    +0.000 A 
ATOM     10  C   UNL     1       6.479   4.891  16.044  0.00  0.00    +0.000 A 
ENDROOT
BRANCH   3  11
ATOM     11  C   UNL     1       3.559   4.358  19.838  0.00  0.00    +0.000 A 
ATOM     12  C   UNL     1       2.480   5.246  19.938  0.00  0.00    +0.000 A 
ATOM     13  C   UNL     1       1.273   4.819  20.479  0.00  0.00    +0.000 A 
ATOM     14  C   UNL     1       1.155   3.509  20.915  0.00  0.00    +0.000 A 
ATOM     15  C   UNL     1       2.238   2.651  20.796  0.00  0.00    +0.000 A 
ATOM     16  N   UNL     1       3.411   3.072  20.262  0.00  0.00    +0.000 N 
ATOM     17  C   UNL     1       4.526   2.108  20.159  0.00  0.00    +0.000 C 
ENDBRANCH   3  11
BRANCH   1  19
ATOM     18  C   UNL     1       7.649   7.246  17.961  0.00  0.00    +0.000 C 
ATOM     19  C   UNL     1       7.572   5.732  18.116  0.00  0.00    +0.000 C 
ENDBRANCH   1  19
TORSDOF 2
ENDMDL
MODEL 2
REMARK VINA RESULT:      -7.2      0.710      1.580
REMARK  Name = 
REMARK  4 active torsions:
REMARK  status: ('A' for Active; 'I' for Inactive)
REMARK    1  A    between atoms: C_1  and  C_2
REMARK    2  A    between atoms: C_2  and  N_3
REMARK    3  A    between atoms: C_5  and  C_6
REMARK    4  A    between atoms: N_11  and  C_12
REMARK                            x       y       z     vdW  Elec       q    Type
REMARK                         _______ _______ _______ _____ _____    ______ ____
ROOT
ATOM      1  N   UNL     1       6.383   5.217  17.398  0.00  0.00    +0.000 N 
ATOM      2  C   UNL     1       5.213   4.716  17.982  0.00  0.00    +0.000 C 
ATOM      3  C   UNL     1       4.833   4.853  19.269  0.00  0.00    +0.000 C 
ATOM      4  S   UNL     1       4.146   3.858  16.828  0.00  0.00    +0.000 S 
ATOM      5  C   UNL     1       5.353   4.157  15.547  0.00  0.00    +0.000 A 
ATOM      6  C   UNL     1       5.261   3.724  14.230  0.00  0.00    +0.000 A 
ATOM      7  C   UNL     1       6.289   4.055  13.350  0.00  0.00    +0.000 A 
ATOM      8  C   UNL     1       7.379   4.814  13.791  0.00  0.00    +0.000 A 
ATOM      9  C   UNL     1       7.465   5.237  15.125  0.00  0.00    +0.000 A 
ATOM     10  C   UNL     1       6.457   4.899  16.023  0.00  0.00    +0.000 A 
ENDROOT
BRANCH   3  11
ATOM     11  C   UNL     1       3.566   4.376  19.841  0.00  0.00    +0.000 A 
ATOM     12  C   UNL     1       3.450   3.050  20.275  0.00  0.00    +0.000 A 
ATOM     13  C   UNL     1       2.248   2.591  20.802  0.00  0.00    +0.000 A 
ATOM     14  C   UNL     1       1.173   3.462  20.890  0.00  0.00    +0.000 A 
ATOM     15  C   UNL     1       1.321   4.772  20.459  0.00  0.00    +0.000 A 
ATOM     16  N   UNL     1       2.498   5.215  19.951  0.00  0.00    +0.000 N 
ATOM     17  C   UNL     1       2.593   6.623  19.513  0.00  0.00    +0.000 C 
ENDBRANCH   3  11
BRANCH   1  19
ATOM     18  C   UNL     1       7.607   7.312  17.845  0.00  0.00    +0.000 C 
ATOM     19  C   UNL     1       7.539   5.806  18.072  0.00  0.00    +0.000 C 
ENDBRANCH   1  19
TORSDOF 2
ENDMDL
MODEL 3
REMARK VINA RESULT:      -6.7      2.372      6.503
REMARK  Name = 
REMARK  4 active torsions:
REMARK  status: ('A' for Active; 'I' for Inactive)
REMARK    1  A    between atoms: C_1  and  C_2
REMARK    2  A    between atoms: C_2  and  N_3
REMARK    3  A    between atoms: C_5  and  C_6
REMARK    4  A    between atoms: N_11  and  C_12
REMARK                            x       y       z     vdW  Elec       q    Type
REMARK                         _______ _______ _______ _____ _____    ______ ____
ROOT
ATOM      1  N   UNL     1       2.540   5.835  19.953  0.00  0.00    +0.000 N 
ATOM      2  C   UNL     1       3.444   5.757  18.886  0.00  0.00    +0.000 C 
ATOM      3  C   UNL     1       4.221   4.704  18.564  0.00  0.00    +0.000 C 
ATOM      4  S   UNL     1       3.480   7.230  17.869  0.00  0.00    +0.000 S 
ATOM      5  C   UNL     1       2.272   7.968  18.959  0.00  0.00    +0.000 A 
ATOM      6  C   UNL     1       1.759   9.253  18.848  0.00  0.00    +0.000 A 
ATOM      7  C   UNL     1       0.810   9.672  19.778  0.00  0.00    +0.000 A 
ATOM      8  C   UNL     1       0.386   8.804  20.791  0.00  0.00    +0.000 A 
ATOM      9  C   UNL     1       0.918   7.512  20.899  0.00  0.00    +0.000 A 
ATOM     10  C   UNL     1       1.881   7.085  19.990  0.00  0.00    +0.000 A 
ENDROOT
BRANCH   3  11
ATOM     11  C   UNL     1       5.111   4.624  17.397  0.00  0.00    +0.000 A 
ATOM     12  C   UNL     1       4.606   4.204  16.160  0.00  0.00    +0.000 A 
ATOM     13  C   UNL     1       5.449   4.113  15.058  0.00  0.00    +0.000 A 
ATOM     14  C   UNL     1       6.788   4.441  15.203  0.00  0.00    +0.000 A 
ATOM     15  C   UNL     1       7.256   4.860  16.439  0.00  0.00    +0.000 A 
ATOM     16  N   UNL     1       6.428   4.953  17.509  0.00  0.00    +0.000 N 
ATOM     17  C   UNL     1       6.987   5.411  18.797  0.00  0.00    +0.000 C 
ENDBRANCH   3  11
BRANCH   1  19
ATOM     18  C   UNL     1       1.328   3.844  20.761  0.00  0.00    +0.000 C 
ATOM     19  C   UNL     1       2.385   4.898  21.065  0.00  0.00    +0.000 C 
ENDBRANCH   1  19
TORSDOF 2
ENDMDL
MODEL 4
REMARK VINA RESULT:      -6.5      1.606      6.441
REMARK  Name = 
REMARK  4 active torsions:
REMARK  status: ('A' for Active; 'I' for Inactive)
REMARK    1  A    between atoms: C_1  and  C_2
REMARK    2  A    between atoms: C_2  and  N_3
REMARK    3  A    between atoms: C_5  and  C_6
REMARK    4  A    between atoms: N_11  and  C_12
REMARK                            x       y       z     vdW  Elec       q    Type
REMARK                         _______ _______ _______ _____ _____    ______ ____
ROOT
ATOM      1  N   UNL     1       3.135   4.480  19.297  0.00  0.00    +0.000 N 
ATOM      2  C   UNL     1       3.943   4.747  18.185  0.00  0.00    +0.000 C 
ATOM      3  C   UNL     1       4.701   3.861  17.509  0.00  0.00    +0.000 C 
ATOM      4  S   UNL     1       3.871   6.451  17.640  0.00  0.00    +0.000 S 
ATOM      5  C   UNL     1       2.755   6.798  18.990  0.00  0.00    +0.000 A 
ATOM      6  C   UNL     1       2.218   8.040  19.299  0.00  0.00    +0.000 A 
ATOM      7  C   UNL     1       1.349   8.137  20.384  0.00  0.00    +0.000 A 
ATOM      8  C   UNL     1       1.026   6.999  21.132  0.00  0.00    +0.000 A 
ATOM      9  C   UNL     1       1.582   5.752  20.816  0.00  0.00    +0.000 A 
ATOM     10  C   UNL     1       2.467   5.641  19.748  0.00  0.00    +0.000 A 
ENDROOT
BRANCH   3  11
ATOM     11  C   UNL     1       5.487   4.154  16.301  0.00  0.00    +0.000 A 
ATOM     12  C   UNL     1       4.909   3.997  15.036  0.00  0.00    +0.000 A 
ATOM     13  C   UNL     1       5.654   4.258  13.892  0.00  0.00    +0.000 A 
ATOM     14  C   UNL     1       6.969   4.674  14.023  0.00  0.00    +0.000 A 
ATOM     15  C   UNL     1       7.512   4.827  15.290  0.00  0.00    +0.000 A 
ATOM     16  N   UNL     1       6.778   4.577  16.403  0.00  0.00    +0.000 N 
ATOM     17  C   UNL     1       7.412   4.764  17.724  0.00  0.00    +0.000 C 
ENDBRANCH   3  11
BRANCH   1  19
ATOM     18  C   UNL     1       2.009   2.306  19.599  0.00  0.00    +0.000 C 
ATOM     19  C   UNL     1       3.090   3.257  20.098  0.00  0.00    +0.000 C 
ENDBRANCH   1  19
TORSDOF 2
ENDMDL
MODEL 5
REMARK VINA RESULT:      -6.3      1.496      6.318
REMARK  Name = 
REMARK  4 active torsions:
REMARK  status: ('A' for Active; 'I' for Inactive)
REMARK    1  A    between atoms: C_1  and  C_2
REMARK    2  A    between atoms: C_2  and  N_3
REMARK    3  A    between atoms: C_5  and  C_6
REMARK    4  A    between atoms: N_11  and  C_12
REMARK                            x       y       z     vdW  Elec       q    Type
REMARK                         _______ _______ _______ _____ _____    ______ ____
ROOT
ATOM      1  N   UNL     1       3.113   5.716  18.854  0.00  0.00    +0.000 N 
ATOM      2  C   UNL     1       3.885   5.222  17.794  0.00  0.00    +0.000 C 
ATOM      3  C   UNL     1       4.565   5.949  16.886  0.00  0.00    +0.000 C 
ATOM      4  S   UNL     1       3.960   3.434  17.736  0.00  0.00    +0.000 S 
ATOM      5  C   UNL     1       2.879   3.379  19.157  0.00  0.00    +0.000 A 
ATOM      6  C   UNL     1       2.393   2.227  19.761  0.00  0.00    +0.000 A 
ATOM      7  C   UNL     1       1.566   2.359  20.874  0.00  0.00    +0.000 A 
ATOM      8  C   UNL     1       1.248   3.629  21.369  0.00  0.00    +0.000 A 
ATOM      9  C   UNL     1       1.737   4.785  20.745  0.00  0.00    +0.000 A 
ATOM     10  C   UNL     1       2.548   4.672  19.620  0.00  0.00    +0.000 A 
ENDROOT
BRANCH   3  11
ATOM     11  C   UNL     1       5.424   5.404  15.825  0.00  0.00    +0.000 A 
ATOM     12  C   UNL     1       4.850   4.751  14.727  0.00  0.00    +0.000 A 
ATOM     13  C   UNL     1       5.661   4.221  13.730  0.00  0.00    +0.000 A 
ATOM     14  C   UNL     1       7.036   4.349  13.839  0.00  0.00    +0.000 A 
ATOM     15  C   UNL     1       7.575   5.007  14.934  0.00  0.00    +0.000 A 
ATOM     16  N   UNL     1       6.779   5.528  15.900  0.00  0.00    +0.000 N 
ATOM     17  C   UNL     1       7.413   6.222  17.040  0.00  0.00    +0.000 C 
ENDBRANCH   3  11
BRANCH   1  19
ATOM     18  C   UNL     1       2.016   7.693  17.867  0.00  0.00    +0.000 C 
ATOM     19  C   UNL     1       2.700   7.099  19.092  0.00  0.00    +0.000 C 
ENDBRANCH   1  19
TORSDOF 2
ENDMDL
MODEL 6
REMARK VINA RESULT:      -5.9      3.721      5.548
REMARK  Name = 
REMARK  4 active torsions:
REMARK  status: ('A' for Active; 'I' for Inactive)
REMARK    1  A    between atoms: C_1  and  C_2
REMARK    2  A    between atoms: C_2  and  N_3
REMARK    3  A    between atoms: C_5  and  C_6
REMARK    4  A    between atoms: N_11  and  C_12
REMARK                            x       y       z     vdW  Elec       q    Type
REMARK                         _______ _______ _______ _____ _____    ______ ____
ROOT
ATOM      1  N   UNL     1       3.123   5.877  18.149  0.00  0.00    +0.000 N 
ATOM      2  C   UNL     1       2.369   6.598  19.084  0.00  0.00    +0.000 C 
ATOM      3  C   UNL     1       2.262   7.939  19.169  0.00  0.00    +0.000 C 
ATOM      4  S   UNL     1       1.449   5.560  20.216  0.00  0.00    +0.000 S 
ATOM      5  C   UNL     1       2.153   4.126  19.417  0.00  0.00    +0.000 A 
ATOM      6  C   UNL     1       1.931   2.805  19.780  0.00  0.00    +0.000 A 
ATOM      7  C   UNL     1       2.550   1.800  19.041  0.00  0.00    +0.000 A 
ATOM      8  C   UNL     1       3.368   2.127  17.953  0.00  0.00    +0.000 A 
ATOM      9  C   UNL     1       3.593   3.465  17.602  0.00  0.00    +0.000 A 
ATOM     10  C   UNL     1       2.997   4.482  18.342  0.00  0.00    +0.000 A 
ENDROOT
BRANCH   3  11
ATOM     11  C   UNL     1       1.409   8.669  20.118  0.00  0.00    +0.000 A 
ATOM     12  C   UNL     1       1.525   8.429  21.492  0.00  0.00    +0.000 A 
ATOM     13  C   UNL     1       0.708   9.106  22.390  0.00  0.00    +0.000 A 
ATOM     14  C   UNL     1      -0.216  10.018  21.906  0.00  0.00    +0.000 A 
ATOM     15  C   UNL     1      -0.303  10.240  20.540  0.00  0.00    +0.000 A 
ATOM     16  N   UNL     1       0.500   9.581  19.669  0.00  0.00    +0.000 N 
ATOM     17  C   UNL     1       0.363   9.866  18.226  0.00  0.00    +0.000 C 
ENDBRANCH   3  11
BRANCH   1  19
ATOM     18  C   UNL     1       5.514   6.376  17.804  0.00  0.00    +0.000 C 
ATOM     19  C   UNL     1       4.113   6.395  17.206  0.00  0.00    +0.000 C 
ENDBRANCH   1  19
TORSDOF 2
ENDMDL
MODEL 7
REMARK VINA RESULT:      -5.9      1.230      1.308
REMARK  Name = 
REMARK  4 active torsions:
REMARK  status: ('A' for Active; 'I' for Inactive)
REMARK    1  A    between atoms: C_1  and  C_2
REMARK    2  A    between atoms: C_2  and  N_3
REMARK    3  A    between atoms: C_5  and  C_6
REMARK    4  A    between atoms: N_11  and  C_12
REMARK                            x       y       z     vdW  Elec       q    Type
REMARK                         _______ _______ _______ _____ _____    ______ ____
ROOT
ATOM      1  N   UNL     1       6.423   5.218  16.422  0.00  0.00    +0.000 N 
ATOM      2  C   UNL     1       5.260   4.562  16.844  0.00  0.00    +0.000 C 
ATOM      3  C   UNL     1       4.704   4.618  18.071  0.00  0.00    +0.000 C 
ATOM      4  S   UNL     1       4.466   3.609  15.553  0.00  0.00    +0.000 S 
ATOM      5  C   UNL     1       5.780   4.087  14.442  0.00  0.00    +0.000 A 
ATOM      6  C   UNL     1       5.913   3.681  13.121  0.00  0.00    +0.000 A 
ATOM      7  C   UNL     1       6.995   4.158  12.385  0.00  0.00    +0.000 A 
ATOM      8  C   UNL     1       7.915   5.034  12.972  0.00  0.00    +0.000 A 
ATOM      9  C   UNL     1       7.776   5.430  14.310  0.00  0.00    +0.000 A 
ATOM     10  C   UNL     1       6.712   4.947  15.065  0.00  0.00    +0.000 A 
ENDROOT
BRANCH   3  11
ATOM     11  C   UNL     1       3.444   3.974  18.468  0.00  0.00    +0.000 A 
ATOM     12  C   UNL     1       2.228   4.438  17.953  0.00  0.00    +0.000 A 
ATOM     13  C   UNL     1       1.033   3.841  18.339  0.00  0.00    +0.000 A 
ATOM     14  C   UNL     1       1.066   2.786  19.237  0.00  0.00    +0.000 A 
ATOM     15  C   UNL     1       2.286   2.343  19.724  0.00  0.00    +0.000 A 
ATOM     16  N   UNL     1       3.448   2.926  19.339  0.00  0.00    +0.000 N 
ATOM     17  C   UNL     1       4.716   2.405  19.891  0.00  0.00    +0.000 C 
ENDBRANCH   3  11
BRANCH   1  19
ATOM     18  C   UNL     1       7.025   7.395  17.415  0.00  0.00    +0.000 C 
ATOM     19  C   UNL     1       7.400   5.928  17.246  0.00  0.00    +0.000 C 
ENDBRANCH   1  19
TORSDOF 2
ENDMDL
MODEL 8
REMARK VINA RESULT:      -5.8      2.310      6.492
REMARK  Name = 
REMARK  4 active torsions:
REMARK  status: ('A' for Active; 'I' for Inactive)
REMARK    1  A    between atoms: C_1  and  C_2
REMARK    2  A    between atoms: C_2  and  N_3
REMARK    3  A    between atoms: C_5  and  C_6
REMARK    4  A    between atoms: N_11  and  C_12
REMARK                            x       y       z     vdW  Elec       q    Type
REMARK                         _______ _______ _______ _____ _____    ______ ____
ROOT
ATOM      1  N   UNL     1       2.521   5.514  20.312  0.00  0.00    +0.000 N 
ATOM      2  C   UNL     1       3.473   5.449  19.286  0.00  0.00    +0.000 C 
ATOM      3  C   UNL     1       4.277   4.405  19.000  0.00  0.00    +0.000 C 
ATOM      4  S   UNL     1       3.536   6.922  18.271  0.00  0.00    +0.000 S 
ATOM      5  C   UNL     1       2.272   7.644  19.305  0.00  0.00    +0.000 A 
ATOM      6  C   UNL     1       1.747   8.923  19.170  0.00  0.00    +0.000 A 
ATOM      7  C   UNL     1       0.752   9.329  20.057  0.00  0.00    +0.000 A 
ATOM      8  C   UNL     1       0.294   8.456  21.050  0.00  0.00    +0.000 A 
ATOM      9  C   UNL     1       0.838   7.171  21.182  0.00  0.00    +0.000 A 
ATOM     10  C   UNL     1       1.846   6.756  20.318  0.00  0.00    +0.000 A 
ENDROOT
BRANCH   3  11
ATOM     11  C   UNL     1       5.220   4.336  17.874  0.00  0.00    +0.000 A 
ATOM     12  C   UNL     1       6.544   4.757  18.044  0.00  0.00    +0.000 A 
ATOM     13  C   UNL     1       7.434   4.708  16.977  0.00  0.00    +0.000 A 
ATOM     14  C   UNL     1       6.992   4.238  15.751  0.00  0.00    +0.000 A 
ATOM     15  C   UNL     1       5.676   3.822  15.615  0.00  0.00    +0.000 A 
ATOM     16  N   UNL     1       4.814   3.866  16.661  0.00  0.00    +0.000 N 
ATOM     17  C   UNL     1       3.427   3.403  16.454  0.00  0.00    +0.000 C 
ENDBRANCH   3  11
BRANCH   1  19
ATOM     18  C   UNL     1       1.348   3.471  21.042  0.00  0.00    +0.000 C 
ATOM     19  C   UNL     1       2.329   4.576  21.416  0.00  0.00    +0.000 C 
ENDBRANCH   1  19
TORSDOF 2
ENDMDL
MODEL 9
REMARK VINA RESULT:      -5.8      4.009      5.765
REMARK  Name = 
REMARK  4 active torsions:
REMARK  status: ('A' for Active; 'I' for Inactive)
REMARK    1  A    between atoms: C_1  and  C_2
REMARK    2  A    between atoms: C_2  and  N_3
REMARK    3  A    between atoms: C_5  and  C_6
REMARK    4  A    between atoms: N_11  and  C_12
REMARK                            x       y       z     vdW  Elec       q    Type
REMARK                         _______ _______ _______ _____ _____    ______ ____
ROOT
ATOM      1  N   UNL     1       2.762   5.788  19.736  0.00  0.00    +0.000 N 
ATOM      2  C   UNL     1       2.270   7.088  19.570  0.00  0.00    +0.000 C 
ATOM      3  C   UNL     1       1.432   7.744  20.398  0.00  0.00    +0.000 C 
ATOM      4  S   UNL     1       2.901   7.912  18.111  0.00  0.00    +0.000 S 
ATOM      5  C   UNL     1       3.810   6.428  17.710  0.00  0.00    +0.000 A 
ATOM      6  C   UNL     1       4.602   6.242  16.585  0.00  0.00    +0.000 A 
ATOM      7  C   UNL     1       5.256   5.022  16.428  0.00  0.00    +0.000 A 
ATOM      8  C   UNL     1       5.118   4.019  17.394  0.00  0.00    +0.000 A 
ATOM      9  C   UNL     1       4.307   4.215  18.521  0.00  0.00    +0.000 A 
ATOM     10  C   UNL     1       3.631   5.420  18.683  0.00  0.00    +0.000 A 
ENDROOT
BRANCH   3  11
ATOM     11  C   UNL     1       0.984   9.135  20.236  0.00  0.00    +0.000 A 
ATOM     12  C   UNL     1       0.743   9.647  18.955  0.00  0.00    +0.000 A 
ATOM     13  C   UNL     1       0.335  10.966  18.798  0.00  0.00    +0.000 A 
ATOM     14  C   UNL     1       0.172  11.761  19.921  0.00  0.00    +0.000 A 
ATOM     15  C   UNL     1       0.412  11.224  21.177  0.00  0.00    +0.000 A 
ATOM     16  N   UNL     1       0.804   9.934  21.325  0.00  0.00    +0.000 N 
ATOM     17  C   UNL     1       1.038   9.418  22.689  0.00  0.00    +0.000 C 
ENDBRANCH   3  11
BRANCH   1  19
ATOM     18  C   UNL     1       1.030   4.115  20.272  0.00  0.00    +0.000 C 
ATOM     19  C   UNL     1       2.329   4.783  20.706  0.00  0.00    +0.000 C 
ENDBRANCH   1  19
TORSDOF 2
ENDMDL
