MODEL 1
REMARK VINA RESULT:      -8.8      0.000      0.000
REMARK  Name = 
REMARK  5 active torsions:
REMARK  status: ('A' for Active; 'I' for Inactive)
REMARK    1  A    between atoms: C_1  and  N_2
REMARK    2  A    between atoms: C_4  and  C_5
REMARK    3  A    between atoms: N_7  and  C_8
REMARK    4  A    between atoms: C_11  and  N_12
REMARK    5  A    between atoms: C_19  and  C_20
REMARK                            x       y       z     vdW  Elec       q    Type
REMARK                         _______ _______ _______ _____ _____    ______ ____
ROOT
ATOM      1  C   UNL     1       0.443  10.189  19.864  0.00  0.00    +0.000 A 
ATOM      2  C   UNL     1       0.781  10.202  18.515  0.00  0.00    +0.000 A 
ATOM      3  C   UNL     1       1.569   9.180  17.962  0.00  0.00    +0.000 A 
ATOM      4  C   UNL     1       2.046   8.105  18.738  0.00  0.00    +0.000 A 
ATOM      5  C   UNL     1       1.709   8.079  20.093  0.00  0.00    +0.000 A 
ATOM      6  C   UNL     1       0.924   9.119  20.637  0.00  0.00    +0.000 A 
ATOM      7  F   UNL     1       0.614   9.068  21.942  0.00  0.00    +0.000 F 
ENDROOT
BRANCH   4   8
ATOM      8  N   UNL     1       2.863   7.086  18.131  0.00  0.00    +0.000 N 
ATOM      9  C   UNL     1       3.997   7.337  17.396  0.00  0.00    +0.000 A 
ATOM     10  C   UNL     1       4.493   6.128  17.030  0.00  0.00    +0.000 A 
ATOM     11  C   UNL     1       5.650   5.986  16.277  0.00  0.00    +0.000 A 
ATOM     12  C   UNL     1       5.935   4.642  16.038  0.00  0.00    +0.000 A 
ATOM     13  F   UNL     1       7.031   4.346  15.323  0.00  0.00    +0.000 F 
ATOM     14  C   UNL     1       5.137   3.572  16.508  0.00  0.00    +0.000 A 
ATOM     15  C   UNL     1       3.949   3.747  17.280  0.00  0.00    +0.000 A 
ATOM     16  C   UNL     1       3.615   5.107  17.555  0.00  0.00    +0.000 A 
ATOM     17  N   UNL     1       2.612   5.729  18.235  0.00  0.00    +0.000 NA
BRANCH  15  18
ATOM     18  C   UNL     1       3.225   2.529  17.688  0.00  0.00    +0.000 C 
ATOM     19  N   UNL     1       3.927   1.500  18.227  0.00  0.00    +0.000 N 
ATOM     20  O   UNL     1       2.010   2.444  17.548  0.00  0.00    +0.000 OA
ATOM     21  H   UNL     1       4.936   1.536  18.366  0.00  0.00    +0.000 HD
ATOM     22  H   UNL     1       3.405   0.680  18.505  0.00  0.00    +0.000 HD
ENDBRANCH  15  18
ENDBRANCH   4   8
BRANCH   1  25
ATOM     23  C   UNL     1       0.119  12.336  21.148  0.00  0.00    +0.000 C 
ATOM     24  O   UNL     1       1.315  12.636  21.246  0.00  0.00    +0.000 OA
ATOM     25  N   UNL     1      -0.340  11.205  20.476  0.00  0.00    +0.000 N 
ATOM     26  H   UNL     1      -1.351  11.134  20.357  0.00  0.00    +0.000 HD
BRANCH  23  30
ATOM     27  C   UNL     1      -3.516  12.355  23.738  0.00  0.00    +0.000 C 
ATOM     28  N   UNL     1      -2.313  12.167  22.934  0.00  0.00    +0.000 NA
ATOM     29  C   UNL     1      -2.455  12.836  21.608  0.00  0.00    +0.000 C 
ATOM     30  C   UNL     1      -0.972  13.256  21.757  0.00  0.00    +0.000 C 
ATOM     31  C   UNL     1      -1.280  13.186  23.273  0.00  0.00    +0.000 C 
ENDBRANCH  23  30
ENDBRANCH   1  25
TORSDOF 4
ENDMDL
MODEL 2
REMARK VINA RESULT:      -8.7      1.297      1.761
REMARK  Name = 
REMARK  5 active torsions:
REMARK  status: ('A' for Active; 'I' for Inactive)
REMARK    1  A    between atoms: C_1  and  N_2
REMARK    2  A    between atoms: C_4  and  C_5
REMARK    3  A    between atoms: N_7  and  C_8
REMARK    4  A    between atoms: C_11  and  N_12
REMARK    5  A    between atoms: C_19  and  C_20
REMARK                            x       y       z     vdW  Elec       q    Type
REMARK                         _______ _______ _______ _____ _____    ______ ____
ROOT
ATOM      1  C   UNL     1       0.443   9.798  20.632  0.00  0.00    +0.000 A 
ATOM      2  C   UNL     1       0.927   8.629  21.210  0.00  0.00    +0.000 A 
ATOM      3  C   UNL     1       1.696   7.724  20.462  0.00  0.00    +0.000 A 
ATOM      4  C   UNL     1       2.014   7.956  19.109  0.00  0.00    +0.000 A 
ATOM      5  C   UNL     1       1.537   9.129  18.520  0.00  0.00    +0.000 A 
ATOM      6  C   UNL     1       0.755  10.024  19.281  0.00  0.00    +0.000 A 
ATOM      7  F   UNL     1       0.311  11.146  18.690  0.00  0.00    +0.000 F 
ENDROOT
BRANCH   4   8
ATOM      8  N   UNL     1       2.795   6.992  18.377  0.00  0.00    +0.000 N 
ATOM      9  C   UNL     1       3.837   7.313  17.540  0.00  0.00    +0.000 A 
ATOM     10  C   UNL     1       4.330   6.139  17.073  0.00  0.00    +0.000 A 
ATOM     11  C   UNL     1       5.406   6.069  16.199  0.00  0.00    +0.000 A 
ATOM     12  C   UNL     1       5.708   4.747  15.874  0.00  0.00    +0.000 A 
ATOM     13  F   UNL     1       6.732   4.520  15.037  0.00  0.00    +0.000 F 
ATOM     14  C   UNL     1       4.998   3.630  16.378  0.00  0.00    +0.000 A 
ATOM     15  C   UNL     1       3.893   3.732  17.275  0.00  0.00    +0.000 A 
ATOM     16  C   UNL     1       3.546   5.066  17.642  0.00  0.00    +0.000 A 
ATOM     17  N   UNL     1       2.601   5.624  18.449  0.00  0.00    +0.000 NA
BRANCH  15  18
ATOM     18  C   UNL     1       3.256   2.473  17.704  0.00  0.00    +0.000 C 
ATOM     19  N   UNL     1       4.026   1.508  18.268  0.00  0.00    +0.000 N 
ATOM     20  O   UNL     1       2.051   2.297  17.558  0.00  0.00    +0.000 OA
ATOM     21  H   UNL     1       5.029   1.619  18.412  0.00  0.00    +0.000 HD
ATOM     22  H   UNL     1       3.562   0.659  18.560  0.00  0.00    +0.000 HD
ENDBRANCH  15  18
ENDBRANCH   4   8
BRANCH   1  25
ATOM     23  C   UNL     1      -0.586  10.786  22.713  0.00  0.00    +0.000 C 
ATOM     24  O   UNL     1      -0.060  10.015  23.524  0.00  0.00    +0.000 OA
ATOM     25  N   UNL     1      -0.352  10.740  21.340  0.00  0.00    +0.000 N 
ATOM     26  H   UNL     1      -0.745  11.506  20.793  0.00  0.00    +0.000 HD
BRANCH  23  30
ATOM     27  C   UNL     1      -2.673  14.522  21.447  0.00  0.00    +0.000 C 
ATOM     28  N   UNL     1      -1.935  13.287  21.683  0.00  0.00    +0.000 NA
ATOM     29  C   UNL     1      -1.136  13.381  22.939  0.00  0.00    +0.000 C 
ATOM     30  C   UNL     1      -1.537  11.909  23.204  0.00  0.00    +0.000 C 
ATOM     31  C   UNL     1      -2.789  12.278  22.370  0.00  0.00    +0.000 C 
ENDBRANCH  23  30
ENDBRANCH   1  25
TORSDOF 4
ENDMDL
MODEL 3
REMARK VINA RESULT:      -8.6      1.124      1.229
REMARK  Name = 
REMARK  5 active torsions:
REMARK  status: ('A' for Active; 'I' for Inactive)
REMARK    1  A    between atoms: C_1  and  N_2
REMARK    2  A    between atoms: C_4  and  C_5
REMARK    3  A    between atoms: N_7  and  C_8
REMARK    4  A    between atoms: C_11  and  N_12
REMARK    5  A    between atoms: C_19  and  C_20
REMARK                            x       y       z     vdW  Elec       q    Type
REMARK                         _______ _______ _______ _____ _____    ______ ____
ROOT
ATOM      1  C   UNL     1      -0.042  10.122  20.906  0.00  0.00    +0.000 A 
ATOM      2  C   UNL     1       0.186  10.225  19.539  0.00  0.00    +0.000 A 
ATOM      3  C   UNL     1       1.031   9.317  18.881  0.00  0.00    +0.000 A 
ATOM      4  C   UNL     1       1.676   8.268  19.567  0.00  0.00    +0.000 A 
ATOM      5  C   UNL     1       1.450   8.153  20.940  0.00  0.00    +0.000 A 
ATOM      6  C   UNL     1       0.607   9.080  21.589  0.00  0.00    +0.000 A 
ATOM      7  F   UNL     1       0.406   8.944  22.910  0.00  0.00    +0.000 F 
ENDROOT
BRANCH   4   8
ATOM      8  N   UNL     1       2.545   7.368  18.853  0.00  0.00    +0.000 N 
ATOM      9  C   UNL     1       3.313   7.726  17.771  0.00  0.00    +0.000 A 
ATOM     10  C   UNL     1       4.006   6.617  17.408  0.00  0.00    +0.000 A 
ATOM     11  C   UNL     1       4.901   6.604  16.348  0.00  0.00    +0.000 A 
ATOM     12  C   UNL     1       5.474   5.342  16.187  0.00  0.00    +0.000 A 
ATOM     13  F   UNL     1       6.366   5.175  15.199  0.00  0.00    +0.000 F 
ATOM     14  C   UNL     1       5.171   4.229  17.008  0.00  0.00    +0.000 A 
ATOM     15  C   UNL     1       4.244   4.272  18.093  0.00  0.00    +0.000 A 
ATOM     16  C   UNL     1       3.632   5.544  18.301  0.00  0.00    +0.000 A 
ATOM     17  N   UNL     1       2.724   6.038  19.189  0.00  0.00    +0.000 NA
BRANCH  15  18
ATOM     18  C   UNL     1       4.034   3.024  18.849  0.00  0.00    +0.000 C 
ATOM     19  N   UNL     1       5.053   2.534  19.600  0.00  0.00    +0.000 N 
ATOM     20  O   UNL     1       2.958   2.437  18.807  0.00  0.00    +0.000 OA
ATOM     21  H   UNL     1       5.959   2.996  19.666  0.00  0.00    +0.000 HD
ATOM     22  H   UNL     1       4.880   1.681  20.114  0.00  0.00    +0.000 HD
ENDBRANCH  15  18
ENDBRANCH   4   8
BRANCH   1  25
ATOM     23  C   UNL     1      -0.543  12.292  22.091  0.00  0.00    +0.000 C 
ATOM     24  O   UNL     1       0.548  12.836  21.880  0.00  0.00    +0.000 OA
ATOM     25  N   UNL     1      -0.876  11.023  21.622  0.00  0.00    +0.000 N 
ATOM     26  H   UNL     1      -1.847  10.737  21.754  0.00  0.00    +0.000 HD
BRANCH  23  30
ATOM     27  C   UNL     1      -4.948  12.971  22.319  0.00  0.00    +0.000 C 
ATOM     28  N   UNL     1      -3.546  12.627  22.108  0.00  0.00    +0.000 NA
ATOM     29  C   UNL     1      -2.698  13.854  22.091  0.00  0.00    +0.000 C 
ATOM     30  C   UNL     1      -1.649  13.037  22.884  0.00  0.00    +0.000 C 
ATOM     31  C   UNL     1      -2.888  12.260  23.394  0.00  0.00    +0.000 C 
ENDBRANCH  23  30
ENDBRANCH   1  25
TORSDOF 4
ENDMDL
MODEL 4
REMARK VINA RESULT:      -8.6      1.302      1.657
REMARK  Name = 
REMARK  5 active torsions:
REMARK  status: ('A' for Active; 'I' for Inactive)
REMARK    1  A    between atoms: C_1  and  N_2
REMARK    2  A    between atoms: C_4  and  C_5
REMARK    3  A    between atoms: N_7  and  C_8
REMARK    4  A    between atoms: C_11  and  N_12
REMARK    5  A    between atoms: C_19  and  C_20
REMARK                            x       y       z     vdW  Elec       q    Type
REMARK                         _______ _______ _______ _____ _____    ______ ____
ROOT
ATOM      1  C   UNL     1       0.057  10.001  21.030  0.00  0.00    +0.000 A 
ATOM      2  C   UNL     1       0.637   8.888  21.628  0.00  0.00    +0.000 A 
ATOM      3  C   UNL     1       1.466   8.028  20.893  0.00  0.00    +0.000 A 
ATOM      4  C   UNL     1       1.751   8.250  19.531  0.00  0.00    +0.000 A 
ATOM      5  C   UNL     1       1.178   9.368  18.920  0.00  0.00    +0.000 A 
ATOM      6  C   UNL     1       0.337  10.219  19.670  0.00  0.00    +0.000 A 
ATOM      7  F   UNL     1      -0.199  11.287  19.058  0.00  0.00    +0.000 F 
ENDROOT
BRANCH   4   8
ATOM      8  N   UNL     1       2.597   7.333  18.812  0.00  0.00    +0.000 N 
ATOM      9  C   UNL     1       3.362   7.674  17.722  0.00  0.00    +0.000 A 
ATOM     10  C   UNL     1       4.032   6.552  17.357  0.00  0.00    +0.000 A 
ATOM     11  C   UNL     1       4.917   6.520  16.288  0.00  0.00    +0.000 A 
ATOM     12  C   UNL     1       5.466   5.247  16.127  0.00  0.00    +0.000 A 
ATOM     13  F   UNL     1       6.347   5.062  15.131  0.00  0.00    +0.000 F 
ATOM     14  C   UNL     1       5.151   4.143  16.953  0.00  0.00    +0.000 A 
ATOM     15  C   UNL     1       4.235   4.205  18.046  0.00  0.00    +0.000 A 
ATOM     16  C   UNL     1       3.647   5.488  18.256  0.00  0.00    +0.000 A 
ATOM     17  N   UNL     1       2.756   6.001  19.150  0.00  0.00    +0.000 NA
BRANCH  15  18
ATOM     18  C   UNL     1       4.009   2.963  18.808  0.00  0.00    +0.000 C 
ATOM     19  N   UNL     1       4.998   2.502  19.615  0.00  0.00    +0.000 N 
ATOM     20  O   UNL     1       2.947   2.355  18.720  0.00  0.00    +0.000 OA
ATOM     21  H   UNL     1       5.891   2.981  19.720  0.00  0.00    +0.000 HD
ATOM     22  H   UNL     1       4.814   1.652  20.132  0.00  0.00    +0.000 HD
ENDBRANCH  15  18
ENDBRANCH   4   8
BRANCH   1  25
ATOM     23  C   UNL     1      -0.513  12.196  22.134  0.00  0.00    +0.000 C 
ATOM     24  O   UNL     1       0.548  12.777  21.876  0.00  0.00    +0.000 OA
ATOM     25  N   UNL     1      -0.801  10.896  21.725  0.00  0.00    +0.000 N 
ATOM     26  H   UNL     1      -1.755  10.575  21.890  0.00  0.00    +0.000 HD
BRANCH  23  30
ATOM     27  C   UNL     1      -4.913  12.941  22.238  0.00  0.00    +0.000 C 
ATOM     28  N   UNL     1      -3.510  12.582  22.062  0.00  0.00    +0.000 NA
ATOM     29  C   UNL     1      -2.643  13.794  22.124  0.00  0.00    +0.000 C 
ATOM     30  C   UNL     1      -1.635  12.927  22.918  0.00  0.00    +0.000 C 
ATOM     31  C   UNL     1      -2.902  12.152  23.352  0.00  0.00    +0.000 C 
ENDBRANCH  23  30
ENDBRANCH   1  25
TORSDOF 4
ENDMDL
MODEL 5
REMARK VINA RESULT:      -8.4      1.078      1.407
REMARK  Name = 
REMARK  5 active torsions:
REMARK  status: ('A' for Active; 'I' for Inactive)
REMARK    1  A    between atoms: C_1  and  N_2
REMARK    2  A    between atoms: C_4  and  C_5
REMARK    3  A    between atoms: N_7  and  C_8
REMARK    4  A    between atoms: C_11  and  N_12
REMARK    5  A    between atoms: C_19  and  C_20
REMARK                            x       y       z     vdW  Elec       q    Type
REMARK                         _______ _______ _______ _____ _____    ______ ____
ROOT
ATOM      1  C   UNL     1       0.249  10.225  20.244  0.00  0.00    +0.000 A 
ATOM      2  C   UNL     1       0.735   9.138  20.963  0.00  0.00    +0.000 A 
ATOM      3  C   UNL     1       1.526   8.161  20.339  0.00  0.00    +0.000 A 
ATOM      4  C   UNL     1       1.865   8.235  18.973  0.00  0.00    +0.000 A 
ATOM      5  C   UNL     1       1.386   9.326  18.243  0.00  0.00    +0.000 A 
ATOM      6  C   UNL     1       0.582  10.295  18.881  0.00  0.00    +0.000 A 
ATOM      7  F   UNL     1       0.138  11.333  18.155  0.00  0.00    +0.000 F 
ENDROOT
BRANCH   4   8
ATOM      8  N   UNL     1       2.668   7.202  18.373  0.00  0.00    +0.000 N 
ATOM      9  C   UNL     1       3.729   7.435  17.531  0.00  0.00    +0.000 A 
ATOM     10  C   UNL     1       4.239   6.220  17.209  0.00  0.00    +0.000 A 
ATOM     11  C   UNL     1       5.336   6.061  16.375  0.00  0.00    +0.000 A 
ATOM     12  C   UNL     1       5.652   4.713  16.207  0.00  0.00    +0.000 A 
ATOM     13  F   UNL     1       6.698   4.402  15.425  0.00  0.00    +0.000 F 
ATOM     14  C   UNL     1       4.935   3.655  16.814  0.00  0.00    +0.000 A 
ATOM     15  C   UNL     1       3.807   3.847  17.667  0.00  0.00    +0.000 A 
ATOM     16  C   UNL     1       3.445   5.212  17.875  0.00  0.00    +0.000 A 
ATOM     17  N   UNL     1       2.478   5.849  18.591  0.00  0.00    +0.000 NA
BRANCH  15  18
ATOM     18  C   UNL     1       3.165   2.639  18.217  0.00  0.00    +0.000 C 
ATOM     19  N   UNL     1       2.099   2.784  19.045  0.00  0.00    +0.000 N 
ATOM     20  O   UNL     1       3.580   1.521  17.932  0.00  0.00    +0.000 OA
ATOM     21  H   UNL     1       1.720   3.695  19.300  0.00  0.00    +0.000 HD
ATOM     22  H   UNL     1       1.673   1.939  19.402  0.00  0.00    +0.000 HD
ENDBRANCH  15  18
ENDBRANCH   4   8
BRANCH   1  25
ATOM     23  C   UNL     1      -0.147  12.424  21.414  0.00  0.00    +0.000 C 
ATOM     24  O   UNL     1       1.033  12.790  21.454  0.00  0.00    +0.000 OA
ATOM     25  N   UNL     1      -0.567  11.234  20.824  0.00  0.00    +0.000 N 
ATOM     26  H   UNL     1      -1.576  11.105  20.744  0.00  0.00    +0.000 HD
BRANCH  23  30
ATOM     27  C   UNL     1      -3.729  12.399  24.078  0.00  0.00    +0.000 C 
ATOM     28  N   UNL     1      -2.535  12.229  23.257  0.00  0.00    +0.000 NA
ATOM     29  C   UNL     1      -2.731  12.832  21.907  0.00  0.00    +0.000 C 
ATOM     30  C   UNL     1      -1.266  13.322  22.006  0.00  0.00    +0.000 C 
ATOM     31  C   UNL     1      -1.541  13.306  23.530  0.00  0.00    +0.000 C 
ENDBRANCH  23  30
ENDBRANCH   1  25
TORSDOF 4
ENDMDL
MODEL 6
REMARK VINA RESULT:      -8.3      1.327      1.338
REMARK  Name = 
REMARK  5 active torsions:
REMARK  status: ('A' for Active; 'I' for Inactive)
REMARK    1  A    between atoms: C_1  and  N_2
REMARK    2  A    between atoms: C_4  and  C_5
REMARK    3  A    between atoms: N_7  and  C_8
REMARK    4  A    between atoms: C_11  and  N_12
REMARK    5  A    between atoms: C_19  and  C_20
REMARK                            x       y       z     vdW  Elec       q    Type
REMARK                         _______ _______ _______ _____ _____    ______ ____
ROOT
ATOM      1  C   UNL     1      -0.009  10.411  20.494  0.00  0.00    +0.000 A 
ATOM      2  C   UNL     1       0.426  10.419  19.174  0.00  0.00    +0.000 A 
ATOM      3  C   UNL     1       1.252   9.395  18.683  0.00  0.00    +0.000 A 
ATOM      4  C   UNL     1       1.671   8.322  19.495  0.00  0.00    +0.000 A 
ATOM      5  C   UNL     1       1.237   8.301  20.822  0.00  0.00    +0.000 A 
ATOM      6  C   UNL     1       0.415   9.343  21.304  0.00  0.00    +0.000 A 
ATOM      7  F   UNL     1       0.010   9.296  22.584  0.00  0.00    +0.000 F 
ENDROOT
BRANCH   4   8
ATOM      8  N   UNL     1       2.530   7.301  18.952  0.00  0.00    +0.000 N 
ATOM      9  C   UNL     1       3.265   7.438  17.799  0.00  0.00    +0.000 A 
ATOM     10  C   UNL     1       3.960   6.283  17.647  0.00  0.00    +0.000 A 
ATOM     11  C   UNL     1       4.826   6.060  16.586  0.00  0.00    +0.000 A 
ATOM     12  C   UNL     1       5.408   4.795  16.666  0.00  0.00    +0.000 A 
ATOM     13  F   UNL     1       6.275   4.437  15.706  0.00  0.00    +0.000 F 
ATOM     14  C   UNL     1       5.139   3.869  17.702  0.00  0.00    +0.000 A 
ATOM     15  C   UNL     1       4.241   4.124  18.782  0.00  0.00    +0.000 A 
ATOM     16  C   UNL     1       3.621   5.409  18.747  0.00  0.00    +0.000 A 
ATOM     17  N   UNL     1       2.733   6.066  19.543  0.00  0.00    +0.000 NA
BRANCH  15  18
ATOM     18  C   UNL     1       4.065   3.052  19.778  0.00  0.00    +0.000 C 
ATOM     19  N   UNL     1       2.846   2.885  20.351  0.00  0.00    +0.000 N 
ATOM     20  O   UNL     1       4.999   2.319  20.086  0.00  0.00    +0.000 OA
ATOM     21  H   UNL     1       2.043   3.469  20.118  0.00  0.00    +0.000 HD
ATOM     22  H   UNL     1       2.750   2.138  21.026  0.00  0.00    +0.000 HD
ENDBRANCH  15  18
ENDBRANCH   4   8
BRANCH   1  25
ATOM     23  C   UNL     1      -0.423  12.625  21.629  0.00  0.00    +0.000 C 
ATOM     24  O   UNL     1       0.757  12.989  21.687  0.00  0.00    +0.000 OA
ATOM     25  N   UNL     1      -0.834  11.428  21.044  0.00  0.00    +0.000 N 
ATOM     26  H   UNL     1      -1.841  11.301  20.946  0.00  0.00    +0.000 HD
BRANCH  23  30
ATOM     27  C   UNL     1      -3.998  12.665  24.300  0.00  0.00    +0.000 C 
ATOM     28  N   UNL     1      -2.804  12.476  23.484  0.00  0.00    +0.000 NA
ATOM     29  C   UNL     1      -3.011  13.021  22.111  0.00  0.00    +0.000 C 
ATOM     30  C   UNL     1      -1.551  13.532  22.187  0.00  0.00    +0.000 C 
ATOM     31  C   UNL     1      -1.823  13.574  23.710  0.00  0.00    +0.000 C 
ENDBRANCH  23  30
ENDBRANCH   1  25
TORSDOF 4
ENDMDL
MODEL 7
REMARK VINA RESULT:      -8.3      1.085      1.242
REMARK  Name = 
REMARK  5 active torsions:
REMARK  status: ('A' for Active; 'I' for Inactive)
REMARK    1  A    between atoms: C_1  and  N_2
REMARK    2  A    between atoms: C_4  and  C_5
REMARK    3  A    between atoms: N_7  and  C_8
REMARK    4  A    between atoms: C_11  and  N_12
REMARK    5  A    between atoms: C_19  and  C_20
REMARK                            x       y       z     vdW  Elec       q    Type
REMARK                         _______ _______ _______ _____ _____    ______ ____
ROOT
ATOM      1  C   UNL     1       0.555  10.293  19.651  0.00  0.00    +0.000 A 
ATOM      2  C   UNL     1       1.030  10.339  18.345  0.00  0.00    +0.000 A 
ATOM      3  C   UNL     1       1.817   9.297  17.831  0.00  0.00    +0.000 A 
ATOM      4  C   UNL     1       2.156   8.168  18.603  0.00  0.00    +0.000 A 
ATOM      5  C   UNL     1       1.681   8.109  19.915  0.00  0.00    +0.000 A 
ATOM      6  C   UNL     1       0.899   9.170  20.421  0.00  0.00    +0.000 A 
ATOM      7  F   UNL     1       0.454   9.086  21.686  0.00  0.00    +0.000 F 
ENDROOT
BRANCH   4   8
ATOM      8  N   UNL     1       2.978   7.129  18.037  0.00  0.00    +0.000 N 
ATOM      9  C   UNL     1       4.130   7.355  17.322  0.00  0.00    +0.000 A 
ATOM     10  C   UNL     1       4.624   6.134  16.994  0.00  0.00    +0.000 A 
ATOM     11  C   UNL     1       5.796   5.966  16.271  0.00  0.00    +0.000 A 
ATOM     12  C   UNL     1       6.076   4.615  16.068  0.00  0.00    +0.000 A 
ATOM     13  F   UNL     1       7.185   4.295  15.384  0.00  0.00    +0.000 F 
ATOM     14  C   UNL     1       5.259   3.562  16.544  0.00  0.00    +0.000 A 
ATOM     15  C   UNL     1       4.055   3.764  17.286  0.00  0.00    +0.000 A 
ATOM     16  C   UNL     1       3.727   5.132  17.523  0.00  0.00    +0.000 A 
ATOM     17  N   UNL     1       2.715   5.777  18.167  0.00  0.00    +0.000 NA
BRANCH  15  18
ATOM     18  C   UNL     1       3.313   2.561  17.705  0.00  0.00    +0.000 C 
ATOM     19  N   UNL     1       3.950   1.627  18.457  0.00  0.00    +0.000 N 
ATOM     20  O   UNL     1       2.139   2.404  17.386  0.00  0.00    +0.000 OA
ATOM     21  H   UNL     1       4.922   1.725  18.747  0.00  0.00    +0.000 HD
ATOM     22  H   UNL     1       3.416   0.816  18.737  0.00  0.00    +0.000 HD
ENDBRANCH  15  18
ENDBRANCH   4   8
BRANCH   1  25
ATOM     23  C   UNL     1      -1.521  11.712  19.855  0.00  0.00    +0.000 C 
ATOM     24  O   UNL     1      -2.185  11.136  18.985  0.00  0.00    +0.000 OA
ATOM     25  N   UNL     1      -0.234  11.327  20.225  0.00  0.00    +0.000 N 
ATOM     26  H   UNL     1       0.159  11.800  21.039  0.00  0.00    +0.000 HD
BRANCH  23  30
ATOM     27  C   UNL     1      -1.256  13.995  23.681  0.00  0.00    +0.000 C 
ATOM     28  N   UNL     1      -1.195  13.152  22.493  0.00  0.00    +0.000 NA
ATOM     29  C   UNL     1      -2.559  12.687  22.104  0.00  0.00    +0.000 C 
ATOM     30  C   UNL     1      -2.124  12.910  20.635  0.00  0.00    +0.000 C 
ATOM     31  C   UNL     1      -1.187  13.977  21.252  0.00  0.00    +0.000 C 
ENDBRANCH  23  30
ENDBRANCH   1  25
TORSDOF 4
ENDMDL
MODEL 8
REMARK VINA RESULT:      -8.3      2.900      9.786
REMARK  Name = 
REMARK  5 active torsions:
REMARK  status: ('A' for Active; 'I' for Inactive)
REMARK    1  A    between atoms: C_1  and  N_2
REMARK    2  A    between atoms: C_4  and  C_5
REMARK    3  A    between atoms: N_7  and  C_8
REMARK    4  A    between atoms: C_11  and  N_12
REMARK    5  A    between atoms: C_19  and  C_20
REMARK                            x       y       z     vdW  Elec       q    Type
REMARK                         _______ _______ _______ _____ _____    ______ ____
ROOT
ATOM      1  C   UNL     1       3.890   6.482  17.681  0.00  0.00    +0.000 A 
ATOM      2  C   UNL     1       3.487   7.698  17.141  0.00  0.00    +0.000 A 
ATOM      3  C   UNL     1       2.580   8.523  17.825  0.00  0.00    +0.000 A 
ATOM      4  C   UNL     1       2.044   8.164  19.078  0.00  0.00    +0.000 A 
ATOM      5  C   UNL     1       2.446   6.946  19.633  0.00  0.00    +0.000 A 
ATOM      6  C   UNL     1       3.350   6.123  18.928  0.00  0.00    +0.000 A 
ATOM      7  F   UNL     1       3.721   4.959  19.486  0.00  0.00    +0.000 F 
ENDROOT
BRANCH   4   8
ATOM      8  N   UNL     1       1.106   9.035  19.737  0.00  0.00    +0.000 N 
ATOM      9  C   UNL     1       1.007   9.179  21.100  0.00  0.00    +0.000 A 
ATOM     10  C   UNL     1       0.039  10.105  21.319  0.00  0.00    +0.000 A 
ATOM     11  C   UNL     1      -0.334  10.516  22.591  0.00  0.00    +0.000 A 
ATOM     12  C   UNL     1      -1.349  11.471  22.535  0.00  0.00    +0.000 A 
ATOM     13  F   UNL     1      -1.813  11.968  23.692  0.00  0.00    +0.000 F 
ATOM     14  C   UNL     1      -1.917  11.947  21.329  0.00  0.00    +0.000 A 
ATOM     15  C   UNL     1      -1.515  11.504  20.033  0.00  0.00    +0.000 A 
ATOM     16  C   UNL     1      -0.474  10.528  20.036  0.00  0.00    +0.000 A 
ATOM     17  N   UNL     1       0.207   9.849  19.071  0.00  0.00    +0.000 NA
BRANCH  15  18
ATOM     18  C   UNL     1      -2.210  12.093  18.874  0.00  0.00    +0.000 C 
ATOM     19  N   UNL     1      -1.474  12.510  17.812  0.00  0.00    +0.000 N 
ATOM     20  O   UNL     1      -3.431  12.203  18.863  0.00  0.00    +0.000 OA
ATOM     21  H   UNL     1      -0.459  12.429  17.781  0.00  0.00    +0.000 HD
ATOM     22  H   UNL     1      -1.976  12.903  17.028  0.00  0.00    +0.000 HD
ENDBRANCH  15  18
ENDBRANCH   4   8
BRANCH   1  25
ATOM     23  C   UNL     1       6.101   5.879  16.630  0.00  0.00    +0.000 C 
ATOM     24  O   UNL     1       6.679   6.946  16.867  0.00  0.00    +0.000 OA
ATOM     25  N   UNL     1       4.794   5.604  17.025  0.00  0.00    +0.000 N 
ATOM     26  H   UNL     1       4.474   4.646  16.881  0.00  0.00    +0.000 HD
BRANCH  23  30
ATOM     27  C   UNL     1       6.090   3.426  12.901  0.00  0.00    +0.000 C 
ATOM     28  N   UNL     1       5.954   4.324  14.042  0.00  0.00    +0.000 NA
ATOM     29  C   UNL     1       6.006   3.562  15.323  0.00  0.00    +0.000 C 
ATOM     30  C   UNL     1       6.843   4.735  15.888  0.00  0.00    +0.000 C 
ATOM     31  C   UNL     1       7.267   4.922  14.411  0.00  0.00    +0.000 C 
ENDBRANCH  23  30
ENDBRANCH   1  25
TORSDOF 4
ENDMDL
MODEL 9
REMARK VINA RESULT:      -8.3      1.426      1.515
REMARK  Name = 
REMARK  5 active torsions:
REMARK  status: ('A' for Active; 'I' for Inactive)
REMARK    1  A    between atoms: C_1  and  N_2
REMARK    2  A    between atoms: C_4  and  C_5
REMARK    3  A    between atoms: N_7  and  C_8
REMARK    4  A    between atoms: C_11  and  N_12
REMARK    5  A    between atoms: C_19  and  C_20
REMARK                            x       y       z     vdW  Elec       q    Type
REMARK                         _______ _______ _______ _____ _____    ______ ____
ROOT
ATOM      1  C   UNL     1      -0.165  10.432  20.678  0.00  0.00    +0.000 A 
ATOM      2  C   UNL     1       0.278  10.571  19.368  0.00  0.00    +0.000 A 
ATOM      3  C   UNL     1       1.126   9.613  18.791  0.00  0.00    +0.000 A 
ATOM      4  C   UNL     1       1.560   8.477  19.502  0.00  0.00    +0.000 A 
ATOM      5  C   UNL     1       1.117   8.324  20.818  0.00  0.00    +0.000 A 
ATOM      6  C   UNL     1       0.273   9.301  21.388  0.00  0.00    +0.000 A 
ATOM      7  F   UNL     1      -0.138   9.128  22.655  0.00  0.00    +0.000 F 
ENDROOT
BRANCH   4   8
ATOM      8  N   UNL     1       2.441   7.526  18.873  0.00  0.00    +0.000 N 
ATOM      9  C   UNL     1       3.221   7.800  17.775  0.00  0.00    +0.000 A 
ATOM     10  C   UNL     1       3.923   6.669  17.511  0.00  0.00    +0.000 A 
ATOM     11  C   UNL     1       4.830   6.575  16.466  0.00  0.00    +0.000 A 
ATOM     12  C   UNL     1       5.410   5.307  16.414  0.00  0.00    +0.000 A 
ATOM     13  F   UNL     1       6.315   5.066  15.453  0.00  0.00    +0.000 F 
ATOM     14  C   UNL     1       5.101   4.262  17.317  0.00  0.00    +0.000 A 
ATOM     15  C   UNL     1       4.161   4.387  18.384  0.00  0.00    +0.000 A 
ATOM     16  C   UNL     1       3.541   5.669  18.482  0.00  0.00    +0.000 A 
ATOM     17  N   UNL     1       2.621   6.228  19.316  0.00  0.00    +0.000 NA
BRANCH  15  18
ATOM     18  C   UNL     1       3.946   3.203  19.234  0.00  0.00    +0.000 C 
ATOM     19  N   UNL     1       5.027   2.530  19.705  0.00  0.00    +0.000 N 
ATOM     20  O   UNL     1       2.812   2.830  19.518  0.00  0.00    +0.000 OA
ATOM     21  H   UNL     1       5.984   2.812  19.496  0.00  0.00    +0.000 HD
ATOM     22  H   UNL     1       4.851   1.726  20.292  0.00  0.00    +0.000 HD
ENDBRANCH  15  18
ENDBRANCH   4   8
BRANCH   1  25
ATOM     23  C   UNL     1      -2.024  12.136  20.728  0.00  0.00    +0.000 C 
ATOM     24  O   UNL     1      -2.363  12.026  19.543  0.00  0.00    +0.000 OA
ATOM     25  N   UNL     1      -1.012  11.379  21.315  0.00  0.00    +0.000 N 
ATOM     26  H   UNL     1      -0.912  11.473  22.326  0.00  0.00    +0.000 HD
BRANCH  23  30
ATOM     27  C   UNL     1      -4.227  12.450  24.597  0.00  0.00    +0.000 C 
ATOM     28  N   UNL     1      -3.475  12.170  23.379  0.00  0.00    +0.000 NA
ATOM     29  C   UNL     1      -4.167  12.741  22.187  0.00  0.00    +0.000 C 
ATOM     30  C   UNL     1      -2.762  13.129  21.664  0.00  0.00    +0.000 C 
ATOM     31  C   UNL     1      -2.401  13.181  23.169  0.00  0.00    +0.000 C 
ENDBRANCH  23  30
ENDBRANCH   1  25
TORSDOF 4
ENDMDL
