MODEL 1
REMARK VINA RESULT:      -8.4      0.000      0.000
REMARK  Name = 
REMARK  6 active torsions:
REMARK  status: ('A' for Active; 'I' for Inactive)
REMARK    1  A    between atoms: C_1  and  N_2
REMARK    2  A    between atoms: C_5  and  N_6
REMARK    3  A    between atoms: N_6  and  C_7
REMARK    4  A    between atoms: C_7  and  C_8
REMARK    5  A    between atoms: N_16  and  C_17
REMARK    6  A    between atoms: C_22  and  C_23
REMARK                            x       y       z     vdW  Elec       q    Type
REMARK                         _______ _______ _______ _____ _____    ______ ____
ROOT
ATOM      1  N   UNL     1       3.072   6.791  18.879  0.00  0.00    +0.000 N 
ATOM      2  C   UNL     1       3.860   6.547  17.753  0.00  0.00    +0.000 C 
ATOM      3  O   UNL     1       4.134   7.401  16.915  0.00  0.00    +0.000 OA
ATOM      4  N   UNL     1       4.354   5.265  17.597  0.00  0.00    +0.000 N 
ATOM      5  H   UNL     1       3.643   4.557  17.731  0.00  0.00    +0.000 HD
ENDROOT
BRANCH   1  10
ATOM      6  C   UNL     1      -1.029  10.787  19.523  0.00  0.00    +0.000 C 
ATOM      7  N   UNL     1      -0.095   9.679  19.371  0.00  0.00    +0.000 NA
ATOM      8  C   UNL     1       0.696   9.833  18.149  0.00  0.00    +0.000 C 
ATOM      9  C   UNL     1       1.448   8.540  17.904  0.00  0.00    +0.000 C 
ATOM     10  C   UNL     1       2.377   8.118  19.061  0.00  0.00    +0.000 C 
ATOM     11  C   UNL     1       1.594   8.188  20.390  0.00  0.00    +0.000 C 
ATOM     12  C   UNL     1       0.782   9.491  20.527  0.00  0.00    +0.000 C 
ENDBRANCH   1  10
BRANCH   4  13
ATOM     13  C   UNL     1       5.290   5.025  16.545  0.00  0.00    +0.000 A 
ATOM     14  C   UNL     1       4.803   4.654  15.277  0.00  0.00    +0.000 A 
ATOM     15  C   UNL     1       5.671   4.336  14.233  0.00  0.00    +0.000 A 
ATOM     16  C   UNL     1       7.042   4.402  14.436  0.00  0.00    +0.000 A 
ATOM     17  C   UNL     1       7.540   4.779  15.684  0.00  0.00    +0.000 A 
ATOM     18  C   UNL     1       6.674   5.092  16.756  0.00  0.00    +0.000 A 
BRANCH  18  19
ATOM     19  C   UNL     1       7.292   5.372  18.099  0.00  0.00    +0.000 C 
ATOM     20  F   UNL     1       7.718   6.659  18.262  0.00  0.00    +0.000 F 
ATOM     21  F   UNL     1       6.428   5.140  19.129  0.00  0.00    +0.000 F 
ATOM     22  F   UNL     1       8.379   4.593  18.344  0.00  0.00    +0.000 F 
ENDBRANCH  18  19
ENDBRANCH   4  13
BRANCH   1  23
ATOM     23  C   UNL     1       2.954   5.818  19.980  0.00  0.00    +0.000 C 
BRANCH  23  24
ATOM     24  C   UNL     1       2.111   4.600  19.684  0.00  0.00    +0.000 A 
ATOM     25  C   UNL     1       1.764   3.643  20.643  0.00  0.00    +0.000 A 
ATOM     26  C   UNL     1       1.033   2.518  20.270  0.00  0.00    +0.000 A 
ATOM     27  C   UNL     1       0.646   2.393  18.945  0.00  0.00    +0.000 A 
ATOM     28  N   UNL     1       0.915   3.311  17.998  0.00  0.00    +0.000 NA
ATOM     29  C   UNL     1       1.635   4.390  18.389  0.00  0.00    +0.000 A 
ENDBRANCH  23  24
ENDBRANCH   1  23
TORSDOF 5
ENDMDL
MODEL 2
REMARK VINA RESULT:      -8.4      0.727      1.174
REMARK  Name = 
REMARK  6 active torsions:
REMARK  status: ('A' for Active; 'I' for Inactive)
REMARK    1  A    between atoms: C_1  and  N_2
REMARK    2  A    between atoms: C_5  and  N_6
REMARK    3  A    between atoms: N_6  and  C_7
REMARK    4  A    between atoms: C_7  and  C_8
REMARK    5  A    between atoms: N_16  and  C_17
REMARK    6  A    between atoms: C_22  and  C_23
REMARK                            x       y       z     vdW  Elec       q    Type
REMARK                         _______ _______ _______ _____ _____    ______ ____
ROOT
ATOM      1  N   UNL     1       2.942   6.840  19.000  0.00  0.00    +0.000 N 
ATOM      2  C   UNL     1       3.755   6.588  17.893  0.00  0.00    +0.000 C 
ATOM      3  O   UNL     1       4.061   7.439  17.065  0.00  0.00    +0.000 OA
ATOM      4  N   UNL     1       4.236   5.299  17.747  0.00  0.00    +0.000 N 
ATOM      5  H   UNL     1       3.513   4.600  17.863  0.00  0.00    +0.000 HD
ENDROOT
BRANCH   1  10
ATOM      6  C   UNL     1      -1.122  10.889  19.537  0.00  0.00    +0.000 C 
ATOM      7  N   UNL     1      -0.199   9.769  19.409  0.00  0.00    +0.000 NA
ATOM      8  C   UNL     1       0.631   9.917  18.212  0.00  0.00    +0.000 C 
ATOM      9  C   UNL     1       1.373   8.616  17.985  0.00  0.00    +0.000 C 
ATOM     10  C   UNL     1       2.260   8.176  19.168  0.00  0.00    +0.000 C 
ATOM     11  C   UNL     1       1.437   8.251  20.472  0.00  0.00    +0.000 C 
ATOM     12  C   UNL     1       0.640   9.563  20.590  0.00  0.00    +0.000 C 
ENDBRANCH   1  10
BRANCH   4  13
ATOM     13  C   UNL     1       5.195   5.048  16.719  0.00  0.00    +0.000 A 
ATOM     14  C   UNL     1       4.736   4.651  15.449  0.00  0.00    +0.000 A 
ATOM     15  C   UNL     1       5.628   4.321  14.428  0.00  0.00    +0.000 A 
ATOM     16  C   UNL     1       6.993   4.404  14.656  0.00  0.00    +0.000 A 
ATOM     17  C   UNL     1       7.463   4.808  15.906  0.00  0.00    +0.000 A 
ATOM     18  C   UNL     1       6.573   5.133  16.955  0.00  0.00    +0.000 A 
BRANCH  18  19
ATOM     19  C   UNL     1       7.162   5.442  18.305  0.00  0.00    +0.000 C 
ATOM     20  F   UNL     1       6.365   5.091  19.357  0.00  0.00    +0.000 F 
ATOM     21  F   UNL     1       8.349   4.803  18.515  0.00  0.00    +0.000 F 
ATOM     22  F   UNL     1       7.421   6.767  18.469  0.00  0.00    +0.000 F 
ENDBRANCH  18  19
ENDBRANCH   4  13
BRANCH   1  23
ATOM     23  C   UNL     1       2.784   5.867  20.096  0.00  0.00    +0.000 C 
BRANCH  23  24
ATOM     24  C   UNL     1       2.382   4.474  19.675  0.00  0.00    +0.000 A 
ATOM     25  C   UNL     1       1.237   4.187  18.925  0.00  0.00    +0.000 A 
ATOM     26  C   UNL     1       0.909   2.867  18.632  0.00  0.00    +0.000 A 
ATOM     27  C   UNL     1       1.754   1.863  19.079  0.00  0.00    +0.000 A 
ATOM     28  N   UNL     1       2.891   2.093  19.762  0.00  0.00    +0.000 NA
ATOM     29  C   UNL     1       3.178   3.387  20.040  0.00  0.00    +0.000 A 
ENDBRANCH  23  24
ENDBRANCH   1  23
TORSDOF 5
ENDMDL
MODEL 3
REMARK VINA RESULT:      -8.0      3.099      6.808
REMARK  Name = 
REMARK  6 active torsions:
REMARK  status: ('A' for Active; 'I' for Inactive)
REMARK    1  A    between atoms: C_1  and  N_2
REMARK    2  A    between atoms: C_5  and  N_6
REMARK    3  A    between atoms: N_6  and  C_7
REMARK    4  A    between atoms: C_7  and  C_8
REMARK    5  A    between atoms: N_16  and  C_17
REMARK    6  A    between atoms: C_22  and  C_23
REMARK                            x       y       z     vdW  Elec       q    Type
REMARK                         _______ _______ _______ _____ _____    ______ ____
ROOT
ATOM      1  N   UNL     1       3.167   6.615  18.646  0.00  0.00    +0.000 N 
ATOM      2  C   UNL     1       2.359   7.748  18.532  0.00  0.00    +0.000 C 
ATOM      3  O   UNL     1       1.962   8.196  17.462  0.00  0.00    +0.000 OA
ATOM      4  N   UNL     1       1.993   8.381  19.707  0.00  0.00    +0.000 N 
ATOM      5  H   UNL     1       2.779   8.528  20.328  0.00  0.00    +0.000 HD
ENDROOT
BRANCH   1  10
ATOM      6  C   UNL     1       6.846   4.304  14.863  0.00  0.00    +0.000 C 
ATOM      7  N   UNL     1       6.025   4.901  15.909  0.00  0.00    +0.000 NA
ATOM      8  C   UNL     1       5.313   6.074  15.402  0.00  0.00    +0.000 C 
ATOM      9  C   UNL     1       4.696   6.801  16.580  0.00  0.00    +0.000 C 
ATOM     10  C   UNL     1       3.728   5.941  17.419  0.00  0.00    +0.000 C 
ATOM     11  C   UNL     1       4.406   4.595  17.751  0.00  0.00    +0.000 C 
ATOM     12  C   UNL     1       5.089   3.960  16.524  0.00  0.00    +0.000 C 
ENDBRANCH   1  10
BRANCH   4  13
ATOM     13  C   UNL     1       1.042   9.443  19.634  0.00  0.00    +0.000 A 
ATOM     14  C   UNL     1       1.130  10.359  18.568  0.00  0.00    +0.000 A 
ATOM     15  C   UNL     1       0.276  11.459  18.486  0.00  0.00    +0.000 A 
ATOM     16  C   UNL     1      -0.695  11.648  19.459  0.00  0.00    +0.000 A 
ATOM     17  C   UNL     1      -0.803  10.741  20.514  0.00  0.00    +0.000 A 
ATOM     18  C   UNL     1       0.064   9.630  20.620  0.00  0.00    +0.000 A 
BRANCH  18  19
ATOM     19  C   UNL     1      -0.042   8.771  21.851  0.00  0.00    +0.000 C 
ATOM     20  F   UNL     1       1.135   8.618  22.529  0.00  0.00    +0.000 F 
ATOM     21  F   UNL     1      -0.926   9.272  22.762  0.00  0.00    +0.000 F 
ATOM     22  F   UNL     1      -0.470   7.512  21.573  0.00  0.00    +0.000 F 
ENDBRANCH  18  19
ENDBRANCH   4  13
BRANCH   1  23
ATOM     23  C   UNL     1       3.432   5.969  19.944  0.00  0.00    +0.000 C 
BRANCH  23  24
ATOM     24  C   UNL     1       2.537   4.801  20.284  0.00  0.00    +0.000 A 
ATOM     25  C   UNL     1       1.474   4.376  19.481  0.00  0.00    +0.000 A 
ATOM     26  C   UNL     1       0.660   3.327  19.901  0.00  0.00    +0.000 A 
ATOM     27  C   UNL     1       0.950   2.711  21.109  0.00  0.00    +0.000 A 
ATOM     28  N   UNL     1       1.990   3.054  21.891  0.00  0.00    +0.000 NA
ATOM     29  C   UNL     1       2.758   4.083  21.461  0.00  0.00    +0.000 A 
ENDBRANCH  23  24
ENDBRANCH   1  23
TORSDOF 5
ENDMDL
MODEL 4
REMARK VINA RESULT:      -8.0      0.739      1.389
REMARK  Name = 
REMARK  6 active torsions:
REMARK  status: ('A' for Active; 'I' for Inactive)
REMARK    1  A    between atoms: C_1  and  N_2
REMARK    2  A    between atoms: C_5  and  N_6
REMARK    3  A    between atoms: N_6  and  C_7
REMARK    4  A    between atoms: C_7  and  C_8
REMARK    5  A    between atoms: N_16  and  C_17
REMARK    6  A    between atoms: C_22  and  C_23
REMARK                            x       y       z     vdW  Elec       q    Type
REMARK                         _______ _______ _______ _____ _____    ______ ____
ROOT
ATOM      1  N   UNL     1       2.876   6.708  18.932  0.00  0.00    +0.000 N 
ATOM      2  C   UNL     1       3.647   6.464  17.793  0.00  0.00    +0.000 C 
ATOM      3  O   UNL     1       3.657   7.195  16.809  0.00  0.00    +0.000 OA
ATOM      4  N   UNL     1       4.440   5.331  17.802  0.00  0.00    +0.000 N 
ATOM      5  H   UNL     1       3.938   4.508  18.111  0.00  0.00    +0.000 HD
ENDROOT
BRANCH   1  10
ATOM      6  C   UNL     1       0.453  11.854  19.848  0.00  0.00    +0.000 C 
ATOM      7  N   UNL     1       1.188  10.609  19.663  0.00  0.00    +0.000 NA
ATOM      8  C   UNL     1       0.531   9.510  20.371  0.00  0.00    +0.000 C 
ATOM      9  C   UNL     1       1.465   8.317  20.368  0.00  0.00    +0.000 C 
ATOM     10  C   UNL     1       1.879   7.840  18.961  0.00  0.00    +0.000 C 
ATOM     11  C   UNL     1       2.352   9.054  18.133  0.00  0.00    +0.000 C 
ATOM     12  C   UNL     1       1.399  10.258  18.258  0.00  0.00    +0.000 C 
ENDBRANCH   1  10
BRANCH   4  13
ATOM     13  C   UNL     1       5.356   5.139  16.723  0.00  0.00    +0.000 A 
ATOM     14  C   UNL     1       4.863   4.662  15.493  0.00  0.00    +0.000 A 
ATOM     15  C   UNL     1       5.719   4.386  14.428  0.00  0.00    +0.000 A 
ATOM     16  C   UNL     1       7.082   4.602  14.569  0.00  0.00    +0.000 A 
ATOM     17  C   UNL     1       7.584   5.087  15.778  0.00  0.00    +0.000 A 
ATOM     18  C   UNL     1       6.732   5.359  16.871  0.00  0.00    +0.000 A 
BRANCH  18  19
ATOM     19  C   UNL     1       7.367   5.763  18.174  0.00  0.00    +0.000 C 
ATOM     20  F   UNL     1       8.345   4.913  18.606  0.00  0.00    +0.000 F 
ATOM     21  F   UNL     1       7.953   6.993  18.109  0.00  0.00    +0.000 F 
ATOM     22  F   UNL     1       6.469   5.834  19.192  0.00  0.00    +0.000 F 
ENDBRANCH  18  19
ENDBRANCH   4  13
BRANCH   1  23
ATOM     23  C   UNL     1       3.060   5.947  20.181  0.00  0.00    +0.000 C 
BRANCH  23  24
ATOM     24  C   UNL     1       2.276   4.659  20.278  0.00  0.00    +0.000 A 
ATOM     25  C   UNL     1       2.189   3.888  21.442  0.00  0.00    +0.000 A 
ATOM     26  C   UNL     1       1.495   2.681  21.427  0.00  0.00    +0.000 A 
ATOM     27  C   UNL     1       0.880   2.289  20.248  0.00  0.00    +0.000 A 
ATOM     28  N   UNL     1       0.896   3.021  19.118  0.00  0.00    +0.000 NA
ATOM     29  C   UNL     1       1.588   4.184  19.160  0.00  0.00    +0.000 A 
ENDBRANCH  23  24
ENDBRANCH   1  23
TORSDOF 5
ENDMDL
MODEL 5
REMARK VINA RESULT:      -8.0      1.108      1.572
REMARK  Name = 
REMARK  6 active torsions:
REMARK  status: ('A' for Active; 'I' for Inactive)
REMARK    1  A    between atoms: C_1  and  N_2
REMARK    2  A    between atoms: C_5  and  N_6
REMARK    3  A    between atoms: N_6  and  C_7
REMARK    4  A    between atoms: C_7  and  C_8
REMARK    5  A    between atoms: N_16  and  C_17
REMARK    6  A    between atoms: C_22  and  C_23
REMARK                            x       y       z     vdW  Elec       q    Type
REMARK                         _______ _______ _______ _____ _____    ______ ____
ROOT
ATOM      1  N   UNL     1       2.760   6.864  19.088  0.00  0.00    +0.000 N 
ATOM      2  C   UNL     1       3.541   6.540  17.977  0.00  0.00    +0.000 C 
ATOM      3  O   UNL     1       3.566   7.203  16.946  0.00  0.00    +0.000 OA
ATOM      4  N   UNL     1       4.328   5.406  18.070  0.00  0.00    +0.000 N 
ATOM      5  H   UNL     1       3.818   4.609  18.429  0.00  0.00    +0.000 HD
ENDROOT
BRANCH   1  10
ATOM      6  C   UNL     1       0.321  12.045  19.716  0.00  0.00    +0.000 C 
ATOM      7  N   UNL     1       1.058  10.793  19.608  0.00  0.00    +0.000 NA
ATOM      8  C   UNL     1       0.358   9.719  20.315  0.00  0.00    +0.000 C 
ATOM      9  C   UNL     1       1.285   8.523  20.397  0.00  0.00    +0.000 C 
ATOM     10  C   UNL     1       1.769   8.000  19.029  0.00  0.00    +0.000 C 
ATOM     11  C   UNL     1       2.291   9.186  18.190  0.00  0.00    +0.000 C 
ATOM     12  C   UNL     1       1.339  10.397  18.228  0.00  0.00    +0.000 C 
ENDBRANCH   1  10
BRANCH   4  13
ATOM     13  C   UNL     1       5.254   5.138  17.017  0.00  0.00    +0.000 A 
ATOM     14  C   UNL     1       4.766   4.613  15.805  0.00  0.00    +0.000 A 
ATOM     15  C   UNL     1       5.631   4.262  14.768  0.00  0.00    +0.000 A 
ATOM     16  C   UNL     1       6.997   4.450  14.920  0.00  0.00    +0.000 A 
ATOM     17  C   UNL     1       7.494   4.981  16.111  0.00  0.00    +0.000 A 
ATOM     18  C   UNL     1       6.633   5.329  17.176  0.00  0.00    +0.000 A 
BRANCH  18  19
ATOM     19  C   UNL     1       7.260   5.780  18.468  0.00  0.00    +0.000 C 
ATOM     20  F   UNL     1       7.656   7.087  18.470  0.00  0.00    +0.000 F 
ATOM     21  F   UNL     1       6.414   5.652  19.531  0.00  0.00    +0.000 F 
ATOM     22  F   UNL     1       8.368   5.062  18.787  0.00  0.00    +0.000 F 
ENDBRANCH  18  19
ENDBRANCH   4  13
BRANCH   1  23
ATOM     23  C   UNL     1       2.926   6.188  20.387  0.00  0.00    +0.000 C 
BRANCH  23  24
ATOM     24  C   UNL     1       2.263   4.836  20.506  0.00  0.00    +0.000 A 
ATOM     25  C   UNL     1       1.383   4.314  19.553  0.00  0.00    +0.000 A 
ATOM     26  C   UNL     1       0.769   3.084  19.771  0.00  0.00    +0.000 A 
ATOM     27  C   UNL     1       1.075   2.392  20.933  0.00  0.00    +0.000 A 
ATOM     28  N   UNL     1       1.952   2.831  21.855  0.00  0.00    +0.000 NA
ATOM     29  C   UNL     1       2.525   4.035  21.620  0.00  0.00    +0.000 A 
ENDBRANCH  23  24
ENDBRANCH   1  23
TORSDOF 5
ENDMDL
MODEL 6
REMARK VINA RESULT:      -8.0      2.851      6.630
REMARK  Name = 
REMARK  6 active torsions:
REMARK  status: ('A' for Active; 'I' for Inactive)
REMARK    1  A    between atoms: C_1  and  N_2
REMARK    2  A    between atoms: C_5  and  N_6
REMARK    3  A    between atoms: N_6  and  C_7
REMARK    4  A    between atoms: C_7  and  C_8
REMARK    5  A    between atoms: N_16  and  C_17
REMARK    6  A    between atoms: C_22  and  C_23
REMARK                            x       y       z     vdW  Elec       q    Type
REMARK                         _______ _______ _______ _____ _____    ______ ____
ROOT
ATOM      1  N   UNL     1       2.824   6.190  17.991  0.00  0.00    +0.000 N 
ATOM      2  C   UNL     1       2.686   7.531  18.356  0.00  0.00    +0.000 C 
ATOM      3  O   UNL     1       3.524   8.392  18.111  0.00  0.00    +0.000 OA
ATOM      4  N   UNL     1       1.529   7.885  19.024  0.00  0.00    +0.000 N 
ATOM      5  H   UNL     1       1.312   7.254  19.786  0.00  0.00    +0.000 HD
ENDROOT
BRANCH   1  10
ATOM      6  C   UNL     1       6.661   4.115  14.228  0.00  0.00    +0.000 C 
ATOM      7  N   UNL     1       5.600   4.650  15.071  0.00  0.00    +0.000 NA
ATOM      8  C   UNL     1       5.346   3.764  16.208  0.00  0.00    +0.000 C 
ATOM      9  C   UNL     1       4.073   4.222  16.892  0.00  0.00    +0.000 C 
ATOM     10  C   UNL     1       4.109   5.683  17.384  0.00  0.00    +0.000 C 
ATOM     11  C   UNL     1       4.610   6.590  16.240  0.00  0.00    +0.000 C 
ATOM     12  C   UNL     1       5.852   6.015  15.533  0.00  0.00    +0.000 C 
ENDBRANCH   1  10
BRANCH   4  13
ATOM     13  C   UNL     1       1.287   9.271  19.269  0.00  0.00    +0.000 A 
ATOM     14  C   UNL     1       1.583  10.199  18.252  0.00  0.00    +0.000 A 
ATOM     15  C   UNL     1       1.436  11.571  18.459  0.00  0.00    +0.000 A 
ATOM     16  C   UNL     1       0.972  12.035  19.682  0.00  0.00    +0.000 A 
ATOM     17  C   UNL     1       0.663  11.126  20.695  0.00  0.00    +0.000 A 
ATOM     18  C   UNL     1       0.819   9.734  20.505  0.00  0.00    +0.000 A 
BRANCH  18  19
ATOM     19  C   UNL     1       0.578   8.834  21.687  0.00  0.00    +0.000 C 
ATOM     20  F   UNL     1       1.602   7.968  21.948  0.00  0.00    +0.000 F 
ATOM     21  F   UNL     1       0.385   9.531  22.843  0.00  0.00    +0.000 F 
ATOM     22  F   UNL     1      -0.527   8.057  21.533  0.00  0.00    +0.000 F 
ENDBRANCH  18  19
ENDBRANCH   4  13
BRANCH   1  23
ATOM     23  C   UNL     1       1.708   5.232  18.089  0.00  0.00    +0.000 C 
BRANCH  23  24
ATOM     24  C   UNL     1       1.722   4.340  19.307  0.00  0.00    +0.000 A 
ATOM     25  C   UNL     1       2.139   4.759  20.575  0.00  0.00    +0.000 A 
ATOM     26  C   UNL     1       2.177   3.853  21.631  0.00  0.00    +0.000 A 
ATOM     27  C   UNL     1       1.769   2.549  21.395  0.00  0.00    +0.000 A 
ATOM     28  N   UNL     1       1.314   2.112  20.206  0.00  0.00    +0.000 NA
ATOM     29  C   UNL     1       1.298   3.014  19.196  0.00  0.00    +0.000 A 
ENDBRANCH  23  24
ENDBRANCH   1  23
TORSDOF 5
ENDMDL
MODEL 7
REMARK VINA RESULT:      -7.9      2.792      6.539
REMARK  Name = 
REMARK  6 active torsions:
REMARK  status: ('A' for Active; 'I' for Inactive)
REMARK    1  A    between atoms: C_1  and  N_2
REMARK    2  A    between atoms: C_5  and  N_6
REMARK    3  A    between atoms: N_6  and  C_7
REMARK    4  A    between atoms: C_7  and  C_8
REMARK    5  A    between atoms: N_16  and  C_17
REMARK    6  A    between atoms: C_22  and  C_23
REMARK                            x       y       z     vdW  Elec       q    Type
REMARK                         _______ _______ _______ _____ _____    ______ ____
ROOT
ATOM      1  N   UNL     1       3.163   5.857  17.763  0.00  0.00    +0.000 N 
ATOM      2  C   UNL     1       2.964   7.191  18.126  0.00  0.00    +0.000 C 
ATOM      3  O   UNL     1       3.738   8.097  17.837  0.00  0.00    +0.000 OA
ATOM      4  N   UNL     1       1.820   7.483  18.845  0.00  0.00    +0.000 N 
ATOM      5  H   UNL     1       1.676   6.846  19.620  0.00  0.00    +0.000 HD
ENDROOT
BRANCH   1  10
ATOM      6  C   UNL     1       6.988   4.213  13.781  0.00  0.00    +0.000 C 
ATOM      7  N   UNL     1       5.929   4.651  14.681  0.00  0.00    +0.000 NA
ATOM      8  C   UNL     1       5.678   3.644  15.714  0.00  0.00    +0.000 C 
ATOM      9  C   UNL     1       4.408   4.023  16.448  0.00  0.00    +0.000 C 
ATOM     10  C   UNL     1       4.446   5.421  17.099  0.00  0.00    +0.000 C 
ATOM     11  C   UNL     1       4.944   6.449  16.061  0.00  0.00    +0.000 C 
ATOM     12  C   UNL     1       6.184   5.956  15.291  0.00  0.00    +0.000 C 
ENDBRANCH   1  10
BRANCH   4  13
ATOM     13  C   UNL     1       1.509   8.854  19.093  0.00  0.00    +0.000 A 
ATOM     14  C   UNL     1       1.802   9.805  18.097  0.00  0.00    +0.000 A 
ATOM     15  C   UNL     1       1.589  11.167  18.311  0.00  0.00    +0.000 A 
ATOM     16  C   UNL     1       1.059  11.598  19.519  0.00  0.00    +0.000 A 
ATOM     17  C   UNL     1       0.752  10.665  20.511  0.00  0.00    +0.000 A 
ATOM     18  C   UNL     1       0.974   9.284  20.315  0.00  0.00    +0.000 A 
BRANCH  18  19
ATOM     19  C   UNL     1       0.729   8.361  21.478  0.00  0.00    +0.000 C 
ATOM     20  F   UNL     1       1.050   8.896  22.694  0.00  0.00    +0.000 F 
ATOM     21  F   UNL     1      -0.578   7.984  21.578  0.00  0.00    +0.000 F 
ATOM     22  F   UNL     1       1.442   7.207  21.387  0.00  0.00    +0.000 F 
ENDBRANCH  18  19
ENDBRANCH   4  13
BRANCH   1  23
ATOM     23  C   UNL     1       2.111   4.837  17.918  0.00  0.00    +0.000 C 
BRANCH  23  24
ATOM     24  C   UNL     1       2.152   4.051  19.207  0.00  0.00    +0.000 A 
ATOM     25  C   UNL     1       1.093   3.995  20.119  0.00  0.00    +0.000 A 
ATOM     26  C   UNL     1       1.239   3.295  21.313  0.00  0.00    +0.000 A 
ATOM     27  C   UNL     1       2.438   2.642  21.552  0.00  0.00    +0.000 A 
ATOM     28  N   UNL     1       3.466   2.627  20.684  0.00  0.00    +0.000 NA
ATOM     29  C   UNL     1       3.299   3.325  19.536  0.00  0.00    +0.000 A 
ENDBRANCH  23  24
ENDBRANCH   1  23
TORSDOF 5
ENDMDL
MODEL 8
REMARK VINA RESULT:      -7.8      3.018      6.742
REMARK  Name = 
REMARK  6 active torsions:
REMARK  status: ('A' for Active; 'I' for Inactive)
REMARK    1  A    between atoms: C_1  and  N_2
REMARK    2  A    between atoms: C_5  and  N_6
REMARK    3  A    between atoms: N_6  and  C_7
REMARK    4  A    between atoms: C_7  and  C_8
REMARK    5  A    between atoms: N_16  and  C_17
REMARK    6  A    between atoms: C_22  and  C_23
REMARK                            x       y       z     vdW  Elec       q    Type
REMARK                         _______ _______ _______ _____ _____    ______ ____
ROOT
ATOM      1  N   UNL     1       3.110   6.617  18.707  0.00  0.00    +0.000 N 
ATOM      2  C   UNL     1       2.360   7.790  18.594  0.00  0.00    +0.000 C 
ATOM      3  O   UNL     1       2.072   8.313  17.523  0.00  0.00    +0.000 OA
ATOM      4  N   UNL     1       1.923   8.372  19.770  0.00  0.00    +0.000 N 
ATOM      5  H   UNL     1       2.658   8.449  20.461  0.00  0.00    +0.000 HD
ENDROOT
BRANCH   1  10
ATOM      6  C   UNL     1       7.030   4.621  14.987  0.00  0.00    +0.000 C 
ATOM      7  N   UNL     1       6.146   5.149  16.018  0.00  0.00    +0.000 NA
ATOM      8  C   UNL     1       5.337   6.249  15.493  0.00  0.00    +0.000 C 
ATOM      9  C   UNL     1       4.642   6.925  16.657  0.00  0.00    +0.000 C 
ATOM     10  C   UNL     1       3.745   5.988  17.492  0.00  0.00    +0.000 C 
ATOM     11  C   UNL     1       4.538   4.711  17.844  0.00  0.00    +0.000 C 
ATOM     12  C   UNL     1       5.291   4.132  16.630  0.00  0.00    +0.000 C 
ENDBRANCH   1  10
BRANCH   4  13
ATOM     13  C   UNL     1       1.024   9.478  19.682  0.00  0.00    +0.000 A 
ATOM     14  C   UNL     1       1.161  10.379  18.609  0.00  0.00    +0.000 A 
ATOM     15  C   UNL     1       0.360  11.517  18.512  0.00  0.00    +0.000 A 
ATOM     16  C   UNL     1      -0.606  11.761  19.477  0.00  0.00    +0.000 A 
ATOM     17  C   UNL     1      -0.762  10.871  20.540  0.00  0.00    +0.000 A 
ATOM     18  C   UNL     1       0.050   9.720  20.660  0.00  0.00    +0.000 A 
BRANCH  18  19
ATOM     19  C   UNL     1      -0.103   8.879  21.899  0.00  0.00    +0.000 C 
ATOM     20  F   UNL     1      -1.001   9.372  22.802  0.00  0.00    +0.000 F 
ATOM     21  F   UNL     1      -0.523   7.612  21.619  0.00  0.00    +0.000 F 
ATOM     22  F   UNL     1       1.064   8.741  22.582  0.00  0.00    +0.000 F 
ENDBRANCH  18  19
ENDBRANCH   4  13
BRANCH   1  23
ATOM     23  C   UNL     1       3.240   5.889  19.982  0.00  0.00    +0.000 C 
BRANCH  23  24
ATOM     24  C   UNL     1       2.340   4.686  20.138  0.00  0.00    +0.000 A 
ATOM     25  C   UNL     1       2.229   3.946  21.320  0.00  0.00    +0.000 A 
ATOM     26  C   UNL     1       1.420   2.814  21.358  0.00  0.00    +0.000 A 
ATOM     27  C   UNL     1       0.719   2.466  20.215  0.00  0.00    +0.000 A 
ATOM     28  N   UNL     1       0.757   3.174  19.071  0.00  0.00    +0.000 NA
ATOM     29  C   UNL     1       1.559   4.264  19.060  0.00  0.00    +0.000 A 
ENDBRANCH  23  24
ENDBRANCH   1  23
TORSDOF 5
ENDMDL
MODEL 9
REMARK VINA RESULT:      -7.6      1.197      1.502
REMARK  Name = 
REMARK  6 active torsions:
REMARK  status: ('A' for Active; 'I' for Inactive)
REMARK    1  A    between atoms: C_1  and  N_2
REMARK    2  A    between atoms: C_5  and  N_6
REMARK    3  A    between atoms: N_6  and  C_7
REMARK    4  A    between atoms: C_7  and  C_8
REMARK    5  A    between atoms: N_16  and  C_17
REMARK    6  A    between atoms: C_22  and  C_23
REMARK                            x       y       z     vdW  Elec       q    Type
REMARK                         _______ _______ _______ _____ _____    ______ ____
ROOT
ATOM      1  N   UNL     1       2.307   7.085  18.361  0.00  0.00    +0.000 N 
ATOM      2  C   UNL     1       3.552   6.876  17.765  0.00  0.00    +0.000 C 
ATOM      3  O   UNL     1       4.455   7.706  17.764  0.00  0.00    +0.000 OA
ATOM      4  N   UNL     1       3.757   5.653  17.151  0.00  0.00    +0.000 N 
ATOM      5  H   UNL     1       2.990   5.389  16.546  0.00  0.00    +0.000 HD
ENDROOT
BRANCH   1  10
ATOM      6  C   UNL     1      -0.736  11.516  20.435  0.00  0.00    +0.000 C 
ATOM      7  N   UNL     1      -0.088  10.320  19.912  0.00  0.00    +0.000 NA
ATOM      8  C   UNL     1       0.618  10.618  18.664  0.00  0.00    +0.000 C 
ATOM      9  C   UNL     1       1.041   9.307  18.034  0.00  0.00    +0.000 C 
ATOM     10  C   UNL     1       1.942   8.433  18.932  0.00  0.00    +0.000 C 
ATOM     11  C   UNL     1       1.302   8.320  20.332  0.00  0.00    +0.000 C 
ATOM     12  C   UNL     1       0.815   9.679  20.869  0.00  0.00    +0.000 C 
ENDBRANCH   1  10
BRANCH   4  13
ATOM     13  C   UNL     1       5.068   5.349  16.673  0.00  0.00    +0.000 A 
ATOM     14  C   UNL     1       5.320   5.430  15.290  0.00  0.00    +0.000 A 
ATOM     15  C   UNL     1       6.559   5.075  14.757  0.00  0.00    +0.000 A 
ATOM     16  C   UNL     1       7.573   4.651  15.603  0.00  0.00    +0.000 A 
ATOM     17  C   UNL     1       7.343   4.577  16.978  0.00  0.00    +0.000 A 
ATOM     18  C   UNL     1       6.089   4.921  17.532  0.00  0.00    +0.000 A 
BRANCH  18  19
ATOM     19  C   UNL     1       5.888   4.698  19.006  0.00  0.00    +0.000 C 
ATOM     20  F   UNL     1       5.072   5.616  19.605  0.00  0.00    +0.000 F 
ATOM     21  F   UNL     1       5.333   3.482  19.279  0.00  0.00    +0.000 F 
ATOM     22  F   UNL     1       7.054   4.738  19.703  0.00  0.00    +0.000 F 
ENDBRANCH  18  19
ENDBRANCH   4  13
BRANCH   1  23
ATOM     23  C   UNL     1       1.334   5.994  18.550  0.00  0.00    +0.000 C 
BRANCH  23  24
ATOM     24  C   UNL     1       1.774   4.883  19.473  0.00  0.00    +0.000 A 
ATOM     25  C   UNL     1       2.079   5.069  20.825  0.00  0.00    +0.000 A 
ATOM     26  C   UNL     1       2.536   3.999  21.590  0.00  0.00    +0.000 A 
ATOM     27  C   UNL     1       2.651   2.758  20.984  0.00  0.00    +0.000 A 
ATOM     28  N   UNL     1       2.324   2.520  19.700  0.00  0.00    +0.000 NA
ATOM     29  C   UNL     1       1.892   3.582  18.979  0.00  0.00    +0.000 A 
ENDBRANCH  23  24
ENDBRANCH   1  23
TORSDOF 5
ENDMDL
