MODEL 1
REMARK VINA RESULT:      -8.3      0.000      0.000
REMARK  Name = 
REMARK  9 active torsions:
REMARK  status: ('A' for Active; 'I' for Inactive)
REMARK    1  A    between atoms: N_1  and  C_2
REMARK    2  A    between atoms: C_5  and  C_6
REMARK    3  A    between atoms: C_7  and  C_8
REMARK    4  A    between atoms: C_8  and  N_9
REMARK    5  A    between atoms: N_12  and  C_13
REMARK    6  A    between atoms: C_13  and  C_14
REMARK    7  A    between atoms: C_14  and  C_15
REMARK    8  A    between atoms: C_15  and  C_16
REMARK    9  A    between atoms: C_16  and  N_17
REMARK                            x       y       z     vdW  Elec       q    Type
REMARK                         _______ _______ _______ _____ _____    ______ ____
ROOT
ATOM      1  N   UNL     1       4.994   5.275  17.918  0.00  0.00    +0.000 NA
ATOM      2  C   UNL     1       6.015   5.051  18.955  0.00  0.00    +0.000 C 
ATOM      3  C   UNL     1       7.351   4.950  18.224  0.00  0.00    +0.000 C 
ATOM      4  N   UNL     1       7.628   6.185  17.452  0.00  0.00    +0.000 NA
ATOM      5  C   UNL     1       6.533   6.449  16.485  0.00  0.00    +0.000 C 
ATOM      6  C   UNL     1       5.168   6.531  17.191  0.00  0.00    +0.000 C 
ENDROOT
BRANCH   1   7
ATOM      7  C   UNL     1       3.629   4.845  18.227  0.00  0.00    +0.000 C 
BRANCH   7   9
ATOM      8  C   UNL     1       2.537   6.645  19.509  0.00  0.00    +0.000 C 
ATOM      9  C   UNL     1       2.786   6.088  18.304  0.00  0.00    +0.000 C 
BRANCH   8  13
ATOM     10  C   UNL     1       0.572  10.415  20.043  0.00  0.00    +0.000 A 
ATOM     11  C   UNL     1       1.094  10.048  18.796  0.00  0.00    +0.000 A 
ATOM     12  C   UNL     1       1.717   8.810  18.634  0.00  0.00    +0.000 A 
ATOM     13  C   UNL     1       1.839   7.928  19.722  0.00  0.00    +0.000 A 
ATOM     14  C   UNL     1       1.285   8.289  20.963  0.00  0.00    +0.000 A 
ATOM     15  C   UNL     1       0.655   9.524  21.121  0.00  0.00    +0.000 A 
BRANCH  10  16
ATOM     16  N   UNL     1      -0.018  11.690  20.222  0.00  0.00    +0.000 N 
ATOM     17  H   UNL     1      -1.030  11.824  20.083  0.00  0.00    +0.000 HD
ATOM     18  H   UNL     1       0.566  12.512  20.435  0.00  0.00    +0.000 HD
ENDBRANCH  10  16
ENDBRANCH   8  13
ENDBRANCH   7   9
ENDBRANCH   1   7
BRANCH   4  19
ATOM     19  C   UNL     1       7.912   7.361  18.304  0.00  0.00    +0.000 C 
BRANCH  19  20
ATOM     20  C   UNL     1       8.219   8.614  17.461  0.00  0.00    +0.000 C 
BRANCH  20  21
ATOM     21  C   UNL     1       8.212   9.902  18.294  0.00  0.00    +0.000 C 
BRANCH  21  22
ATOM     22  C   UNL     1       9.393   9.942  19.263  0.00  0.00    +0.000 C 
BRANCH  22  23
ATOM     23  N   UNL     1       9.730  11.317  19.602  0.00  0.00    +0.000 N 
ATOM     24  C   UNL     1       9.401  11.979  20.735  0.00  0.00    +0.000 A 
ATOM     25  C   UNL     1       8.697  11.492  21.841  0.00  0.00    +0.000 A 
ATOM     26  C   UNL     1       8.458  12.372  22.908  0.00  0.00    +0.000 A 
ATOM     27  C   UNL     1       8.920  13.707  22.855  0.00  0.00    +0.000 A 
ATOM     28  C   UNL     1       9.627  14.175  21.732  0.00  0.00    +0.000 A 
ATOM     29  C   UNL     1       9.854  13.282  20.688  0.00  0.00    +0.000 A 
ATOM     30  C   UNL     1      10.496  13.426  19.471  0.00  0.00    +0.000 A 
ATOM     31  C   UNL     1      11.140  14.517  18.888  0.00  0.00    +0.000 A 
ATOM     32  C   UNL     1      11.706  14.336  17.609  0.00  0.00    +0.000 A 
ATOM     33  C   UNL     1      11.623  13.086  16.957  0.00  0.00    +0.000 A 
ATOM     34  C   UNL     1      10.966  12.005  17.568  0.00  0.00    +0.000 A 
ATOM     35  C   UNL     1      10.405  12.206  18.837  0.00  0.00    +0.000 A 
ENDBRANCH  22  23
ENDBRANCH  21  22
ENDBRANCH  20  21
ENDBRANCH  19  20
ENDBRANCH   4  19
TORSDOF 9
ENDMDL
MODEL 2
REMARK VINA RESULT:      -8.3      5.946      9.669
REMARK  Name = 
REMARK  9 active torsions:
REMARK  status: ('A' for Active; 'I' for Inactive)
REMARK    1  A    between atoms: N_1  and  C_2
REMARK    2  A    between atoms: C_5  and  C_6
REMARK    3  A    between atoms: C_7  and  C_8
REMARK    4  A    between atoms: C_8  and  N_9
REMARK    5  A    between atoms: N_12  and  C_13
REMARK    6  A    between atoms: C_13  and  C_14
REMARK    7  A    between atoms: C_14  and  C_15
REMARK    8  A    between atoms: C_15  and  C_16
REMARK    9  A    between atoms: C_16  and  N_17
REMARK                            x       y       z     vdW  Elec       q    Type
REMARK                         _______ _______ _______ _____ _____    ______ ____
ROOT
ATOM      1  N   UNL     1      -0.072  12.201  20.882  0.00  0.00    +0.000 NA
ATOM      2  C   UNL     1       1.178  11.425  20.844  0.00  0.00    +0.000 C 
ATOM      3  C   UNL     1       0.785   9.998  20.472  0.00  0.00    +0.000 C 
ATOM      4  N   UNL     1       0.087   9.963  19.164  0.00  0.00    +0.000 NA
ATOM      5  C   UNL     1      -1.113  10.836  19.193  0.00  0.00    +0.000 C 
ATOM      6  C   UNL     1      -0.750  12.278  19.589  0.00  0.00    +0.000 C 
ENDROOT
BRANCH   1   7
ATOM      7  C   UNL     1      -0.090  13.390  21.737  0.00  0.00    +0.000 C 
BRANCH   7   9
ATOM      8  C   UNL     1      -2.279  12.643  22.586  0.00  0.00    +0.000 C 
ATOM      9  C   UNL     1      -1.527  13.651  22.094  0.00  0.00    +0.000 C 
BRANCH   8  13
ATOM     10  C   UNL     1      -6.293  13.146  23.999  0.00  0.00    +0.000 A 
ATOM     11  C   UNL     1      -5.924  13.579  22.719  0.00  0.00    +0.000 A 
ATOM     12  C   UNL     1      -4.616  13.393  22.268  0.00  0.00    +0.000 A 
ATOM     13  C   UNL     1      -3.657  12.785  23.096  0.00  0.00    +0.000 A 
ATOM     14  C   UNL     1      -4.043  12.325  24.367  0.00  0.00    +0.000 A 
ATOM     15  C   UNL     1      -5.352  12.504  24.815  0.00  0.00    +0.000 A 
BRANCH  10  16
ATOM     16  N   UNL     1      -7.606  13.377  24.478  0.00  0.00    +0.000 N 
ATOM     17  H   UNL     1      -7.781  13.504  25.486  0.00  0.00    +0.000 HD
ATOM     18  H   UNL     1      -8.409  13.361  23.834  0.00  0.00    +0.000 HD
ENDBRANCH  10  16
ENDBRANCH   8  13
ENDBRANCH   7   9
ENDBRANCH   1   7
BRANCH   4  19
ATOM     19  C   UNL     1       0.971  10.271  18.019  0.00  0.00    +0.000 C 
BRANCH  19  20
ATOM     20  C   UNL     1       2.211   9.356  17.993  0.00  0.00    +0.000 C 
BRANCH  20  21
ATOM     21  C   UNL     1       1.847   7.874  17.847  0.00  0.00    +0.000 C 
BRANCH  21  22
ATOM     22  C   UNL     1       2.578   7.018  18.881  0.00  0.00    +0.000 C 
BRANCH  22  23
ATOM     23  N   UNL     1       2.952   5.732  18.309  0.00  0.00    +0.000 N 
ATOM     24  C   UNL     1       2.412   4.526  18.599  0.00  0.00    +0.000 A 
ATOM     25  C   UNL     1       1.363   4.244  19.480  0.00  0.00    +0.000 A 
ATOM     26  C   UNL     1       0.976   2.903  19.632  0.00  0.00    +0.000 A 
ATOM     27  C   UNL     1       1.633   1.880  18.913  0.00  0.00    +0.000 A 
ATOM     28  C   UNL     1       2.686   2.187  18.032  0.00  0.00    +0.000 A 
ATOM     29  C   UNL     1       3.049   3.524  17.894  0.00  0.00    +0.000 A 
ATOM     30  C   UNL     1       4.023   4.144  17.133  0.00  0.00    +0.000 A 
ATOM     31  C   UNL     1       4.963   3.634  16.237  0.00  0.00    +0.000 A 
ATOM     32  C   UNL     1       5.832   4.549  15.608  0.00  0.00    +0.000 A 
ATOM     33  C   UNL     1       5.739   5.932  15.879  0.00  0.00    +0.000 A 
ATOM     34  C   UNL     1       4.784   6.417  16.788  0.00  0.00    +0.000 A 
ATOM     35  C   UNL     1       3.932   5.492  17.407  0.00  0.00    +0.000 A 
ENDBRANCH  22  23
ENDBRANCH  21  22
ENDBRANCH  20  21
ENDBRANCH  19  20
ENDBRANCH   4  19
TORSDOF 9
ENDMDL
MODEL 3
REMARK VINA RESULT:      -8.2      6.054      9.775
REMARK  Name = 
REMARK  9 active torsions:
REMARK  status: ('A' for Active; 'I' for Inactive)
REMARK    1  A    between atoms: N_1  and  C_2
REMARK    2  A    between atoms: C_5  and  C_6
REMARK    3  A    between atoms: C_7  and  C_8
REMARK    4  A    between atoms: C_8  and  N_9
REMARK    5  A    between atoms: N_12  and  C_13
REMARK    6  A    between atoms: C_13  and  C_14
REMARK    7  A    between atoms: C_14  and  C_15
REMARK    8  A    between atoms: C_15  and  C_16
REMARK    9  A    between atoms: C_16  and  N_17
REMARK                            x       y       z     vdW  Elec       q    Type
REMARK                         _______ _______ _______ _____ _____    ______ ____
ROOT
ATOM      1  N   UNL     1      -0.752  10.752  21.886  0.00  0.00    +0.000 NA
ATOM      2  C   UNL     1       0.456   9.910  21.912  0.00  0.00    +0.000 C 
ATOM      3  C   UNL     1       0.296   8.899  20.780  0.00  0.00    +0.000 C 
ATOM      4  N   UNL     1       0.143   9.584  19.473  0.00  0.00    +0.000 NA
ATOM      5  C   UNL     1      -1.020  10.507  19.505  0.00  0.00    +0.000 C 
ATOM      6  C   UNL     1      -0.898  11.524  20.653  0.00  0.00    +0.000 C 
ENDROOT
BRANCH   1   7
ATOM      7  C   UNL     1      -1.143  11.390  23.145  0.00  0.00    +0.000 C 
BRANCH   7   9
ATOM      8  C   UNL     1      -3.323  12.357  23.767  0.00  0.00    +0.000 C 
ATOM      9  C   UNL     1      -2.341  12.248  22.846  0.00  0.00    +0.000 C 
BRANCH   8  13
ATOM     10  C   UNL     1      -6.764  14.888  23.437  0.00  0.00    +0.000 A 
ATOM     11  C   UNL     1      -6.898  13.537  23.780  0.00  0.00    +0.000 A 
ATOM     12  C   UNL     1      -5.767  12.729  23.899  0.00  0.00    +0.000 A 
ATOM     13  C   UNL     1      -4.487  13.259  23.663  0.00  0.00    +0.000 A 
ATOM     14  C   UNL     1      -4.357  14.624  23.351  0.00  0.00    +0.000 A 
ATOM     15  C   UNL     1      -5.489  15.432  23.240  0.00  0.00    +0.000 A 
BRANCH  10  16
ATOM     16  N   UNL     1      -7.914  15.698  23.268  0.00  0.00    +0.000 N 
ATOM     17  H   UNL     1      -8.758  15.321  22.812  0.00  0.00    +0.000 HD
ATOM     18  H   UNL     1      -7.901  16.690  23.545  0.00  0.00    +0.000 HD
ENDBRANCH  10  16
ENDBRANCH   8  13
ENDBRANCH   7   9
ENDBRANCH   1   7
BRANCH   4  19
ATOM     19  C   UNL     1       1.376  10.259  19.015  0.00  0.00    +0.000 C 
BRANCH  19  20
ATOM     20  C   UNL     1       2.029   9.513  17.835  0.00  0.00    +0.000 C 
BRANCH  20  21
ATOM     21  C   UNL     1       1.756   8.005  17.866  0.00  0.00    +0.000 C 
BRANCH  21  22
ATOM     22  C   UNL     1       2.764   7.277  18.755  0.00  0.00    +0.000 C 
BRANCH  22  23
ATOM     23  N   UNL     1       3.063   5.958  18.217  0.00  0.00    +0.000 N 
ATOM     24  C   UNL     1       2.470   4.789  18.553  0.00  0.00    +0.000 A 
ATOM     25  C   UNL     1       1.426   4.586  19.462  0.00  0.00    +0.000 A 
ATOM     26  C   UNL     1       0.977   3.271  19.662  0.00  0.00    +0.000 A 
ATOM     27  C   UNL     1       1.569   2.196  18.964  0.00  0.00    +0.000 A 
ATOM     28  C   UNL     1       2.618   2.424  18.054  0.00  0.00    +0.000 A 
ATOM     29  C   UNL     1       3.044   3.736  17.869  0.00  0.00    +0.000 A 
ATOM     30  C   UNL     1       4.031   4.285  17.071  0.00  0.00    +0.000 A 
ATOM     31  C   UNL     1       4.927   3.702  16.174  0.00  0.00    +0.000 A 
ATOM     32  C   UNL     1       5.827   4.553  15.501  0.00  0.00    +0.000 A 
ATOM     33  C   UNL     1       5.807   5.946  15.731  0.00  0.00    +0.000 A 
ATOM     34  C   UNL     1       4.895   6.506  16.642  0.00  0.00    +0.000 A 
ATOM     35  C   UNL     1       4.011   5.643  17.305  0.00  0.00    +0.000 A 
ENDBRANCH  22  23
ENDBRANCH  21  22
ENDBRANCH  20  21
ENDBRANCH  19  20
ENDBRANCH   4  19
TORSDOF 9
ENDMDL
MODEL 4
REMARK VINA RESULT:      -8.0      6.530     11.890
REMARK  Name = 
REMARK  9 active torsions:
REMARK  status: ('A' for Active; 'I' for Inactive)
REMARK    1  A    between atoms: N_1  and  C_2
REMARK    2  A    between atoms: C_5  and  C_6
REMARK    3  A    between atoms: C_7  and  C_8
REMARK    4  A    between atoms: C_8  and  N_9
REMARK    5  A    between atoms: N_12  and  C_13
REMARK    6  A    between atoms: C_13  and  C_14
REMARK    7  A    between atoms: C_14  and  C_15
REMARK    8  A    between atoms: C_15  and  C_16
REMARK    9  A    between atoms: C_16  and  N_17
REMARK                            x       y       z     vdW  Elec       q    Type
REMARK                         _______ _______ _______ _____ _____    ______ ____
ROOT
ATOM      1  N   UNL     1       1.284   9.162  18.949  0.00  0.00    +0.000 NA
ATOM      2  C   UNL     1       0.827  10.556  18.835  0.00  0.00    +0.000 C 
ATOM      3  C   UNL     1      -0.547  10.611  19.500  0.00  0.00    +0.000 C 
ATOM      4  N   UNL     1      -0.469  10.182  20.917  0.00  0.00    +0.000 NA
ATOM      5  C   UNL     1       0.094   8.812  21.013  0.00  0.00    +0.000 C 
ATOM      6  C   UNL     1       1.469   8.719  20.330  0.00  0.00    +0.000 C 
ENDROOT
BRANCH   1   7
ATOM      7  C   UNL     1       2.241   8.693  17.944  0.00  0.00    +0.000 C 
BRANCH   7   9
ATOM      8  C   UNL     1       2.235   6.233  17.803  0.00  0.00    +0.000 C 
ATOM      9  C   UNL     1       2.724   7.343  18.397  0.00  0.00    +0.000 C 
BRANCH   8  13
ATOM     10  C   UNL     1       3.717   2.284  18.557  0.00  0.00    +0.000 A 
ATOM     11  C   UNL     1       4.285   3.396  19.190  0.00  0.00    +0.000 A 
ATOM     12  C   UNL     1       3.781   4.674  18.947  0.00  0.00    +0.000 A 
ATOM     13  C   UNL     1       2.711   4.858  18.054  0.00  0.00    +0.000 A 
ATOM     14  C   UNL     1       2.124   3.734  17.447  0.00  0.00    +0.000 A 
ATOM     15  C   UNL     1       2.625   2.456  17.698  0.00  0.00    +0.000 A 
BRANCH  10  16
ATOM     16  N   UNL     1       4.258   0.991  18.766  0.00  0.00    +0.000 N 
ATOM     17  H   UNL     1       4.377   0.340  17.976  0.00  0.00    +0.000 HD
ATOM     18  H   UNL     1       4.484   0.666  19.716  0.00  0.00    +0.000 HD
ENDBRANCH  10  16
ENDBRANCH   8  13
ENDBRANCH   7   9
ENDBRANCH   1   7
BRANCH   4  19
ATOM     19  C   UNL     1       0.252  11.140  21.783  0.00  0.00    +0.000 C 
BRANCH  19  20
ATOM     20  C   UNL     1      -0.661  12.297  22.235  0.00  0.00    +0.000 C 
BRANCH  20  21
ATOM     21  C   UNL     1      -2.151  11.955  22.115  0.00  0.00    +0.000 C 
BRANCH  21  22
ATOM     22  C   UNL     1      -2.960  13.159  21.636  0.00  0.00    +0.000 C 
BRANCH  22  23
ATOM     23  N   UNL     1      -4.312  12.757  21.275  0.00  0.00    +0.000 N 
ATOM     24  C   UNL     1      -5.406  12.776  22.071  0.00  0.00    +0.000 A 
ATOM     25  C   UNL     1      -5.496  13.209  23.398  0.00  0.00    +0.000 A 
ATOM     26  C   UNL     1      -6.744  13.122  24.034  0.00  0.00    +0.000 A 
ATOM     27  C   UNL     1      -7.867  12.611  23.346  0.00  0.00    +0.000 A 
ATOM     28  C   UNL     1      -7.753  12.182  22.011  0.00  0.00    +0.000 A 
ATOM     29  C   UNL     1      -6.507  12.281  21.400  0.00  0.00    +0.000 A 
ATOM     30  C   UNL     1      -6.070  11.948  20.131  0.00  0.00    +0.000 A 
ATOM     31  C   UNL     1      -6.740  11.408  19.033  0.00  0.00    +0.000 A 
ATOM     32  C   UNL     1      -5.994  11.182  17.857  0.00  0.00    +0.000 A 
ATOM     33  C   UNL     1      -4.620  11.502  17.805  0.00  0.00    +0.000 A 
ATOM     34  C   UNL     1      -3.971  12.043  18.927  0.00  0.00    +0.000 A 
ATOM     35  C   UNL     1      -4.727  12.256  20.088  0.00  0.00    +0.000 A 
ENDBRANCH  22  23
ENDBRANCH  21  22
ENDBRANCH  20  21
ENDBRANCH  19  20
ENDBRANCH   4  19
TORSDOF 9
ENDMDL
MODEL 5
REMARK VINA RESULT:      -8.0      0.717      1.102
REMARK  Name = 
REMARK  9 active torsions:
REMARK  status: ('A' for Active; 'I' for Inactive)
REMARK    1  A    between atoms: N_1  and  C_2
REMARK    2  A    between atoms: C_5  and  C_6
REMARK    3  A    between atoms: C_7  and  C_8
REMARK    4  A    between atoms: C_8  and  N_9
REMARK    5  A    between atoms: N_12  and  C_13
REMARK    6  A    between atoms: C_13  and  C_14
REMARK    7  A    between atoms: C_14  and  C_15
REMARK    8  A    between atoms: C_15  and  C_16
REMARK    9  A    between atoms: C_16  and  N_17
REMARK                            x       y       z     vdW  Elec       q    Type
REMARK                         _______ _______ _______ _____ _____    ______ ____
ROOT
ATOM      1  N   UNL     1       4.881   5.458  17.638  0.00  0.00    +0.000 NA
ATOM      2  C   UNL     1       5.739   5.954  18.727  0.00  0.00    +0.000 C 
ATOM      3  C   UNL     1       7.177   5.667  18.303  0.00  0.00    +0.000 C 
ATOM      4  N   UNL     1       7.496   6.335  17.019  0.00  0.00    +0.000 NA
ATOM      5  C   UNL     1       6.551   5.899  15.959  0.00  0.00    +0.000 C 
ATOM      6  C   UNL     1       5.091   6.154  16.369  0.00  0.00    +0.000 C 
ENDROOT
BRANCH   1   7
ATOM      7  C   UNL     1       3.513   5.075  17.992  0.00  0.00    +0.000 C 
BRANCH   7   9
ATOM      8  C   UNL     1       2.380   7.187  18.563  0.00  0.00    +0.000 C 
ATOM      9  C   UNL     1       3.023   6.081  18.996  0.00  0.00    +0.000 C 
BRANCH   8  13
ATOM     10  C   UNL     1       0.475  10.010  21.163  0.00  0.00    +0.000 A 
ATOM     11  C   UNL     1       0.948   8.787  21.655  0.00  0.00    +0.000 A 
ATOM     12  C   UNL     1       1.580   7.885  20.799  0.00  0.00    +0.000 A 
ATOM     13  C   UNL     1       1.735   8.188  19.435  0.00  0.00    +0.000 A 
ATOM     14  C   UNL     1       1.287   9.432  18.955  0.00  0.00    +0.000 A 
ATOM     15  C   UNL     1       0.662  10.336  19.814  0.00  0.00    +0.000 A 
BRANCH  10  16
ATOM     16  N   UNL     1      -0.210  10.906  22.020  0.00  0.00    +0.000 N 
ATOM     17  H   UNL     1      -1.223  10.806  22.180  0.00  0.00    +0.000 HD
ATOM     18  H   UNL     1       0.283  11.704  22.445  0.00  0.00    +0.000 HD
ENDBRANCH  10  16
ENDBRANCH   8  13
ENDBRANCH   7   9
ENDBRANCH   1   7
BRANCH   4  19
ATOM     19  C   UNL     1       7.570   7.808  17.125  0.00  0.00    +0.000 C 
BRANCH  19  20
ATOM     20  C   UNL     1       8.367   8.250  18.368  0.00  0.00    +0.000 C 
BRANCH  20  21
ATOM     21  C   UNL     1       8.585   9.767  18.420  0.00  0.00    +0.000 C 
BRANCH  21  22
ATOM     22  C   UNL     1       9.739  10.129  19.354  0.00  0.00    +0.000 C 
BRANCH  22  23
ATOM     23  N   UNL     1       9.794  11.569  19.566  0.00  0.00    +0.000 N 
ATOM     24  C   UNL     1       9.341  12.250  20.644  0.00  0.00    +0.000 A 
ATOM     25  C   UNL     1       8.750  11.732  21.801  0.00  0.00    +0.000 A 
ATOM     26  C   UNL     1       8.341  12.639  22.792  0.00  0.00    +0.000 A 
ATOM     27  C   UNL     1       8.525  14.028  22.613  0.00  0.00    +0.000 A 
ATOM     28  C   UNL     1       9.122  14.527  21.441  0.00  0.00    +0.000 A 
ATOM     29  C   UNL     1       9.523  13.608  20.474  0.00  0.00    +0.000 A 
ATOM     30  C   UNL     1      10.121  13.768  19.238  0.00  0.00    +0.000 A 
ATOM     31  C   UNL     1      10.532  14.909  18.549  0.00  0.00    +0.000 A 
ATOM     32  C   UNL     1      11.121  14.732  17.280  0.00  0.00    +0.000 A 
ATOM     33  C   UNL     1      11.289  13.437  16.741  0.00  0.00    +0.000 A 
ATOM     34  C   UNL     1      10.864  12.306  17.456  0.00  0.00    +0.000 A 
ATOM     35  C   UNL     1      10.276  12.503  18.714  0.00  0.00    +0.000 A 
ENDBRANCH  22  23
ENDBRANCH  21  22
ENDBRANCH  20  21
ENDBRANCH  19  20
ENDBRANCH   4  19
TORSDOF 9
ENDMDL
MODEL 6
REMARK VINA RESULT:      -7.9      5.902     11.606
REMARK  Name = 
REMARK  9 active torsions:
REMARK  status: ('A' for Active; 'I' for Inactive)
REMARK    1  A    between atoms: N_1  and  C_2
REMARK    2  A    between atoms: C_5  and  C_6
REMARK    3  A    between atoms: C_7  and  C_8
REMARK    4  A    between atoms: C_8  and  N_9
REMARK    5  A    between atoms: N_12  and  C_13
REMARK    6  A    between atoms: C_13  and  C_14
REMARK    7  A    between atoms: C_14  and  C_15
REMARK    8  A    between atoms: C_15  and  C_16
REMARK    9  A    between atoms: C_16  and  N_17
REMARK                            x       y       z     vdW  Elec       q    Type
REMARK                         _______ _______ _______ _____ _____    ______ ____
ROOT
ATOM      1  N   UNL     1       1.442  10.390  19.218  0.00  0.00    +0.000 NA
ATOM      2  C   UNL     1       0.467   9.991  20.247  0.00  0.00    +0.000 C 
ATOM      3  C   UNL     1       0.913  10.663  21.543  0.00  0.00    +0.000 C 
ATOM      4  N   UNL     1       0.963  12.137  21.388  0.00  0.00    +0.000 NA
ATOM      5  C   UNL     1       1.872  12.512  20.275  0.00  0.00    +0.000 C 
ATOM      6  C   UNL     1       1.460  11.829  18.959  0.00  0.00    +0.000 C 
ENDROOT
BRANCH   1   7
ATOM      7  C   UNL     1       1.612   9.486  18.079  0.00  0.00    +0.000 C 
BRANCH   7   9
ATOM      8  C   UNL     1       2.464   7.191  17.793  0.00  0.00    +0.000 C 
ATOM      9  C   UNL     1       2.037   8.156  18.636  0.00  0.00    +0.000 C 
BRANCH   8  13
ATOM     10  C   UNL     1       4.205   3.466  18.993  0.00  0.00    +0.000 A 
ATOM     11  C   UNL     1       4.836   4.680  19.290  0.00  0.00    +0.000 A 
ATOM     12  C   UNL     1       4.248   5.886  18.906  0.00  0.00    +0.000 A 
ATOM     13  C   UNL     1       3.029   5.892  18.207  0.00  0.00    +0.000 A 
ATOM     14  C   UNL     1       2.385   4.670  17.941  0.00  0.00    +0.000 A 
ATOM     15  C   UNL     1       2.970   3.466  18.332  0.00  0.00    +0.000 A 
BRANCH  10  16
ATOM     16  N   UNL     1       4.823   2.238  19.338  0.00  0.00    +0.000 N 
ATOM     17  H   UNL     1       4.721   1.849  20.287  0.00  0.00    +0.000 HD
ATOM     18  H   UNL     1       5.431   1.750  18.665  0.00  0.00    +0.000 HD
ENDBRANCH  10  16
ENDBRANCH   8  13
ENDBRANCH   7   9
ENDBRANCH   1   7
BRANCH   4  19
ATOM     19  C   UNL     1      -0.372  12.758  21.247  0.00  0.00    +0.000 C 
BRANCH  19  20
ATOM     20  C   UNL     1      -1.357  12.241  22.314  0.00  0.00    +0.000 C 
BRANCH  20  21
ATOM     21  C   UNL     1      -2.814  12.271  21.837  0.00  0.00    +0.000 C 
BRANCH  21  22
ATOM     22  C   UNL     1      -2.993  13.233  20.663  0.00  0.00    +0.000 C 
BRANCH  22  23
ATOM     23  N   UNL     1      -3.824  12.632  19.630  0.00  0.00    +0.000 N 
ATOM     24  C   UNL     1      -3.425  11.780  18.658  0.00  0.00    +0.000 A 
ATOM     25  C   UNL     1      -2.143  11.264  18.443  0.00  0.00    +0.000 A 
ATOM     26  C   UNL     1      -1.958  10.398  17.353  0.00  0.00    +0.000 A 
ATOM     27  C   UNL     1      -3.040  10.068  16.507  0.00  0.00    +0.000 A 
ATOM     28  C   UNL     1      -4.321  10.599  16.743  0.00  0.00    +0.000 A 
ATOM     29  C   UNL     1      -4.481  11.452  17.832  0.00  0.00    +0.000 A 
ATOM     30  C   UNL     1      -5.582  12.129  18.323  0.00  0.00    +0.000 A 
ATOM     31  C   UNL     1      -6.908  12.175  17.892  0.00  0.00    +0.000 A 
ATOM     32  C   UNL     1      -7.808  12.977  18.625  0.00  0.00    +0.000 A 
ATOM     33  C   UNL     1      -7.368  13.698  19.758  0.00  0.00    +0.000 A 
ATOM     34  C   UNL     1      -6.026  13.634  20.167  0.00  0.00    +0.000 A 
ATOM     35  C   UNL     1      -5.147  12.835  19.423  0.00  0.00    +0.000 A 
ENDBRANCH  22  23
ENDBRANCH  21  22
ENDBRANCH  20  21
ENDBRANCH  19  20
ENDBRANCH   4  19
TORSDOF 9
ENDMDL
MODEL 7
REMARK VINA RESULT:      -7.9      3.580      9.991
REMARK  Name = 
REMARK  9 active torsions:
REMARK  status: ('A' for Active; 'I' for Inactive)
REMARK    1  A    between atoms: N_1  and  C_2
REMARK    2  A    between atoms: C_5  and  C_6
REMARK    3  A    between atoms: C_7  and  C_8
REMARK    4  A    between atoms: C_8  and  N_9
REMARK    5  A    between atoms: N_12  and  C_13
REMARK    6  A    between atoms: C_13  and  C_14
REMARK    7  A    between atoms: C_14  and  C_15
REMARK    8  A    between atoms: C_15  and  C_16
REMARK    9  A    between atoms: C_16  and  N_17
REMARK                            x       y       z     vdW  Elec       q    Type
REMARK                         _______ _______ _______ _____ _____    ______ ____
ROOT
ATOM      1  N   UNL     1       0.944  13.924  19.841  0.00  0.00    +0.000 NA
ATOM      2  C   UNL     1       1.473  12.789  20.616  0.00  0.00    +0.000 C 
ATOM      3  C   UNL     1       0.313  11.811  20.788  0.00  0.00    +0.000 C 
ATOM      4  N   UNL     1      -0.209  11.370  19.472  0.00  0.00    +0.000 NA
ATOM      5  C   UNL     1      -0.639  12.540  18.665  0.00  0.00    +0.000 C 
ATOM      6  C   UNL     1       0.504  13.556  18.496  0.00  0.00    +0.000 C 
ENDROOT
BRANCH   1   7
ATOM      7  C   UNL     1       1.612  15.215  20.014  0.00  0.00    +0.000 C 
BRANCH   7   9
ATOM      8  C   UNL     1       3.682  15.750  18.789  0.00  0.00    +0.000 C 
ATOM      9  C   UNL     1       3.071  14.995  19.728  0.00  0.00    +0.000 C 
BRANCH   8  13
ATOM     10  C   UNL     1       7.879  15.807  17.928  0.00  0.00    +0.000 A 
ATOM     11  C   UNL     1       7.247  16.922  18.493  0.00  0.00    +0.000 A 
ATOM     12  C   UNL     1       5.883  16.882  18.783  0.00  0.00    +0.000 A 
ATOM     13  C   UNL     1       5.129  15.731  18.497  0.00  0.00    +0.000 A 
ATOM     14  C   UNL     1       5.776  14.604  17.959  0.00  0.00    +0.000 A 
ATOM     15  C   UNL     1       7.141  14.643  17.677  0.00  0.00    +0.000 A 
BRANCH  10  16
ATOM     16  N   UNL     1       9.253  15.862  17.588  0.00  0.00    +0.000 N 
ATOM     17  H   UNL     1       9.726  15.040  17.186  0.00  0.00    +0.000 HD
ATOM     18  H   UNL     1       9.810  16.704  17.793  0.00  0.00    +0.000 HD
ENDBRANCH  10  16
ENDBRANCH   8  13
ENDBRANCH   7   9
ENDBRANCH   1   7
BRANCH   4  19
ATOM     19  C   UNL     1       0.728  10.498  18.730  0.00  0.00    +0.000 C 
BRANCH  19  20
ATOM     20  C   UNL     1       1.092   9.237  19.537  0.00  0.00    +0.000 C 
BRANCH  20  21
ATOM     21  C   UNL     1       1.756   8.156  18.675  0.00  0.00    +0.000 C 
BRANCH  21  22
ATOM     22  C   UNL     1       2.420   7.086  19.541  0.00  0.00    +0.000 C 
BRANCH  22  23
ATOM     23  N   UNL     1       2.755   5.916  18.742  0.00  0.00    +0.000 N 
ATOM     24  C   UNL     1       2.191   4.689  18.821  0.00  0.00    +0.000 A 
ATOM     25  C   UNL     1       1.149   4.274  19.657  0.00  0.00    +0.000 A 
ATOM     26  C   UNL     1       0.733   2.936  19.574  0.00  0.00    +0.000 A 
ATOM     27  C   UNL     1       1.356   2.045  18.671  0.00  0.00    +0.000 A 
ATOM     28  C   UNL     1       2.403   2.485  17.840  0.00  0.00    +0.000 A 
ATOM     29  C   UNL     1       2.795   3.817  17.937  0.00  0.00    +0.000 A 
ATOM     30  C   UNL     1       3.771   4.544  17.281  0.00  0.00    +0.000 A 
ATOM     31  C   UNL     1       4.686   4.183  16.291  0.00  0.00    +0.000 A 
ATOM     32  C   UNL     1       5.567   5.179  15.820  0.00  0.00    +0.000 A 
ATOM     33  C   UNL     1       5.510   6.492  16.336  0.00  0.00    +0.000 A 
ATOM     34  C   UNL     1       4.580   6.826  17.335  0.00  0.00    +0.000 A 
ATOM     35  C   UNL     1       3.716   5.822  17.793  0.00  0.00    +0.000 A 
ENDBRANCH  22  23
ENDBRANCH  21  22
ENDBRANCH  20  21
ENDBRANCH  19  20
ENDBRANCH   4  19
TORSDOF 9
ENDMDL
MODEL 8
REMARK VINA RESULT:      -7.9      5.991     10.038
REMARK  Name = 
REMARK  9 active torsions:
REMARK  status: ('A' for Active; 'I' for Inactive)
REMARK    1  A    between atoms: N_1  and  C_2
REMARK    2  A    between atoms: C_5  and  C_6
REMARK    3  A    between atoms: C_7  and  C_8
REMARK    4  A    between atoms: C_8  and  N_9
REMARK    5  A    between atoms: N_12  and  C_13
REMARK    6  A    between atoms: C_13  and  C_14
REMARK    7  A    between atoms: C_14  and  C_15
REMARK    8  A    between atoms: C_15  and  C_16
REMARK    9  A    between atoms: C_16  and  N_17
REMARK                            x       y       z     vdW  Elec       q    Type
REMARK                         _______ _______ _______ _____ _____    ______ ____
ROOT
ATOM      1  N   UNL     1      -0.482  12.758  19.883  0.00  0.00    +0.000 NA
ATOM      2  C   UNL     1       0.694  12.278  20.627  0.00  0.00    +0.000 C 
ATOM      3  C   UNL     1       0.436  10.805  20.931  0.00  0.00    +0.000 C 
ATOM      4  N   UNL     1       0.237  10.032  19.681  0.00  0.00    +0.000 NA
ATOM      5  C   UNL     1      -0.887  10.599  18.894  0.00  0.00    +0.000 C 
ATOM      6  C   UNL     1      -0.667  12.091  18.594  0.00  0.00    +0.000 C 
ENDROOT
BRANCH   1   7
ATOM      7  C   UNL     1      -0.781  14.189  19.964  0.00  0.00    +0.000 C 
BRANCH   7   9
ATOM      8  C   UNL     1      -2.649  13.240  21.262  0.00  0.00    +0.000 C 
ATOM      9  C   UNL     1      -2.112  14.319  20.651  0.00  0.00    +0.000 C 
BRANCH   8  13
ATOM     10  C   UNL     1      -6.166  13.209  23.708  0.00  0.00    +0.000 A 
ATOM     11  C   UNL     1      -4.905  12.959  24.263  0.00  0.00    +0.000 A 
ATOM     12  C   UNL     1      -3.767  12.989  23.456  0.00  0.00    +0.000 A 
ATOM     13  C   UNL     1      -3.877  13.254  22.080  0.00  0.00    +0.000 A 
ATOM     14  C   UNL     1      -5.143  13.535  21.536  0.00  0.00    +0.000 A 
ATOM     15  C   UNL     1      -6.279  13.513  22.345  0.00  0.00    +0.000 A 
BRANCH  10  16
ATOM     16  N   UNL     1      -7.328  13.132  24.515  0.00  0.00    +0.000 N 
ATOM     17  H   UNL     1      -7.606  12.240  24.950  0.00  0.00    +0.000 HD
ATOM     18  H   UNL     1      -7.942  13.951  24.629  0.00  0.00    +0.000 HD
ENDBRANCH  10  16
ENDBRANCH   8  13
ENDBRANCH   7   9
ENDBRANCH   1   7
BRANCH   4  19
ATOM     19  C   UNL     1       1.468   9.896  18.871  0.00  0.00    +0.000 C 
BRANCH  19  20
ATOM     20  C   UNL     1       1.320   8.809  17.789  0.00  0.00    +0.000 C 
BRANCH  20  21
ATOM     21  C   UNL     1       2.621   8.034  17.548  0.00  0.00    +0.000 C 
BRANCH  21  22
ATOM     22  C   UNL     1       2.905   7.058  18.689  0.00  0.00    +0.000 C 
BRANCH  22  23
ATOM     23  N   UNL     1       3.228   5.739  18.167  0.00  0.00    +0.000 N 
ATOM     24  C   UNL     1       4.212   5.429  17.292  0.00  0.00    +0.000 A 
ATOM     25  C   UNL     1       5.154   6.289  16.720  0.00  0.00    +0.000 A 
ATOM     26  C   UNL     1       6.082   5.741  15.819  0.00  0.00    +0.000 A 
ATOM     27  C   UNL     1       6.054   4.364  15.509  0.00  0.00    +0.000 A 
ATOM     28  C   UNL     1       5.097   3.517  16.098  0.00  0.00    +0.000 A 
ATOM     29  C   UNL     1       4.190   4.081  16.990  0.00  0.00    +0.000 A 
ATOM     30  C   UNL     1       3.147   3.538  17.717  0.00  0.00    +0.000 A 
ATOM     31  C   UNL     1       2.661   2.233  17.805  0.00  0.00    +0.000 A 
ATOM     32  C   UNL     1       1.560   2.000  18.655  0.00  0.00    +0.000 A 
ATOM     33  C   UNL     1       0.984   3.059  19.391  0.00  0.00    +0.000 A 
ATOM     34  C   UNL     1       1.493   4.364  19.281  0.00  0.00    +0.000 A 
ATOM     35  C   UNL     1       2.585   4.576  18.428  0.00  0.00    +0.000 A 
ENDBRANCH  22  23
ENDBRANCH  21  22
ENDBRANCH  20  21
ENDBRANCH  19  20
ENDBRANCH   4  19
TORSDOF 9
ENDMDL
MODEL 9
REMARK VINA RESULT:      -7.8      0.383      2.740
REMARK  Name = 
REMARK  9 active torsions:
REMARK  status: ('A' for Active; 'I' for Inactive)
REMARK    1  A    between atoms: N_1  and  C_2
REMARK    2  A    between atoms: C_5  and  C_6
REMARK    3  A    between atoms: C_7  and  C_8
REMARK    4  A    between atoms: C_8  and  N_9
REMARK    5  A    between atoms: N_12  and  C_13
REMARK    6  A    between atoms: C_13  and  C_14
REMARK    7  A    between atoms: C_14  and  C_15
REMARK    8  A    between atoms: C_15  and  C_16
REMARK    9  A    between atoms: C_16  and  N_17
REMARK                            x       y       z     vdW  Elec       q    Type
REMARK                         _______ _______ _______ _____ _____    ______ ____
ROOT
ATOM      1  N   UNL     1       5.075   5.447  18.031  0.00  0.00    +0.000 NA
ATOM      2  C   UNL     1       6.226   5.071  18.869  0.00  0.00    +0.000 C 
ATOM      3  C   UNL     1       7.447   5.094  17.953  0.00  0.00    +0.000 C 
ATOM      4  N   UNL     1       7.633   6.436  17.350  0.00  0.00    +0.000 NA
ATOM      5  C   UNL     1       6.418   6.840  16.598  0.00  0.00    +0.000 C 
ATOM      6  C   UNL     1       5.166   6.802  17.490  0.00  0.00    +0.000 C 
ENDROOT
BRANCH   1   7
ATOM      7  C   UNL     1       3.759   4.965  18.457  0.00  0.00    +0.000 C 
BRANCH   7   9
ATOM      8  C   UNL     1       2.505   6.664  19.729  0.00  0.00    +0.000 C 
ATOM      9  C   UNL     1       2.855   6.165  18.523  0.00  0.00    +0.000 C 
BRANCH   8  13
ATOM     10  C   UNL     1       0.334  10.317  20.267  0.00  0.00    +0.000 A 
ATOM     11  C   UNL     1       0.948  10.022  19.044  0.00  0.00    +0.000 A 
ATOM     12  C   UNL     1       1.638   8.821  18.879  0.00  0.00    +0.000 A 
ATOM     13  C   UNL     1       1.735   7.905  19.941  0.00  0.00    +0.000 A 
ATOM     14  C   UNL     1       1.089   8.193  21.156  0.00  0.00    +0.000 A 
ATOM     15  C   UNL     1       0.392   9.392  21.317  0.00  0.00    +0.000 A 
BRANCH  10  16
ATOM     16  N   UNL     1      -0.326  11.557  20.453  0.00  0.00    +0.000 N 
ATOM     17  H   UNL     1       0.163  12.350  20.895  0.00  0.00    +0.000 HD
ATOM     18  H   UNL     1      -1.320  11.664  20.203  0.00  0.00    +0.000 HD
ENDBRANCH  10  16
ENDBRANCH   8  13
ENDBRANCH   7   9
ENDBRANCH   1   7
BRANCH   4  19
ATOM     19  C   UNL     1       8.049   7.467  18.326  0.00  0.00    +0.000 C 
BRANCH  19  20
ATOM     20  C   UNL     1       7.686   8.885  17.846  0.00  0.00    +0.000 C 
BRANCH  20  21
ATOM     21  C   UNL     1       8.832   9.886  18.041  0.00  0.00    +0.000 C 
BRANCH  21  22
ATOM     22  C   UNL     1       9.240   9.982  19.511  0.00  0.00    +0.000 C 
BRANCH  22  23
ATOM     23  N   UNL     1       9.681  11.332  19.832  0.00  0.00    +0.000 N 
ATOM     24  C   UNL     1      10.527  12.104  19.112  0.00  0.00    +0.000 A 
ATOM     25  C   UNL     1      11.140  11.800  17.893  0.00  0.00    +0.000 A 
ATOM     26  C   UNL     1      11.998  12.759  17.332  0.00  0.00    +0.000 A 
ATOM     27  C   UNL     1      12.227  13.989  17.989  0.00  0.00    +0.000 A 
ATOM     28  C   UNL     1      11.598  14.274  19.215  0.00  0.00    +0.000 A 
ATOM     29  C   UNL     1      10.749  13.309  19.749  0.00  0.00    +0.000 A 
ATOM     30  C   UNL     1      10.001  13.277  20.912  0.00  0.00    +0.000 A 
ATOM     31  C   UNL     1       9.841  14.211  21.936  0.00  0.00    +0.000 A 
ATOM     32  C   UNL     1       8.989  13.869  23.007  0.00  0.00    +0.000 A 
ATOM     33  C   UNL     1       8.322  12.625  23.025  0.00  0.00    +0.000 A 
ATOM     34  C   UNL     1       8.504  11.703  21.981  0.00  0.00    +0.000 A 
ATOM     35  C   UNL     1       9.358  12.058  20.928  0.00  0.00    +0.000 A 
ENDBRANCH  22  23
ENDBRANCH  21  22
ENDBRANCH  20  21
ENDBRANCH  19  20
ENDBRANCH   4  19
TORSDOF 9
ENDMDL
